REMARK  Name = ZINC59374191
REMARK  8 active torsions:
REMARK  status: ('A' for Active; 'I' for Inactive)
REMARK    1  A    between atoms: C_1  and  C_2
REMARK    2  A    between atoms: C_3  and  C_32
REMARK    3  A    between atoms: C_11  and  C_13
REMARK    4  A    between atoms: C_13  and  N_14
REMARK    5  A    between atoms: C_24  and  C_28
REMARK    6  A    between atoms: C_28  and  C_29
REMARK    7  A    between atoms: C_28  and  C_30
REMARK    8  A    between atoms: C_28  and  C_31
REMARK                            x       y       z     vdW  Elec       q    Type
REMARK                         _______ _______ _______ _____ _____    ______ ____
ROOT
ATOM      1  N   UNL     1       0.104  -4.815   4.051  0.00  0.00    -0.292 NA
ATOM      2  C   UNL     1      -1.147  -5.137   3.353  0.00  0.00    +0.104 C 
ATOM      3  C   UNL     1      -1.023  -6.516   2.697  0.00  0.00    +0.122 C 
ATOM      4  N   UNL     1      -0.616  -7.487   3.725  0.00  0.00    -0.306 N 
ATOM      5  C   UNL     1       0.552  -7.168   4.560  0.00  0.00    +0.122 C 
ATOM      6  C   UNL     1       0.365  -5.763   5.143  0.00  0.00    +0.104 C 
ATOM      7  C   UNL     1      -1.315  -8.670   3.901  0.00  0.00    +0.184 A 
ATOM      8  N   UNL     1      -1.099  -9.631   4.759  0.00  0.00    -0.142 NA
ATOM      9  N   UNL     1      -1.910 -10.761   4.797  0.00  0.00    -0.212 N 
ATOM     10  C   UNL     1      -2.014 -11.945   5.515  0.00  0.00    +0.139 A 
ATOM     11  C   UNL     1      -3.064 -12.629   5.028  0.00  0.00    +0.068 A 
ATOM     12  N   UNL     1      -3.612 -11.911   4.036  0.00  0.00    -0.224 NA
ATOM     13  C   UNL     1      -2.936 -10.807   3.893  0.00  0.00    +0.197 A 
ATOM     14  S   UNL     1      -2.747  -9.270   3.020  0.00  0.00    -0.013 S 
ENDROOT
BRANCH  11  15
ATOM     15  C   UNL     1      -3.544 -13.973   5.513  0.00  0.00    +0.006 C 
ATOM     16  C   UNL     1      -4.269 -13.804   6.849  0.00  0.00    +0.017 C 
ATOM     17  C   UNL     1      -4.504 -14.573   4.484  0.00  0.00    +0.017 C 
ATOM     18  C   UNL     1      -2.346 -14.906   5.697  0.00  0.00    +0.017 C 
ENDBRANCH  11  15
BRANCH   1  19
ATOM     19  C   UNL     1       0.090  -3.432   4.547  0.00  0.00    +0.158 C 
BRANCH  19  30
ATOM     20  C   UNL     1      -0.018   1.503   0.010  0.00  0.00    +0.045 C 
ATOM     21  C   UNL     1       0.002  -0.004   0.002  0.00  0.00    -0.026 A 
ATOM     22  C   UNL     1       0.006  -0.677  -1.160  0.00  0.00    -0.008 A 
ATOM     23  S   UNL     1       0.032  -2.385  -0.648  0.00  0.00    -0.073 S 
ATOM     24  C   UNL     1       0.037  -2.144   1.110  0.00  0.00    +0.116 A 
ATOM     25  C   UNL     1       0.024  -0.745   1.250  0.00  0.00    +0.075 A 
ATOM     26  C   UNL     1       0.029  -0.257   2.597  0.00  0.00    +0.260 A 
ATOM     27  O   UNL     1       0.014   0.942   2.821  0.00  0.00    -0.267 OA
ATOM     28  N   UNL     1       0.051  -1.142   3.611  0.00  0.00    -0.309 N 
ATOM     29  H   UNL     1       0.054  -0.817   4.525  0.00  0.00    +0.170 HD
ATOM     30  C   UNL     1       0.067  -2.480   3.380  0.00  0.00    +0.125 A 
ATOM     31  N   UNL     1       0.053  -2.956   2.163  0.00  0.00    -0.225 NA
ATOM     32  C   UNL     1      -0.009  -0.122  -2.561  0.00  0.00    +0.052 C 
ENDBRANCH  19  30
ENDBRANCH   1  19
TORSDOF 3
