REMARK  Name = ZINC38583289
REMARK  7 active torsions:
REMARK  status: ('A' for Active; 'I' for Inactive)
REMARK    1  A    between atoms: C_1  and  O_2
REMARK    2  A    between atoms: O_2  and  C_3
REMARK    3  A    between atoms: C_3  and  C_5
REMARK    4  A    between atoms: C_7  and  N_16
REMARK    5  A    between atoms: C_17  and  C_19
REMARK    6  A    between atoms: C_19  and  N_20
REMARK    7  A    between atoms: N_23  and  C_26
REMARK                            x       y       z     vdW  Elec       q    Type
REMARK                         _______ _______ _______ _____ _____    ______ ____
ROOT
ATOM      1  N   UNL     1      -1.694  -2.560   0.951  0.00  0.00    -0.285 N 
ATOM      2  C   UNL     1      -2.830  -3.005   1.524  0.00  0.00    +0.231 C 
ATOM      3  O   UNL     1      -2.807  -3.446   2.653  0.00  0.00    -0.274 OA
ATOM      4  H   UNL     1      -1.726  -2.132   0.081  0.00  0.00    +0.155 HD
ENDROOT
BRANCH   1   6
ATOM      5  C   UNL     1      -0.239  -3.504   2.854  0.00  0.00    +0.234 C 
ATOM      6  C   UNL     1      -0.503  -2.710   1.594  0.00  0.00    +0.053 C 
ATOM      7  C   UNL     1       0.718  -2.168   1.229  0.00  0.00    +0.019 A 
ATOM      8  C   UNL     1       1.111  -1.340   0.150  0.00  0.00    +0.026 A 
ATOM      9  C   UNL     1       2.405  -0.952   0.038  0.00  0.00    +0.019 A 
ATOM     10  C   UNL     1       3.373  -1.351   0.965  0.00  0.00    +0.017 A 
ATOM     11  C   UNL     1       3.069  -2.143   2.021  0.00  0.00    +0.027 A 
ATOM     12  C   UNL     1       1.735  -2.590   2.208  0.00  0.00    +0.045 A 
ATOM     13  N   UNL     1       1.192  -3.352   3.138  0.00  0.00    -0.367 N 
ATOM     14 BR   UNL     1       2.915   0.155  -1.408  0.00  0.00    -0.050 Br
ATOM     15  H   UNL     1       1.662  -3.748   3.888  0.00  0.00    +0.161 HD
BRANCH   5  16
ATOM     16  C   UNL     1      -0.572  -4.957   2.632  0.00  0.00    +0.335 C 
ATOM     17  O   UNL     1       0.287  -5.726   2.271  0.00  0.00    -0.248 OA
BRANCH  16  19
ATOM     18  C   UNL     1      -2.069  -6.785   2.603  0.00  0.00    +0.280 C 
ATOM     19  O   UNL     1      -1.824  -5.397   2.834  0.00  0.00    -0.466 OA
ENDBRANCH  16  19
ENDBRANCH   5  16
ENDBRANCH   1   6
BRANCH   2  20
ATOM     20  C   UNL     1      -4.129  -2.956   0.761  0.00  0.00    +0.180 C 
BRANCH  20  21
ATOM     21  N   UNL     1      -5.209  -3.495   1.597  0.00  0.00    -0.291 NA
ATOM     22  C   UNL     1      -5.005  -4.926   1.863  0.00  0.00    +0.104 C 
ATOM     23  C   UNL     1      -6.046  -5.406   2.880  0.00  0.00    +0.120 C 
ATOM     24  N   UNL     1      -7.384  -5.050   2.384  0.00  0.00    -0.327 N 
ATOM     25  C   UNL     1      -7.624  -3.660   1.967  0.00  0.00    +0.120 C 
ATOM     26  C   UNL     1      -6.522  -3.249   0.986  0.00  0.00    +0.104 C 
BRANCH  24  27
ATOM     27  C   UNL     1      -8.399  -6.007   2.309  0.00  0.00    +0.030 A 
ATOM     28  C   UNL     1      -8.127  -7.336   2.609  0.00  0.00    +0.024 A 
ATOM     29  C   UNL     1      -9.132  -8.280   2.535  0.00  0.00    +0.022 A 
ATOM     30  C   UNL     1     -10.411  -7.902   2.163  0.00  0.00    +0.041 A 
ATOM     31  C   UNL     1     -10.685  -6.580   1.864  0.00  0.00    +0.022 A 
ATOM     32  C   UNL     1      -9.685  -5.631   1.942  0.00  0.00    +0.024 A 
ATOM     33 CL   UNL     1     -11.672  -9.091   2.070  0.00  0.00    -0.084 Cl
ENDBRANCH  24  27
ENDBRANCH  20  21
ENDBRANCH   2  20
TORSDOF 6
