REMARK  Name = ZINC35665972
REMARK  12 active torsions:
REMARK  status: ('A' for Active; 'I' for Inactive)
REMARK    1  A    between atoms: C_1  and  C_2
REMARK    2  A    between atoms: C_2  and  C_3
REMARK    3  A    between atoms: C_2  and  N_4
REMARK    4  A    between atoms: N_7  and  C_8
REMARK    5  A    between atoms: N_7  and  C_14
REMARK    6  A    between atoms: C_8  and  C_9
REMARK    7  A    between atoms: C_14  and  C_15
REMARK    8  A    between atoms: C_18  and  S_27
REMARK    9  A    between atoms: N_19  and  C_20
REMARK   10  A    between atoms: C_20  and  C_21
REMARK   11  A    between atoms: S_27  and  C_30
REMARK   12  A    between atoms: C_30  and  C_31
REMARK                            x       y       z     vdW  Elec       q    Type
REMARK                         _______ _______ _______ _____ _____    ______ ____
ROOT
ATOM      1  C   UNL     1      -3.298  -4.330   0.436  0.00  0.00    +0.057 A 
ATOM      2  C   UNL     1      -4.211  -4.869   1.266  0.00  0.00    +0.137 A 
ATOM      3  N   UNL     1      -3.652  -5.931   1.865  0.00  0.00    -0.220 NA
ATOM      4  C   UNL     1      -2.427  -6.072   1.437  0.00  0.00    +0.252 A 
ATOM      5  N   UNL     1      -2.168  -5.097   0.539  0.00  0.00    -0.309 N 
ENDROOT
BRANCH   4   6
ATOM      6  S   UNL     1      -1.300  -7.329   1.942  0.00  0.00    +0.034 S 
ATOM      7  O   UNL     1      -0.012  -6.764   1.739  0.00  0.00    -0.166 OA
ATOM      8  O   UNL     1      -1.732  -7.701   3.243  0.00  0.00    -0.166 OA
BRANCH   6   9
ATOM      9  C   UNL     1      -1.574  -8.694   0.778  0.00  0.00    +0.210 C 
BRANCH   9  10
ATOM     10  C   UNL     1      -0.652  -9.836   1.120  0.00  0.00    -0.026 A 
ATOM     11  C   UNL     1       0.606  -9.903   0.551  0.00  0.00    +0.008 A 
ATOM     12  C   UNL     1       1.452 -10.950   0.864  0.00  0.00    +0.038 A 
ATOM     13  C   UNL     1       1.038 -11.933   1.747  0.00  0.00    +0.123 A 
ATOM     14  C   UNL     1      -0.222 -11.866   2.316  0.00  0.00    +0.038 A 
ATOM     15  C   UNL     1      -1.064 -10.815   2.006  0.00  0.00    +0.008 A 
ATOM     16  F   UNL     1       1.864 -12.958   2.053  0.00  0.00    -0.205 F 
ENDBRANCH   9  10
ENDBRANCH   6   9
ENDBRANCH   4   6
BRANCH   1  17
ATOM     17  C   UNL     1      -3.486  -3.121  -0.444  0.00  0.00    +0.164 C 
BRANCH  17  21
ATOM     18  N   UNL     1      -6.530  -3.460  -2.474  0.00  0.00    -0.297 N 
ATOM     19  C   UNL     1      -5.713  -3.250  -1.423  0.00  0.00    +0.303 C 
ATOM     20  O   UNL     1      -6.172  -2.874  -0.362  0.00  0.00    -0.253 OA
ATOM     21  N   UNL     1      -4.387  -3.456  -1.549  0.00  0.00    -0.273 N 
ATOM     22  H   UNL     1      -6.164  -3.759  -3.321  0.00  0.00    +0.150 HD
BRANCH  18  24
ATOM     23  C   UNL     1      -8.572  -2.928  -3.711  0.00  0.00    +0.027 C 
ATOM     24  C   UNL     1      -7.971  -3.235  -2.338  0.00  0.00    +0.068 C 
ATOM     25  C   UNL     1      -8.630  -4.490  -1.762  0.00  0.00    +0.027 C 
ENDBRANCH  18  24
BRANCH  21  26
ATOM     26  C   UNL     1      -3.847  -4.016  -2.791  0.00  0.00    +0.184 C 
BRANCH  26  27
ATOM     27  C   UNL     1      -3.453  -2.894  -3.717  0.00  0.00    +0.122 A 
ATOM     28  C   UNL     1      -2.244  -2.307  -3.772  0.00  0.00    +0.046 A 
ATOM     29  C   UNL     1      -2.317  -1.313  -4.774  0.00  0.00    +0.041 A 
ATOM     30  C   UNL     1      -3.566  -1.353  -5.273  0.00  0.00    +0.195 A 
ATOM     31  O   UNL     1      -4.248  -2.316  -4.633  0.00  0.00    -0.466 OA
ENDBRANCH  26  27
ENDBRANCH  21  26
ENDBRANCH  17  21
ENDBRANCH   1  17
BRANCH   5  32
ATOM     32  C   UNL     1      -0.911  -4.895  -0.187  0.00  0.00    +0.156 C 
BRANCH  32  33
ATOM     33  C   UNL     1      -0.063  -3.851   0.542  0.00  0.00    +0.138 C 
ATOM     34  C   UNL     1       1.244  -3.599  -0.239  0.00  0.00    +0.035 C 
ATOM     35  C   UNL     1       2.288  -3.458   0.901  0.00  0.00    +0.031 C 
ATOM     36  C   UNL     1       1.724  -4.457   1.943  0.00  0.00    +0.160 C 
ATOM     37  O   UNL     1       0.294  -4.337   1.842  0.00  0.00    -0.375 OA
ENDBRANCH  32  33
ENDBRANCH   5  32
TORSDOF 10
