REMARK  Name = ZINC34762513
REMARK  13 active torsions:
REMARK  status: ('A' for Active; 'I' for Inactive)
REMARK    1  A    between atoms: C_1  and  C_2
REMARK    2  A    between atoms: C_2  and  C_3
REMARK    3  A    between atoms: C_2  and  C_4
REMARK    4  A    between atoms: C_2  and  N_5
REMARK    5  A    between atoms: N_8  and  C_9
REMARK    6  A    between atoms: N_8  and  C_30
REMARK    7  A    between atoms: C_9  and  C_10
REMARK    8  A    between atoms: N_13  and  C_15
REMARK    9  A    between atoms: C_20  and  O_21
REMARK   10  A    between atoms: O_21  and  C_22
REMARK   11  A    between atoms: N_25  and  C_27
REMARK   12  A    between atoms: C_27  and  C_28
REMARK   13  A    between atoms: C_30  and  C_31
REMARK                            x       y       z     vdW  Elec       q    Type
REMARK                         _______ _______ _______ _____ _____    ______ ____
ROOT
ATOM      1  C   UNL     1       4.646  -1.238  -2.079  0.00  0.00    +0.082 A 
ATOM      2  C   UNL     1       5.126  -1.152  -0.776  0.00  0.00    -0.018 A 
ATOM      3  C   UNL     1       5.918  -2.234  -0.549  0.00  0.00    +0.045 A 
ATOM      4  N   UNL     1       5.933  -2.977  -1.667  0.00  0.00    -0.233 N 
ATOM      5  N   UNL     1       5.123  -2.335  -2.618  0.00  0.00    -0.169 NA
ATOM      6  C   UNL     1       6.623  -2.474   0.763  0.00  0.00    +0.037 C 
ATOM      7  C   UNL     1       6.595  -1.157   1.553  0.00  0.00    -0.072 C 
ATOM      8  N   UNL     1       5.226  -0.625   1.581  0.00  0.00    +0.385 N 
ATOM      9  C   UNL     1       4.862  -0.088   0.259  0.00  0.00    -0.039 C 
ATOM     10  H   UNL     1       4.585  -1.363   1.830  0.00  0.00    -0.081 HD
ENDROOT
BRANCH   4  11
ATOM     11  C   UNL     1       6.628  -4.181  -1.851  0.00  0.00    +0.107 A 
ATOM     12  C   UNL     1       6.545  -5.185  -0.898  0.00  0.00    +0.031 A 
ATOM     13  C   UNL     1       7.231  -6.371  -1.081  0.00  0.00    +0.002 A 
ATOM     14  C   UNL     1       8.001  -6.560  -2.214  0.00  0.00    +0.004 A 
ATOM     15  C   UNL     1       8.089  -5.564  -3.168  0.00  0.00    +0.048 A 
ATOM     16  C   UNL     1       7.400  -4.374  -2.994  0.00  0.00    +0.145 A 
BRANCH  16  17
ATOM     17  O   UNL     1       7.481  -3.396  -3.935  0.00  0.00    -0.493 OA
ATOM     18  C   UNL     1       8.291  -3.664  -5.082  0.00  0.00    +0.277 C 
ENDBRANCH  16  17
ENDBRANCH   4  11
BRANCH   1  19
ATOM     19  C   UNL     1       3.731  -0.247  -2.752  0.00  0.00    +0.166 C 
BRANCH  19  23
ATOM     20  N   UNL     1       5.393   1.391  -5.592  0.00  0.00    -0.294 N 
ATOM     21  C   UNL     1       4.748   0.472  -4.847  0.00  0.00    +0.303 C 
ATOM     22  O   UNL     1       4.363  -0.563  -5.357  0.00  0.00    -0.253 OA
ATOM     23  N   UNL     1       4.529   0.699  -3.536  0.00  0.00    -0.279 N 
ATOM     24  H   UNL     1       5.700   2.216  -5.185  0.00  0.00    +0.151 HD
BRANCH  20  26
ATOM     25  C   UNL     1       4.291   0.961  -7.732  0.00  0.00    +0.031 C 
ATOM     26  C   UNL     1       5.630   1.144  -7.016  0.00  0.00    +0.028 C 
ATOM     27  C   UNL     1       6.473  -0.122  -7.180  0.00  0.00    +0.031 C 
ATOM     28  C   UNL     1       6.375   2.335  -7.623  0.00  0.00    +0.031 C 
ENDBRANCH  20  26
BRANCH  23  29
ATOM     29  C   UNL     1       5.089   1.892  -2.896  0.00  0.00    +0.113 C 
BRANCH  29  30
ATOM     30  C   UNL     1       4.089   3.044  -3.001  0.00  0.00    +0.006 C 
ATOM     31  C   UNL     1       4.507   4.271  -3.814  0.00  0.00    +0.005 C 
ATOM     32  C   UNL     1       4.439   4.351  -2.287  0.00  0.00    +0.005 C 
ENDBRANCH  29  30
ENDBRANCH  23  29
ENDBRANCH  19  23
ENDBRANCH   1  19
BRANCH   8  33
ATOM     33  C   UNL     1       5.141   0.447   2.582  0.00  0.00    -0.051 C 
BRANCH  33  34
ATOM     34  C   UNL     1       5.374  -0.128   3.955  0.00  0.00    -0.053 C 
ATOM     35  C   UNL     1       6.312   0.369   4.723  0.00  0.00    +0.002 C 
ENDBRANCH  33  34
ENDBRANCH   8  33
TORSDOF 9
