REMARK  Name = ZINC09245847
REMARK  7 active torsions:
REMARK  status: ('A' for Active; 'I' for Inactive)
REMARK    1  A    between atoms: C_4  and  C_7
REMARK    2  A    between atoms: C_7  and  C_9
REMARK    3  A    between atoms: C_7  and  S_26
REMARK    4  A    between atoms: N_11  and  C_12
REMARK    5  A    between atoms: C_16  and  S_18
REMARK    6  A    between atoms: S_18  and  N_21
REMARK    7  A    between atoms: S_26  and  C_27
REMARK                            x       y       z     vdW  Elec       q    Type
REMARK                         _______ _______ _______ _____ _____    ______ ____
ROOT
ATOM      1  C   UNL     1       5.121  -0.847  -4.157  0.00  0.00    +0.235 C 
ATOM      2  O   UNL     1       4.905  -0.143  -5.121  0.00  0.00    -0.274 OA
ATOM      3  N   UNL     1       4.589  -0.531  -2.960  0.00  0.00    -0.284 N 
ATOM      4  H   UNL     1       4.815  -1.055  -2.175  0.00  0.00    +0.155 HD
ENDROOT
BRANCH   3   5
ATOM      5  C   UNL     1       3.710   0.552  -2.848  0.00  0.00    +0.035 A 
ATOM      6  C   UNL     1       3.898   1.684  -3.630  0.00  0.00    +0.023 A 
ATOM      7  C   UNL     1       3.030   2.752  -3.518  0.00  0.00    +0.004 A 
ATOM      8  C   UNL     1       1.973   2.695  -2.627  0.00  0.00    +0.029 A 
ATOM      9  C   UNL     1       1.783   1.569  -1.847  0.00  0.00    +0.110 A 
ATOM     10  C   UNL     1       2.651   0.500  -1.951  0.00  0.00    +0.052 A 
BRANCH   9  11
ATOM     11  S   UNL     1       0.436   1.502  -0.713  0.00  0.00    +0.073 S 
ATOM     12  O   UNL     1       0.094   2.847  -0.408  0.00  0.00    -0.150 OA
ATOM     13  O   UNL     1       0.796   0.561   0.290  0.00  0.00    -0.150 OA
BRANCH  11  14
ATOM     14  N   UNL     1      -0.855   0.857  -1.524  0.00  0.00    -0.205 N 
ATOM     15  C   UNL     1      -0.806  -0.437  -1.973  0.00  0.00    +0.088 C 
ATOM     16  C   UNL     1      -0.037  -2.553  -2.394  0.00  0.00    +0.114 C 
ATOM     17  C   UNL     1      -1.241  -2.367  -3.348  0.00  0.00    +0.028 C 
ATOM     18  C   UNL     1      -1.926  -1.129  -2.718  0.00  0.00    +0.072 C 
ATOM     19  H   UNL     1      -1.645   1.396  -1.686  0.00  0.00    +0.175 HD
ATOM     20  N   UNL     1       0.213  -1.221  -1.802  0.00  0.00    -0.375 N 
ATOM     21  H   UNL     1       1.078  -0.953  -1.319  0.00  0.00    +0.161 HD
ENDBRANCH  11  14
ENDBRANCH   9  11
ENDBRANCH   3   5
BRANCH   1  22
ATOM     22  C   UNL     1       5.984  -2.075  -4.298  0.00  0.00    +0.167 C 
BRANCH  22  26
ATOM     23  C   UNL     1       3.504  -5.490  -4.958  0.00  0.00    +0.000 A 
ATOM     24  C   UNL     1       4.336  -5.442  -3.855  0.00  0.00    +0.000 A 
ATOM     25  C   UNL     1       5.138  -4.337  -3.641  0.00  0.00    +0.005 A 
ATOM     26  C   UNL     1       5.109  -3.279  -4.531  0.00  0.00    -0.025 A 
ATOM     27  C   UNL     1       4.273  -3.325  -5.631  0.00  0.00    +0.005 A 
ATOM     28  C   UNL     1       3.474  -4.432  -5.847  0.00  0.00    +0.000 A 
ENDBRANCH  22  26
BRANCH  22  29
ATOM     29  S   UNL     1       7.109  -1.864  -5.705  0.00  0.00    -0.108 S 
BRANCH  29  30
ATOM     30  C   UNL     1       8.136  -3.295  -5.647  0.00  0.00    +0.009 A 
ATOM     31  C   UNL     1       7.951  -4.245  -4.650  0.00  0.00    +0.015 A 
ATOM     32  C   UNL     1       8.755  -5.367  -4.611  0.00  0.00    +0.001 A 
ATOM     33  C   UNL     1       9.749  -5.541  -5.556  0.00  0.00    +0.000 A 
ATOM     34  C   UNL     1       9.939  -4.595  -6.547  0.00  0.00    +0.001 A 
ATOM     35  C   UNL     1       9.137  -3.473  -6.595  0.00  0.00    +0.015 A 
ENDBRANCH  29  30
ENDBRANCH  22  29
ENDBRANCH   1  22
TORSDOF 7
