REMARK  Name = ZINC45356171
REMARK  9 active torsions:
REMARK  status: ('A' for Active; 'I' for Inactive)
REMARK    1  A    between atoms: C_1  and  C_2
REMARK    2  A    between atoms: C_2  and  C_4
REMARK    3  A    between atoms: C_2  and  N_14
REMARK    4  A    between atoms: C_7  and  S_10
REMARK    5  A    between atoms: S_10  and  N_13
REMARK    6  A    between atoms: N_14  and  C_15
REMARK    7  A    between atoms: N_14  and  C_16
REMARK    8  A    between atoms: C_16  and  C_17
REMARK    9  A    between atoms: N_19  and  C_20
REMARK                            x       y       z     vdW  Elec       q    Type
REMARK                         _______ _______ _______ _____ _____    ______ ____
ROOT
ATOM      1  N   UNL     1       0.698  -0.463  -1.206  0.00  0.00    +0.388 N 
ATOM      2  C   UNL     1       0.709  -1.931  -1.207  0.00  0.00    -0.095 C 
ATOM      3  H   UNL     1       1.646  -0.119  -1.217  0.00  0.00    -0.081 HD
ENDROOT
BRANCH   1   5
ATOM      4  C   UNL     1       0.004   1.551   0.004  0.00  0.00    -0.008 C 
ATOM      5  C   UNL     1       0.016   0.021   0.003  0.00  0.00    -0.041 C 
BRANCH   5   6
ATOM      6  C   UNL     1       0.746  -0.476   1.224  0.00  0.00    -0.061 A 
ATOM      7  C   UNL     1       2.128  -0.495   1.244  0.00  0.00    +0.004 A 
ATOM      8  C   UNL     1       2.797  -0.951   2.364  0.00  0.00    +0.029 A 
ATOM      9  C   UNL     1       2.084  -1.389   3.464  0.00  0.00    +0.105 A 
ATOM     10  C   UNL     1       0.702  -1.370   3.445  0.00  0.00    +0.029 A 
ATOM     11  C   UNL     1       0.033  -0.909   2.326  0.00  0.00    +0.004 A 
BRANCH   9  12
ATOM     12  S   UNL     1       2.937  -1.972   4.892  0.00  0.00    +0.056 S 
ATOM     13  O   UNL     1       2.040  -2.834   5.577  0.00  0.00    -0.153 OA
ATOM     14  O   UNL     1       4.219  -2.400   4.452  0.00  0.00    -0.153 OA
BRANCH  12  15
ATOM     15  N   UNL     1       3.187  -0.666   5.880  0.00  0.00    -0.204 NA
ATOM     16  H   UNL     1       3.227  -0.787   6.841  0.00  0.00    +0.144 HD
ATOM     17  H   UNL     1       3.293   0.218   5.497  0.00  0.00    +0.144 HD
ENDBRANCH  12  15
ENDBRANCH   9  12
ENDBRANCH   5   6
ENDBRANCH   1   5
BRANCH   1  18
ATOM     18  C   UNL     1      -0.013   0.022  -2.396  0.00  0.00    +0.019 C 
BRANCH  18  19
ATOM     19  C   UNL     1       0.753  -0.369  -3.633  0.00  0.00    +0.201 C 
ATOM     20  O   UNL     1       1.789  -0.992  -3.533  0.00  0.00    -0.278 OA
ATOM     21  N   UNL     1       0.286  -0.029  -4.851  0.00  0.00    -0.286 N 
ATOM     22  H   UNL     1      -0.581   0.398  -4.936  0.00  0.00    +0.155 HD
BRANCH  21  23
ATOM     23  C   UNL     1       1.053  -0.290  -5.993  0.00  0.00    +0.053 A 
ATOM     24  C   UNL     1       2.433  -0.403  -5.893  0.00  0.00    +0.046 A 
ATOM     25  C   UNL     1       3.188  -0.661  -7.021  0.00  0.00    +0.061 A 
ATOM     26  C   UNL     1       2.569  -0.807  -8.252  0.00  0.00    +0.061 A 
ATOM     27  C   UNL     1       1.194  -0.695  -8.354  0.00  0.00    +0.043 A 
ATOM     28  C   UNL     1       0.434  -0.442  -7.227  0.00  0.00    +0.064 A 
ATOM     29 CL   UNL     1      -1.292  -0.309  -7.355  0.00  0.00    -0.082 Cl
ATOM     30 CL   UNL     1       3.520  -1.130  -9.668  0.00  0.00    -0.082 Cl
ATOM     31 CL   UNL     1       4.914  -0.802  -6.897  0.00  0.00    -0.082 Cl
ENDBRANCH  21  23
ENDBRANCH  18  19
ENDBRANCH   1  18
TORSDOF 7
