REMARK  Name = ZINC39453779
REMARK  5 active torsions:
REMARK  status: ('A' for Active; 'I' for Inactive)
REMARK    1  A    between atoms: C_1  and  S_2
REMARK    2  A    between atoms: S_2  and  C_3
REMARK    3  A    between atoms: N_15  and  S_18
REMARK    4  A    between atoms: S_18  and  O_21
REMARK    5  A    between atoms: O_21  and  C_22
REMARK                            x       y       z     vdW  Elec       q    Type
REMARK                         _______ _______ _______ _____ _____    ______ ____
ROOT
ATOM      1  C   UNL     1       0.699  -0.434   1.582  0.00  0.00    +0.017 A 
ATOM      2  C   UNL     1       1.178   0.555   2.421  0.00  0.00    +0.015 A 
ATOM      3  C   UNL     1       1.931   0.243   3.545  0.00  0.00    +0.003 A 
ATOM      4  C   UNL     1       2.234  -1.043   3.876  0.00  0.00    +0.028 A 
ATOM      5  C   UNL     1       1.781  -2.100   3.068  0.00  0.00    +0.073 A 
ATOM      6  C   UNL     1       0.979  -1.785   1.883  0.00  0.00    +0.015 A 
ATOM      7  C   UNL     1       0.517  -2.832   1.077  0.00  0.00    +0.026 A 
ATOM      8  C   UNL     1       0.844  -4.129   1.451  0.00  0.00    +0.069 A 
ATOM      9  C   UNL     1       1.622  -4.365   2.615  0.00  0.00    +0.100 A 
ATOM     10  N   UNL     1       2.062  -3.370   3.364  0.00  0.00    -0.245 NA
ATOM     11  C   UNL     1       1.942  -5.761   2.961  0.00  0.00    +0.085 A 
ATOM     12  C   UNL     1       1.483  -6.790   2.164  0.00  0.00    +0.137 A 
ATOM     13  N   UNL     1       0.722  -6.530   1.029  0.00  0.00    -0.141 N 
ATOM     14  C   UNL     1       0.395  -5.281   0.654  0.00  0.00    +0.283 A 
ATOM     15  O   UNL     1      -0.274  -5.103  -0.347  0.00  0.00    -0.265 OA
ATOM     16  C   UNL     1       1.783  -8.129   2.502  0.00  0.00    +0.187 C 
ATOM     17  O   UNL     1       1.420  -9.030   1.772  0.00  0.00    -0.290 OA
ATOM     18  C   UNL     1       2.550  -8.450   3.759  0.00  0.00    +0.138 C 
ATOM     19  C   UNL     1       3.489  -7.286   4.092  0.00  0.00    +0.259 C 
ATOM     20  N   UNL     1       2.704  -6.042   4.079  0.00  0.00    -0.311 N 
ATOM     21  F   UNL     1       4.507  -7.212   3.135  0.00  0.00    -0.224 F 
ATOM     22  H   UNL     1       2.721  -5.435   4.835  0.00  0.00    +0.149 HD
ENDROOT
BRANCH  13  23
ATOM     23  S   UNL     1       0.202  -7.803   0.106  0.00  0.00    +0.224 S 
ATOM     24  O   UNL     1      -0.688  -7.266  -0.862  0.00  0.00    -0.113 OA
ATOM     25  O   UNL     1       1.360  -8.546  -0.251  0.00  0.00    -0.113 OA
BRANCH  23  26
ATOM     26  O   UNL     1      -0.630  -8.703   1.010  0.00  0.00    -0.329 OA
BRANCH  26  27
ATOM     27  C   UNL     1      -1.866  -8.214   1.290  0.00  0.00    +0.158 A 
ATOM     28  C   UNL     1      -2.057  -7.397   2.395  0.00  0.00    +0.048 A 
ATOM     29  C   UNL     1      -3.314  -6.901   2.678  0.00  0.00    +0.004 A 
ATOM     30  C   UNL     1      -4.383  -7.218   1.860  0.00  0.00    +0.000 A 
ATOM     31  C   UNL     1      -4.197  -8.032   0.758  0.00  0.00    +0.004 A 
ATOM     32  C   UNL     1      -2.939  -8.525   0.468  0.00  0.00    +0.048 A 
ENDBRANCH  26  27
ENDBRANCH  23  26
ENDBRANCH  13  23
BRANCH   1  34
ATOM     33  C   UNL     1      -0.338   1.797   0.208  0.00  0.00    +0.090 C 
ATOM     34  S   UNL     1      -0.255  -0.014   0.162  0.00  0.00    -0.128 S 
ENDBRANCH   1  34
TORSDOF 4
