REMARK  Name = ZINC14159772
REMARK  6 active torsions:
REMARK  status: ('A' for Active; 'I' for Inactive)
REMARK    1  A    between atoms: C_1  and  C_2
REMARK    2  A    between atoms: C_4  and  C_34
REMARK    3  A    between atoms: C_6  and  N_8
REMARK    4  A    between atoms: N_10  and  C_11
REMARK    5  A    between atoms: C_11  and  N_13
REMARK    6  A    between atoms: N_13  and  C_14
REMARK                            x       y       z     vdW  Elec       q    Type
REMARK                         _______ _______ _______ _____ _____    ______ ____
ROOT
ATOM      1  N   UNL     1      -0.155  -2.636   2.832  0.00  0.00    -0.181 NA
ATOM      2  C   UNL     1       0.131  -1.988   3.940  0.00  0.00    +0.192 C 
ATOM      3  N   UNL     1       0.623  -2.671   5.027  0.00  0.00    -0.269 N 
ATOM      4  N   UNL     1      -0.061  -0.635   4.011  0.00  0.00    -0.300 N 
ATOM      5  C   UNL     1      -1.365  -0.085   4.407  0.00  0.00    +0.126 C 
ATOM      6  C   UNL     1      -1.158   0.856   5.601  0.00  0.00    +0.125 C 
ATOM      7  N   UNL     1      -0.065   1.784   5.283  0.00  0.00    -0.314 N 
ATOM      8  C   UNL     1       1.239   1.234   4.887  0.00  0.00    +0.125 C 
ATOM      9  C   UNL     1       1.034   0.294   3.699  0.00  0.00    +0.126 C 
ATOM     10  C   UNL     1      -0.260   3.159   5.356  0.00  0.00    +0.099 A 
ATOM     11  C   UNL     1      -1.452   3.660   5.870  0.00  0.00    +0.042 A 
ATOM     12  C   UNL     1      -1.633   5.029   5.936  0.00  0.00    +0.005 A 
ATOM     13  C   UNL     1      -0.612   5.855   5.484  0.00  0.00    +0.018 A 
ATOM     14  C   UNL     1       0.544   5.290   4.985  0.00  0.00    +0.084 A 
ATOM     15  N   UNL     1       0.692   3.979   4.939  0.00  0.00    -0.350 N 
ATOM     16  H   UNL     1       1.516   3.608   4.588  0.00  0.00    +0.166 HD
ATOM     17  H   UNL     1       0.903  -2.185   5.819  0.00  0.00    +0.156 HD
ENDROOT
BRANCH   1  23
ATOM     18  C   UNL     1      -1.369   1.545   0.867  0.00  0.00    +0.066 C 
ATOM     19  C   UNL     1      -1.239   0.046   0.790  0.00  0.00    +0.044 A 
ATOM     20  C   UNL     1      -1.617  -0.633  -0.359  0.00  0.00    +0.046 A 
ATOM     21  C   UNL     1      -1.483  -2.013  -0.391  0.00  0.00    +0.044 A 
ATOM     22  N   UNL     1      -1.001  -2.639   0.668  0.00  0.00    -0.216 NA
ATOM     23  C   UNL     1      -0.647  -1.961   1.757  0.00  0.00    +0.253 A 
ATOM     24  N   UNL     1      -0.759  -0.636   1.815  0.00  0.00    -0.216 NA
ATOM     25  C   UNL     1      -1.881  -2.788  -1.619  0.00  0.00    +0.066 C 
ENDBRANCH   1  23
BRANCH   3  26
ATOM     26  C   UNL     1       0.716  -4.015   4.994  0.00  0.00    +0.141 C 
ATOM     27  S   UNL     1       0.221  -4.872   3.597  0.00  0.00    -0.018 S 
BRANCH  26  28
ATOM     28  N   UNL     1       1.198  -4.684   6.060  0.00  0.00    -0.297 N 
ATOM     29  H   UNL     1       1.417  -4.205   6.874  0.00  0.00    +0.154 HD
BRANCH  28  30
ATOM     30  C   UNL     1       1.383  -6.070   5.991  0.00  0.00    +0.034 A 
ATOM     31  C   UNL     1       2.572  -6.635   6.432  0.00  0.00    +0.026 A 
ATOM     32  C   UNL     1       2.753  -8.003   6.364  0.00  0.00    +0.041 A 
ATOM     33  C   UNL     1       1.749  -8.811   5.857  0.00  0.00    +0.142 A 
ATOM     34  C   UNL     1       0.561  -8.249   5.417  0.00  0.00    +0.078 A 
ATOM     35  C   UNL     1       0.375  -6.881   5.489  0.00  0.00    +0.046 A 
ATOM     36 CL   UNL     1      -0.696  -9.264   4.782  0.00  0.00    -0.081 Cl
ATOM     37  F   UNL     1       1.928 -10.148   5.791  0.00  0.00    -0.204 F 
ENDBRANCH  28  30
ENDBRANCH  26  28
ENDBRANCH   3  26
TORSDOF 4
