REMARK  Name = ZINC16075539
REMARK  6 active torsions:
REMARK  status: ('A' for Active; 'I' for Inactive)
REMARK    1  A    between atoms: C_1  and  C_2
REMARK    2  A    between atoms: N_5  and  C_11
REMARK    3  A    between atoms: C_7  and  C_10
REMARK    4  A    between atoms: C_11  and  N_12
REMARK    5  A    between atoms: C_15  and  C_19
REMARK    6  A    between atoms: C_15  and  C_20
REMARK                            x       y       z     vdW  Elec       q    Type
REMARK                         _______ _______ _______ _____ _____    ______ ____
ROOT
ATOM      1  N   UNL     1       3.977   2.180   2.613  0.00  0.00    -0.210 N 
ATOM      2  C   UNL     1       4.557   1.174   3.297  0.00  0.00    +0.252 C 
ATOM      3  O   UNL     1       4.777   0.050   2.900  0.00  0.00    -0.272 OA
ATOM      4  C   UNL     1       4.879   1.741   4.666  0.00  0.00    +0.135 C 
ATOM      5  N   UNL     1       4.397   3.131   4.587  0.00  0.00    -0.281 N 
ATOM      6  C   UNL     1       3.893   3.294   3.350  0.00  0.00    +0.311 C 
ATOM      7  O   UNL     1       3.411   4.335   2.949  0.00  0.00    -0.252 OA
ATOM      8  C   UNL     1       6.387   1.707   4.921  0.00  0.00    +0.047 C 
ATOM      9  H   UNL     1       4.497   3.798   5.456  0.00  0.00    +0.152 HD
ENDROOT
BRANCH   4  10
ATOM     10  C   UNL     1       4.143   0.982   5.740  0.00  0.00    -0.015 A 
ATOM     11  C   UNL     1       3.840  -0.364   5.544  0.00  0.00    +0.007 A 
ATOM     12  C   UNL     1       3.182  -1.080   6.496  0.00  0.00    +0.009 A 
ATOM     13  C   UNL     1       2.790  -0.453   7.691  0.00  0.00    -0.018 A 
ATOM     14  C   UNL     1       2.104  -1.157   8.695  0.00  0.00    +0.008 A 
ATOM     15  C   UNL     1       1.741  -0.517   9.840  0.00  0.00    +0.001 A 
ATOM     16  C   UNL     1       2.040   0.831  10.033  0.00  0.00    +0.001 A 
ATOM     17  C   UNL     1       2.704   1.545   9.084  0.00  0.00    +0.008 A 
ATOM     18  C   UNL     1       3.094   0.917   7.888  0.00  0.00    -0.018 A 
ATOM     19  C   UNL     1       3.780   1.622   6.885  0.00  0.00    +0.014 A 
ENDBRANCH   4  10
BRANCH   1  20
ATOM     20  C   UNL     1       3.503   2.070   1.232  0.00  0.00    +0.205 C 
BRANCH  20  24
ATOM     21  C   UNL     1       0.002  -0.004   0.002  0.00  0.00    +0.039 C 
ATOM     22  C   UNL     1      -0.019   1.526   0.010  0.00  0.00    +0.130 C 
ATOM     23  C   UNL     1       1.417   2.057  -0.000  0.00  0.00    +0.117 C 
ATOM     24  N   UNL     1       2.102   1.629   1.228  0.00  0.00    -0.282 NA
ATOM     25  C   UNL     1       1.392   2.120   2.418  0.00  0.00    +0.117 C 
ATOM     26  C   UNL     1      -0.044   1.589   2.405  0.00  0.00    +0.130 C 
ATOM     27  O   UNL     1      -0.683   1.988   1.189  0.00  0.00    -0.371 OA
ATOM     28  C   UNL     1      -0.812   2.161   3.598  0.00  0.00    +0.039 C 
ENDBRANCH  20  24
ENDBRANCH   1  20
TORSDOF 3
