REMARK  Name = ZINC06226319
REMARK  11 active torsions:
REMARK  status: ('A' for Active; 'I' for Inactive)
REMARK    1  A    between atoms: C_1  and  C_2
REMARK    2  A    between atoms: C_2  and  O_3
REMARK    3  A    between atoms: O_3  and  C_4
REMARK    4  A    between atoms: C_4  and  C_6
REMARK    5  A    between atoms: C_7  and  C_35
REMARK    6  A    between atoms: C_14  and  C_15
REMARK    7  A    between atoms: C_20  and  O_21
REMARK    8  A    between atoms: C_24  and  C_26
REMARK    9  A    between atoms: C_29  and  N_32
REMARK   10  A    between atoms: N_32  and  C_33
REMARK   11  A    between atoms: N_32  and  C_34
REMARK                            x       y       z     vdW  Elec       q    Type
REMARK                         _______ _______ _______ _____ _____    ______ ____
ROOT
ATOM      1  C   UNL     1       2.480   8.427  -0.413  0.00  0.00    +0.085 C 
ATOM      2  C   UNL     1       3.780   8.309  -0.818  0.00  0.00    +0.053 C 
ATOM      3  N   UNL     1       4.387   7.129  -0.803  0.00  0.00    -0.228 NA
ATOM      4  C   UNL     1       3.832   6.008  -0.416  0.00  0.00    +0.178 A 
ATOM      5  N   UNL     1       2.534   5.905   0.029  0.00  0.00    -0.275 N 
ATOM      6  C   UNL     1       2.074   4.701   0.393  0.00  0.00    +0.268 A 
ATOM      7  O   UNL     1       0.931   4.560   0.788  0.00  0.00    -0.266 OA
ATOM      8  C   UNL     1       2.992   3.556   0.306  0.00  0.00    +0.081 A 
ATOM      9  C   UNL     1       2.775   2.251   0.614  0.00  0.00    +0.032 C 
ATOM     10  S   UNL     1       4.466   4.345  -0.322  0.00  0.00    -0.046 S 
ATOM     11  C   UNL     1       1.763   7.179   0.050  0.00  0.00    +0.162 C 
ATOM     12  C   UNL     1       4.530   9.529  -1.286  0.00  0.00    +0.066 C 
ENDROOT
BRANCH   9  13
ATOM     13  C   UNL     1       1.533   1.852   1.285  0.00  0.00    +0.019 A 
ATOM     14  C   UNL     1       1.033   2.609   2.351  0.00  0.00    +0.031 A 
ATOM     15  C   UNL     1      -0.135   2.227   2.976  0.00  0.00    +0.042 A 
ATOM     16  C   UNL     1      -0.817   1.096   2.554  0.00  0.00    +0.023 A 
ATOM     17  C   UNL     1      -0.335   0.340   1.503  0.00  0.00    +0.047 A 
ATOM     18  C   UNL     1       0.837   0.707   0.861  0.00  0.00    +0.124 A 
ATOM     19 CL   UNL     1      -0.758   3.170   4.294  0.00  0.00    -0.084 Cl
BRANCH  18  20
ATOM     20  O   UNL     1       1.311  -0.036  -0.171  0.00  0.00    -0.506 OA
ATOM     21  H   UNL     1       0.984   0.241  -1.038  0.00  0.00    +0.292 HD
ENDBRANCH  18  20
ENDBRANCH   9  13
BRANCH  11  22
ATOM     22  C   UNL     1       1.292   7.412   1.462  0.00  0.00    -0.020 A 
ATOM     23  C   UNL     1       2.128   7.123   2.525  0.00  0.00    +0.008 A 
ATOM     24  C   UNL     1       1.701   7.341   3.820  0.00  0.00    +0.023 A 
ATOM     25  C   UNL     1       0.426   7.840   4.055  0.00  0.00    +0.029 A 
ATOM     26  C   UNL     1      -0.413   8.124   2.985  0.00  0.00    +0.023 A 
ATOM     27  C   UNL     1       0.022   7.910   1.692  0.00  0.00    +0.008 A 
BRANCH  25  28
ATOM     28  N   UNL     1      -0.011   8.056   5.364  0.00  0.00    -0.336 N 
ATOM     29  C   UNL     1      -1.397   8.457   5.617  0.00  0.00    +0.129 C 
ATOM     30  C   UNL     1       0.916   7.880   6.484  0.00  0.00    +0.129 C 
ENDBRANCH  25  28
ENDBRANCH  11  22
BRANCH   1  31
ATOM     31  C   UNL     1       1.829   9.671  -0.426  0.00  0.00    +0.339 C 
ATOM     32  O   UNL     1       2.453  10.682  -0.694  0.00  0.00    -0.245 OA
BRANCH  31  33
ATOM     33  O   UNL     1       0.511   9.747  -0.141  0.00  0.00    -0.462 OA
BRANCH  33  35
ATOM     34  C   UNL     1      -1.572  10.931   0.174  0.00  0.00    +0.048 C 
ATOM     35  C   UNL     1      -0.086  11.045  -0.173  0.00  0.00    +0.229 C 
ENDBRANCH  33  35
ENDBRANCH  31  33
ENDBRANCH   1  31
TORSDOF 7
