REMARK  Name = ZINC04067753
REMARK  13 active torsions:
REMARK  status: ('A' for Active; 'I' for Inactive)
REMARK    1  A    between atoms: C_1  and  C_2
REMARK    2  A    between atoms: C_2  and  C_3
REMARK    3  A    between atoms: C_3  and  O_4
REMARK    4  A    between atoms: O_4  and  C_5
REMARK    5  A    between atoms: C_10  and  C_11
REMARK    6  A    between atoms: C_16  and  C_21
REMARK    7  A    between atoms: C_29  and  C_38
REMARK    8  A    between atoms: C_30  and  C_31
REMARK    9  A    between atoms: C_31  and  O_33
REMARK   10  A    between atoms: O_33  and  C_34
REMARK   11  A    between atoms: C_34  and  C_35
REMARK   12  A    between atoms: C_35  and  C_36
REMARK   13  A    between atoms: C_35  and  C_37
REMARK                            x       y       z     vdW  Elec       q    Type
REMARK                         _______ _______ _______ _____ _____    ______ ____
ROOT
ATOM      1  C   UNL     1      -2.551   3.880   0.048  0.00  0.00    +0.096 C 
ATOM      2  C   UNL     1      -2.646   4.750  -1.180  0.00  0.00    +0.024 C 
ATOM      3  C   UNL     1      -2.429   6.080  -1.100  0.00  0.00    +0.016 C 
ATOM      4  C   UNL     1      -2.509   6.955  -2.327  0.00  0.00    +0.059 C 
ATOM      5  C   UNL     1      -3.526   6.371  -3.309  0.00  0.00    +0.032 C 
ATOM      6  C   UNL     1      -3.092   4.946  -3.668  0.00  0.00    +0.088 C 
ATOM      7  C   UNL     1      -2.966   4.139  -2.405  0.00  0.00    +0.162 C 
ATOM      8  O   UNL     1      -3.146   2.938  -2.443  0.00  0.00    -0.292 OA
ATOM      9  N   UNL     1      -2.133   6.666   0.102  0.00  0.00    -0.321 N 
ATOM     10  C   UNL     1      -2.426   6.032   1.276  0.00  0.00    +0.016 C 
ATOM     11  C   UNL     1      -2.637   4.704   1.300  0.00  0.00    +0.065 C 
ATOM     12  C   UNL     1      -2.513   6.826   2.554  0.00  0.00    +0.061 C 
ATOM     13  H   UNL     1      -1.654   7.656   0.128  0.00  0.00    +0.152 HD
ENDROOT
BRANCH   5  14
ATOM     14  C   UNL     1      -3.570   7.216  -4.556  0.00  0.00    -0.043 A 
ATOM     15  C   UNL     1      -2.422   7.403  -5.304  0.00  0.00    +0.005 A 
ATOM     16  C   UNL     1      -2.463   8.174  -6.451  0.00  0.00    +0.020 A 
ATOM     17  C   UNL     1      -3.649   8.767  -6.843  0.00  0.00    +0.041 A 
ATOM     18  C   UNL     1      -4.796   8.585  -6.091  0.00  0.00    +0.020 A 
ATOM     19  C   UNL     1      -4.755   7.809  -4.948  0.00  0.00    +0.005 A 
ATOM     20 CL   UNL     1      -3.699   9.742  -8.279  0.00  0.00    -0.084 Cl
ENDBRANCH   5  14
BRANCH   1  26
ATOM     21  C   UNL     1      -1.223   1.754   0.017  0.00  0.00    +0.125 A 
ATOM     22  C   UNL     1      -0.013   1.076   0.008  0.00  0.00    +0.046 A 
ATOM     23  C   UNL     1       1.174   1.783   0.000  0.00  0.00    +0.004 A 
ATOM     24  C   UNL     1       1.156   3.166   0.008  0.00  0.00    +0.001 A 
ATOM     25  C   UNL     1      -0.049   3.844   0.023  0.00  0.00    +0.008 A 
ATOM     26  C   UNL     1      -1.239   3.141   0.031  0.00  0.00    +0.006 A 
BRANCH  21  27
ATOM     27  O   UNL     1      -2.392   1.060   0.019  0.00  0.00    -0.492 OA
BRANCH  27  28
ATOM     28  C   UNL     1      -2.300  -0.366   0.011  0.00  0.00    +0.229 C 
BRANCH  28  30
ATOM     29  C   UNL     1      -3.608  -2.495   0.005  0.00  0.00    +0.007 C 
ATOM     30  C   UNL     1      -3.706  -0.968   0.014  0.00  0.00    +0.038 C 
ENDBRANCH  28  30
ENDBRANCH  27  28
ENDBRANCH  21  27
ENDBRANCH   1  26
BRANCH  11  31
ATOM     31  C   UNL     1      -2.946   4.072   2.527  0.00  0.00    +0.338 C 
ATOM     32  O   UNL     1      -3.018   4.729   3.548  0.00  0.00    -0.245 OA
BRANCH  31  33
ATOM     33  O   UNL     1      -3.161   2.740   2.565  0.00  0.00    -0.461 OA
BRANCH  33  34
ATOM     34  C   UNL     1      -3.469   2.169   3.838  0.00  0.00    +0.235 C 
BRANCH  34  35
ATOM     35  C   UNL     1      -3.678   0.661   3.683  0.00  0.00    +0.020 C 
ATOM     36  C   UNL     1      -3.884   0.030   5.061  0.00  0.00    +0.010 C 
ATOM     37  C   UNL     1      -4.912   0.405   2.815  0.00  0.00    +0.010 C 
ENDBRANCH  34  35
ENDBRANCH  33  34
ENDBRANCH  31  33
ENDBRANCH  11  31
TORSDOF 9
