REMARK  Name = ZINC64198083
REMARK  4 active torsions:
REMARK  status: ('A' for Active; 'I' for Inactive)
REMARK    1  A    between atoms: C_1  and  C_2
REMARK    2  A    between atoms: C_5  and  C_8
REMARK    3  A    between atoms: C_8  and  C_10
REMARK    4  A    between atoms: C_33  and  C_38
REMARK                            x       y       z     vdW  Elec       q    Type
REMARK                         _______ _______ _______ _____ _____    ______ ____
ROOT
ATOM      1  C   UNL     1       0.075  -5.003   1.275  0.00  0.00    +0.099 C 
ATOM      2  C   UNL     1       1.515  -5.277   1.727  0.00  0.00    +0.070 C 
ATOM      3  C   UNL     1       1.817  -4.546   3.045  0.00  0.00    +0.021 C 
ATOM      4  C   UNL     1       2.368  -5.647   3.982  0.00  0.00    +0.017 C 
ATOM      5  C   UNL     1       1.669  -6.923   3.443  0.00  0.00    +0.086 C 
ATOM      6  N   UNL     1       1.647  -6.727   1.980  0.00  0.00    -0.281 NA
ATOM      7  C   UNL     1       0.514  -7.404   1.345  0.00  0.00    +0.145 C 
ATOM      8  C   UNL     1      -0.599  -6.373   1.171  0.00  0.00    +0.116 C 
ATOM      9  C   UNL     1      -1.652  -6.491   2.245  0.00  0.00    -0.008 A 
ATOM     10  C   UNL     1      -1.641  -6.303   3.608  0.00  0.00    +0.006 A 
ATOM     11  C   UNL     1      -2.792  -6.510   4.349  0.00  0.00    +0.000 A 
ATOM     12  C   UNL     1      -3.961  -6.884   3.714  0.00  0.00    +0.002 A 
ATOM     13  C   UNL     1      -3.987  -7.040   2.343  0.00  0.00    +0.023 A 
ATOM     14  C   UNL     1      -2.832  -6.831   1.592  0.00  0.00    +0.038 A 
ATOM     15  N   UNL     1      -2.622  -6.872   0.214  0.00  0.00    -0.284 N 
ATOM     16  C   UNL     1      -1.343  -6.592  -0.115  0.00  0.00    +0.231 C 
ATOM     17  O   UNL     1      -0.918  -6.571  -1.252  0.00  0.00    -0.274 OA
ATOM     18  C   UNL     1       0.954  -7.963   0.010  0.00  0.00    +0.004 A 
ATOM     19  C   UNL     1       1.552  -7.398  -1.093  0.00  0.00    +0.008 A 
ATOM     20  C   UNL     1       1.834  -8.176  -2.202  0.00  0.00    +0.001 A 
ATOM     21  C   UNL     1       1.524  -9.524  -2.193  0.00  0.00    +0.005 A 
ATOM     22  C   UNL     1       0.943 -10.097  -1.080  0.00  0.00    -0.029 A 
ATOM     23  C   UNL     1       0.659  -9.321   0.042  0.00  0.00    +0.042 A 
ATOM     24  N   UNL     1       0.122  -9.665   1.281  0.00  0.00    -0.283 N 
ATOM     25  C   UNL     1       0.042  -8.606   2.113  0.00  0.00    +0.244 C 
ATOM     26  O   UNL     1      -0.351  -8.653   3.261  0.00  0.00    -0.273 OA
ATOM     27  C   UNL     1       0.616 -11.569  -1.084  0.00  0.00    +0.045 C 
ATOM     28  H   UNL     1      -3.311  -7.079  -0.436  0.00  0.00    +0.155 HD
ATOM     29  H   UNL     1      -0.165 -10.558   1.527  0.00  0.00    +0.155 HD
ENDROOT
BRANCH   1  30
ATOM     30  C   UNL     1       0.058  -4.245  -0.021  0.00  0.00    +0.169 C 
ATOM     31  O   UNL     1       0.995  -4.332  -0.786  0.00  0.00    -0.292 OA
BRANCH  30  36
ATOM     32  C   UNL     1      -4.449  -0.937  -1.360  0.00  0.00    +0.044 C 
ATOM     33  C   UNL     1      -3.267  -1.804  -1.009  0.00  0.00    -0.050 A 
ATOM     34  C   UNL     1      -2.199  -1.899  -1.884  0.00  0.00    +0.004 A 
ATOM     35  C   UNL     1      -1.114  -2.691  -1.570  0.00  0.00    +0.011 A 
ATOM     36  C   UNL     1      -1.095  -3.398  -0.364  0.00  0.00    +0.018 A 
ATOM     37  C   UNL     1      -2.178  -3.296   0.515  0.00  0.00    +0.011 A 
ATOM     38  C   UNL     1      -3.253  -2.497   0.189  0.00  0.00    +0.004 A 
ENDBRANCH  30  36
ENDBRANCH   1  30
TORSDOF 2
