REMARK  Name = ZINC40066771
REMARK  11 active torsions:
REMARK  status: ('A' for Active; 'I' for Inactive)
REMARK    1  A    between atoms: C_1  and  C_2
REMARK    2  A    between atoms: C_2  and  C_3
REMARK    3  A    between atoms: C_3  and  N_4
REMARK    4  A    between atoms: C_5  and  N_29
REMARK    5  A    between atoms: C_6  and  C_14
REMARK    6  A    between atoms: C_7  and  C_13
REMARK    7  A    between atoms: C_8  and  C_11
REMARK    8  A    between atoms: N_18  and  C_22
REMARK    9  A    between atoms: C_22  and  C_23
REMARK   10  A    between atoms: N_29  and  C_30
REMARK   11  A    between atoms: C_30  and  C_31
REMARK                            x       y       z     vdW  Elec       q    Type
REMARK                         _______ _______ _______ _____ _____    ______ ____
ROOT
ATOM      1  N   UNL     1       0.708  -1.954   1.249  0.00  0.00    -0.295 N 
ATOM      2  C   UNL     1      -0.265  -2.615   1.926  0.00  0.00    +0.109 A 
ATOM      3  C   UNL     1      -0.316  -4.018   1.915  0.00  0.00    +0.019 A 
ATOM      4  C   UNL     1       0.653  -4.738   1.194  0.00  0.00    -0.017 A 
ATOM      5  C   UNL     1       1.640  -4.037   0.508  0.00  0.00    +0.120 A 
ATOM      6  C   UNL     1       1.643  -2.619   0.548  0.00  0.00    +0.270 A 
ATOM      7  O   UNL     1       2.502  -2.000  -0.055  0.00  0.00    -0.266 OA
ATOM      8  C   UNL     1       0.623  -6.245   1.165  0.00  0.00    +0.046 C 
ENDROOT
BRANCH   3   9
ATOM      9  C   UNL     1      -1.367  -4.726   2.647  0.00  0.00    +0.032 C 
ATOM     10  C   UNL     1      -2.676  -4.465   2.380  0.00  0.00    +0.077 C 
ATOM     11  C   UNL     1      -3.852  -4.998   2.990  0.00  0.00    +0.259 C 
ATOM     12  O   UNL     1      -3.776  -5.814   3.892  0.00  0.00    -0.269 OA
ATOM     13  N   UNL     1      -5.025  -4.580   2.548  0.00  0.00    -0.251 N 
ATOM     14  C   UNL     1      -5.109  -3.675   1.547  0.00  0.00    +0.121 C 
ATOM     15  S   UNL     1      -6.507  -3.002   0.825  0.00  0.00    -0.027 S 
ATOM     16  S   UNL     1      -3.391  -3.355   1.175  0.00  0.00    -0.061 S 
BRANCH  13  17
ATOM     17  C   UNL     1      -6.253  -5.106   3.150  0.00  0.00    +0.150 C 
BRANCH  17  18
ATOM     18  C   UNL     1      -6.657  -4.232   4.309  0.00  0.00    -0.030 A 
ATOM     19  C   UNL     1      -6.185  -4.506   5.579  0.00  0.00    +0.005 A 
ATOM     20  C   UNL     1      -6.556  -3.704   6.643  0.00  0.00    +0.000 A 
ATOM     21  C   UNL     1      -7.399  -2.628   6.436  0.00  0.00    +0.000 A 
ATOM     22  C   UNL     1      -7.871  -2.354   5.165  0.00  0.00    +0.000 A 
ATOM     23  C   UNL     1      -7.496  -3.153   4.102  0.00  0.00    +0.005 A 
ENDBRANCH  17  18
ENDBRANCH  13  17
ENDBRANCH   3   9
BRANCH   5  24
ATOM     24  C   UNL     1       2.642  -4.741  -0.235  0.00  0.00    +0.105 C 
ATOM     25  N   UNL     1       3.436  -5.300  -0.825  0.00  0.00    -0.191 NA
ENDBRANCH   5  24
BRANCH   2  26
ATOM     26  N   UNL     1      -1.202  -1.910   2.624  0.00  0.00    -0.326 N 
ATOM     27  H   UNL     1      -1.988  -1.567   2.170  0.00  0.00    +0.148 HD
BRANCH  26  28
ATOM     28  C   UNL     1      -1.022  -1.671   4.058  0.00  0.00    +0.138 C 
BRANCH  28  29
ATOM     29  C   UNL     1      -2.190  -0.879   4.586  0.00  0.00    -0.030 A 
ATOM     30  C   UNL     1      -2.149   0.502   4.580  0.00  0.00    +0.005 A 
ATOM     31  C   UNL     1      -3.221   1.228   5.065  0.00  0.00    +0.000 A 
ATOM     32  C   UNL     1      -4.334   0.572   5.556  0.00  0.00    +0.000 A 
ATOM     33  C   UNL     1      -4.376  -0.810   5.561  0.00  0.00    +0.000 A 
ATOM     34  C   UNL     1      -3.306  -1.536   5.072  0.00  0.00    +0.005 A 
ENDBRANCH  28  29
ENDBRANCH  26  28
ENDBRANCH   2  26
BRANCH   1  35
ATOM     35  C   UNL     1       0.738  -0.489   1.278  0.00  0.00    +0.126 C 
BRANCH  35  37
ATOM     36  C   UNL     1      -0.258   1.586   0.306  0.00  0.00    +0.005 C 
ATOM     37  C   UNL     1      -0.193   0.061   0.196  0.00  0.00    +0.018 C 
ENDBRANCH  35  37
ENDBRANCH   1  35
TORSDOF 9
