REMARK  Name = ZINC02437449
REMARK  8 active torsions:
REMARK  status: ('A' for Active; 'I' for Inactive)
REMARK    1  A    between atoms: C_1  and  C_2
REMARK    2  A    between atoms: C_2  and  C_3
REMARK    3  A    between atoms: C_2  and  C_4
REMARK    4  A    between atoms: C_2  and  C_5
REMARK    5  A    between atoms: N_7  and  C_8
REMARK    6  A    between atoms: C_8  and  C_23
REMARK    7  A    between atoms: N_11  and  C_15
REMARK    8  A    between atoms: C_12  and  O_14
REMARK                            x       y       z     vdW  Elec       q    Type
REMARK                         _______ _______ _______ _____ _____    ______ ____
ROOT
ATOM      1  C   UNL     1       1.422  -2.250  -2.750  0.00  0.00    +0.304 C 
ATOM      2  C   UNL     1       0.451  -1.813  -3.830  0.00  0.00    +0.283 C 
ATOM      3  O   UNL     1       0.197  -0.680  -4.180  0.00  0.00    -0.270 OA
ATOM      4  N   UNL     1      -0.070  -2.959  -4.317  0.00  0.00    -0.191 N 
ATOM      5  C   UNL     1       0.462  -4.047  -3.668  0.00  0.00    +0.292 C 
ATOM      6  N   UNL     1       1.323  -3.718  -2.759  0.00  0.00    -0.192 NA
ENDROOT
BRANCH   4   7
ATOM      7  C   UNL     1      -1.024  -3.030  -5.343  0.00  0.00    +0.047 A 
ATOM      8  C   UNL     1      -1.403  -4.264  -5.855  0.00  0.00    +0.027 A 
ATOM      9  C   UNL     1      -2.342  -4.332  -6.865  0.00  0.00    +0.041 A 
ATOM     10  C   UNL     1      -2.906  -3.171  -7.368  0.00  0.00    +0.142 A 
ATOM     11  C   UNL     1      -2.528  -1.939  -6.859  0.00  0.00    +0.078 A 
ATOM     12  C   UNL     1      -1.593  -1.868  -5.843  0.00  0.00    +0.047 A 
ATOM     13 CL   UNL     1      -3.235  -0.485  -7.492  0.00  0.00    -0.081 Cl
ATOM     14  F   UNL     1      -3.824  -3.241  -8.357  0.00  0.00    -0.204 F 
ENDBRANCH   4   7
BRANCH   1  17
ATOM     15  C   UNL     1       0.791  -0.394  -1.302  0.00  0.00    +0.221 C 
ATOM     16  O   UNL     1       1.008   0.363  -2.224  0.00  0.00    -0.275 OA
ATOM     17  N   UNL     1       1.017  -1.715  -1.448  0.00  0.00    -0.276 N 
ATOM     18  H   UNL     1       0.911  -2.312  -0.690  0.00  0.00    +0.152 HD
BRANCH  15  20
ATOM     19  C   UNL     1       0.103   1.659  -0.094  0.00  0.00    +0.020 C 
ATOM     20  C   UNL     1       0.270   0.141   0.006  0.00  0.00    +0.039 C 
ATOM     21  C   UNL     1       1.260  -0.190   1.124  0.00  0.00    +0.020 C 
ATOM     22  C   UNL     1      -1.084  -0.501   0.318  0.00  0.00    +0.020 C 
ENDBRANCH  15  20
ENDBRANCH   1  17
BRANCH   1  23
ATOM     23  C   UNL     1       2.845  -1.805  -3.092  0.00  0.00    +0.440 C 
ATOM     24  F   UNL     1       3.738  -2.337  -2.156  0.00  0.00    -0.166 F 
ATOM     25  F   UNL     1       3.182  -2.263  -4.371  0.00  0.00    -0.166 F 
ATOM     26  F   UNL     1       2.917  -0.408  -3.063  0.00  0.00    -0.166 F 
ENDBRANCH   1  23
BRANCH   5  27
ATOM     27  O   UNL     1       0.124  -5.324  -3.949  0.00  0.00    -0.481 OA
ATOM     28  H   UNL     1       0.583  -5.981  -3.409  0.00  0.00    +0.295 HD
ENDBRANCH   5  27
TORSDOF 5
