REMARK  Name = ZINC66163847
REMARK  8 active torsions:
REMARK  status: ('A' for Active; 'I' for Inactive)
REMARK    1  A    between atoms: C_1  and  C_2
REMARK    2  A    between atoms: C_4  and  O_24
REMARK    3  A    between atoms: C_7  and  N_8
REMARK    4  A    between atoms: N_11  and  C_12
REMARK    5  A    between atoms: C_12  and  C_13
REMARK    6  A    between atoms: C_16  and  C_18
REMARK    7  A    between atoms: C_21  and  C_23
REMARK    8  A    between atoms: O_24  and  C_25
REMARK                            x       y       z     vdW  Elec       q    Type
REMARK                         _______ _______ _______ _____ _____    ______ ____
ROOT
ATOM      1  N   UNL     1       0.025  -0.011   2.418  0.00  0.00    -0.269 N 
ATOM      2  C   UNL     1      -0.056  -0.689   3.580  0.00  0.00    +0.304 C 
ATOM      3  O   UNL     1      -0.040  -1.905   3.577  0.00  0.00    -0.252 OA
ATOM      4  N   UNL     1      -0.156  -0.019   4.745  0.00  0.00    -0.292 N 
ATOM      5  H   UNL     1       0.078   0.958   2.424  0.00  0.00    +0.156 HD
ATOM      6  H   UNL     1      -0.169   0.951   4.748  0.00  0.00    +0.151 HD
ENDROOT
BRANCH   1  13
ATOM      7  C   UNL     1      -1.267   1.182   0.182  0.00  0.00    +0.046 C 
ATOM      8  C   UNL     1      -0.586  -0.158   0.085  0.00  0.00    -0.026 A 
ATOM      9  C   UNL     1      -0.572  -0.841  -1.116  0.00  0.00    +0.050 A 
ATOM     10  C   UNL     1       0.055  -2.074  -1.206  0.00  0.00    +0.120 A 
ATOM     11  C   UNL     1       0.669  -2.624  -0.090  0.00  0.00    +0.047 A 
ATOM     12  C   UNL     1       0.655  -1.944   1.111  0.00  0.00    +0.027 A 
ATOM     13  C   UNL     1       0.034  -0.705   1.201  0.00  0.00    +0.038 A 
BRANCH  10  14
ATOM     14  O   UNL     1       0.068  -2.745  -2.388  0.00  0.00    -0.495 OA
ATOM     15  C   UNL     1       0.732  -4.011  -2.409  0.00  0.00    +0.277 C 
ENDBRANCH  10  14
ENDBRANCH   1  13
BRANCH   4  16
ATOM     16  C   UNL     1      -0.245  -0.756   6.008  0.00  0.00    +0.180 C 
BRANCH  16  17
ATOM     17  C   UNL     1      -0.347   0.219   7.153  0.00  0.00    +0.122 A 
ATOM     18  C   UNL     1      -1.488   0.709   7.669  0.00  0.00    +0.046 A 
ATOM     19  C   UNL     1      -1.121   1.582   8.719  0.00  0.00    +0.045 A 
ATOM     20  C   UNL     1       0.223   1.573   8.781  0.00  0.00    +0.109 A 
ATOM     21  O   UNL     1       0.686   0.741   7.834  0.00  0.00    -0.463 OA
BRANCH  20  22
ATOM     22  C   UNL     1       1.066   2.359   9.752  0.00  0.00    +0.058 C 
ATOM     23  C   UNL     1       2.564   2.055   9.794  0.00  0.00    +0.015 C 
ATOM     24  C   UNL     1       2.065   3.361   9.171  0.00  0.00    -0.003 C 
ATOM     25  C   UNL     1       2.305   4.654   9.953  0.00  0.00    +0.008 C 
ENDBRANCH  20  22
ENDBRANCH  16  17
ENDBRANCH   4  16
TORSDOF 5
