REMARK  Name = ZINC36202259
REMARK  11 active torsions:
REMARK  status: ('A' for Active; 'I' for Inactive)
REMARK    1  A    between atoms: C_1  and  C_2
REMARK    2  A    between atoms: C_2  and  C_3
REMARK    3  A    between atoms: C_3  and  N_4
REMARK    4  A    between atoms: N_4  and  C_5
REMARK    5  A    between atoms: N_4  and  C_13
REMARK    6  A    between atoms: C_5  and  C_6
REMARK    7  A    between atoms: C_13  and  C_14
REMARK    8  A    between atoms: C_17  and  C_19
REMARK    9  A    between atoms: C_19  and  C_20
REMARK   10  A    between atoms: C_19  and  C_27
REMARK   11  A    between atoms: C_19  and  O_34
REMARK                            x       y       z     vdW  Elec       q    Type
REMARK                         _______ _______ _______ _____ _____    ______ ____
ROOT
ATOM      1  C   UNL     1      -3.460  -2.696  -2.967  0.00  0.00    +0.089 A 
ATOM      2  C   UNL     1      -3.603  -2.942  -4.282  0.00  0.00    +0.043 A 
ATOM      3  C   UNL     1      -4.207  -1.797  -4.850  0.00  0.00    +0.048 A 
ATOM      4  C   UNL     1      -4.398  -0.919  -3.848  0.00  0.00    +0.146 A 
ATOM      5  O   UNL     1      -3.949  -1.472  -2.709  0.00  0.00    -0.463 OA
ENDROOT
BRANCH   1   6
ATOM      6  C   UNL     1      -2.860  -3.636  -1.955  0.00  0.00    -0.003 C 
BRANCH   6   7
ATOM      7  N   UNL     1      -1.414  -3.395  -1.858  0.00  0.00    +0.387 N 
ATOM      8  H   UNL     1      -0.999  -3.471  -2.774  0.00  0.00    -0.081 HD
BRANCH   7   9
ATOM      9  C   UNL     1      -1.178  -2.047  -1.324  0.00  0.00    -0.078 C 
BRANCH   9  11
ATOM     10  C   UNL     1       0.554  -0.287  -0.939  0.00  0.00    +0.002 C 
ATOM     11  C   UNL     1       0.321  -1.740  -1.359  0.00  0.00    -0.022 C 
ENDBRANCH   9  11
ENDBRANCH   7   9
BRANCH   7  12
ATOM     12  C   UNL     1      -0.810  -4.389  -0.962  0.00  0.00    -0.040 C 
BRANCH  12  13
ATOM     13  C   UNL     1      -0.933  -5.760  -1.576  0.00  0.00    -0.029 A 
ATOM     14  C   UNL     1      -1.855  -6.661  -1.077  0.00  0.00    +0.004 A 
ATOM     15  C   UNL     1      -1.968  -7.918  -1.641  0.00  0.00    +0.000 A 
ATOM     16  C   UNL     1      -1.159  -8.276  -2.704  0.00  0.00    +0.003 A 
ATOM     17  C   UNL     1      -0.237  -7.376  -3.204  0.00  0.00    +0.038 A 
ATOM     18  C   UNL     1      -0.127  -6.115  -2.644  0.00  0.00    +0.125 A 
ATOM     19  F   UNL     1       0.771  -5.233  -3.135  0.00  0.00    -0.205 F 
ENDBRANCH  12  13
ENDBRANCH   7  12
ENDBRANCH   6   7
ENDBRANCH   1   6
BRANCH   4  20
ATOM     20  C   UNL     1      -5.015   0.449  -3.981  0.00  0.00    +0.174 C 
BRANCH  20  21
ATOM     21  C   UNL     1      -5.715   0.811  -2.696  0.00  0.00    -0.002 A 
ATOM     22  C   UNL     1      -7.090   0.955  -2.674  0.00  0.00    +0.007 A 
ATOM     23  C   UNL     1      -7.733   1.287  -1.497  0.00  0.00    +0.003 A 
ATOM     24  C   UNL     1      -7.001   1.476  -0.339  0.00  0.00    +0.038 A 
ATOM     25  C   UNL     1      -5.625   1.331  -0.359  0.00  0.00    +0.124 A 
ATOM     26  C   UNL     1      -4.982   0.993  -1.538  0.00  0.00    +0.045 A 
ATOM     27  F   UNL     1      -4.909   1.516   0.771  0.00  0.00    -0.205 F 
ENDBRANCH  20  21
BRANCH  20  28
ATOM     28  C   UNL     1      -3.937   1.461  -4.268  0.00  0.00    -0.002 A 
ATOM     29  C   UNL     1      -2.725   1.387  -3.607  0.00  0.00    +0.007 A 
ATOM     30  C   UNL     1      -1.735   2.314  -3.869  0.00  0.00    +0.003 A 
ATOM     31  C   UNL     1      -1.955   3.318  -4.793  0.00  0.00    +0.038 A 
ATOM     32  C   UNL     1      -3.168   3.394  -5.456  0.00  0.00    +0.124 A 
ATOM     33  C   UNL     1      -4.157   2.461  -5.197  0.00  0.00    +0.045 A 
ATOM     34  F   UNL     1      -3.385   4.376  -6.359  0.00  0.00    -0.205 F 
ENDBRANCH  20  28
BRANCH  20  35
ATOM     35  O   UNL     1      -5.961   0.443  -5.052  0.00  0.00    -0.372 OA
ATOM     36  H   UNL     1      -6.685  -0.187  -4.934  0.00  0.00    +0.212 HD
ENDBRANCH  20  35
ENDBRANCH   4  20
TORSDOF 10
