REMARK  Name = ZINC15015548
REMARK  7 active torsions:
REMARK  status: ('A' for Active; 'I' for Inactive)
REMARK    1  A    between atoms: C_1  and  C_2
REMARK    2  A    between atoms: C_2  and  O_3
REMARK    3  A    between atoms: O_3  and  C_4
REMARK    4  A    between atoms: C_6  and  C_12
REMARK    5  A    between atoms: C_9  and  O_10
REMARK    6  A    between atoms: C_24  and  S_27
REMARK    7  A    between atoms: S_27  and  C_28
REMARK                            x       y       z     vdW  Elec       q    Type
REMARK                         _______ _______ _______ _____ _____    ______ ____
ROOT
ATOM      1  C   UNL     1       0.002  -0.004   0.002  0.00  0.00    +0.294 C 
ATOM      2  N   UNL     1      -1.224  -0.493  -0.622  0.00  0.00    -0.305 N 
ATOM      3  C   UNL     1      -2.412  -0.464   0.113  0.00  0.00    +0.039 A 
ATOM      4  C   UNL     1      -3.437   0.406  -0.209  0.00  0.00    +0.024 A 
ATOM      5  C   UNL     1      -4.585   0.434   0.561  0.00  0.00    +0.002 A 
ATOM      6  C   UNL     1      -4.715  -0.404   1.655  0.00  0.00    +0.001 A 
ATOM      7  C   UNL     1      -3.703  -1.284   1.986  0.00  0.00    +0.012 A 
ATOM      8  C   UNL     1      -2.546  -1.326   1.218  0.00  0.00    +0.028 A 
ATOM      9  C   UNL     1      -1.444  -2.261   1.528  0.00  0.00    +0.156 A 
ATOM     10  C   UNL     1      -0.115  -1.784   1.568  0.00  0.00    +0.248 A 
ATOM     11  N   UNL     1       0.859  -2.638   1.832  0.00  0.00    -0.184 NA
ATOM     12  C   UNL     1       0.561  -3.914   2.057  0.00  0.00    +0.212 A 
ATOM     13  N   UNL     1      -0.695  -4.341   2.022  0.00  0.00    -0.122 NA
ATOM     14  N   UNL     1      -1.673  -3.543   1.765  0.00  0.00    -0.141 NA
ATOM     15  O   UNL     1       0.138  -0.473   1.339  0.00  0.00    -0.449 OA
ATOM     16  H   UNL     1      -1.214  -0.832  -1.531  0.00  0.00    +0.150 HD
ENDROOT
BRANCH   1  19
ATOM     17  C   UNL     1       0.487   3.579   1.097  0.00  0.00    +0.163 A 
ATOM     18  C   UNL     1       0.505   2.194   1.087  0.00  0.00    +0.058 A 
ATOM     19  C   UNL     1      -0.018   1.503   0.010  0.00  0.00    +0.016 A 
ATOM     20  C   UNL     1      -0.555   2.191  -1.062  0.00  0.00    +0.027 A 
ATOM     21  C   UNL     1      -0.581   3.574  -1.056  0.00  0.00    +0.059 A 
ATOM     22  C   UNL     1      -0.058   4.272   0.021  0.00  0.00    +0.172 A 
ATOM     23  I   UNL     1      -1.404   4.612  -2.679  0.00  0.00    -0.040 I 
BRANCH  22  24
ATOM     24  O   UNL     1      -0.078   5.632   0.025  0.00  0.00    -0.503 OA
ATOM     25  H   UNL     1       0.708   6.038  -0.366  0.00  0.00    +0.292 HD
ENDBRANCH  22  24
BRANCH  17  26
ATOM     26  O   UNL     1       1.002   4.260   2.156  0.00  0.00    -0.489 OA
BRANCH  26  28
ATOM     27  C   UNL     1       2.071   4.416   4.317  0.00  0.00    +0.048 C 
ATOM     28  C   UNL     1       1.544   3.483   3.225  0.00  0.00    +0.226 C 
ENDBRANCH  26  28
ENDBRANCH  17  26
ENDBRANCH   1  19
BRANCH  12  29
ATOM     29  S   UNL     1       1.855  -5.058   2.409  0.00  0.00    -0.088 S 
ATOM     30  C   UNL     1       0.888  -6.573   2.618  0.00  0.00    +0.093 C 
ENDBRANCH  12  29
TORSDOF 5
