REMARK  Name = ZINC33692595
REMARK  17 active torsions:
REMARK  status: ('A' for Active; 'I' for Inactive)
REMARK    1  A    between atoms: C_1  and  C_2
REMARK    2  A    between atoms: C_2  and  N_3
REMARK    3  A    between atoms: N_3  and  C_4
REMARK    4  A    between atoms: N_3  and  C_6
REMARK    5  A    between atoms: C_4  and  C_5
REMARK    6  A    between atoms: C_6  and  C_7
REMARK    7  A    between atoms: C_7  and  C_8
REMARK    8  A    between atoms: C_8  and  C_9
REMARK    9  A    between atoms: C_9  and  C_11
REMARK   10  A    between atoms: C_9  and  N_12
REMARK   11  A    between atoms: C_13  and  C_15
REMARK   12  A    between atoms: C_18  and  C_20
REMARK   13  A    between atoms: C_20  and  N_21
REMARK   14  A    between atoms: C_24  and  C_32
REMARK   15  A    between atoms: C_32  and  C_33
REMARK   16  A    between atoms: C_32  and  C_34
REMARK   17  A    between atoms: C_32  and  C_35
REMARK                            x       y       z     vdW  Elec       q    Type
REMARK                         _______ _______ _______ _____ _____    ______ ____
ROOT
ATOM      1  C   UNL     1      -2.490   1.292  -2.836  0.00  0.00    +0.189 A 
ATOM      2  C   UNL     1      -3.562   0.676  -3.415  0.00  0.00    +0.055 A 
ATOM      3  C   UNL     1      -3.927   1.458  -4.522  0.00  0.00    +0.047 A 
ATOM      4  C   UNL     1      -3.073   2.504  -4.569  0.00  0.00    +0.124 A 
ATOM      5  O   UNL     1      -2.211   2.403  -3.549  0.00  0.00    -0.453 OA
ENDROOT
BRANCH   1   7
ATOM      6  N   UNL     1      -0.724   1.537  -1.173  0.00  0.00    -0.306 N 
ATOM      7  C   UNL     1      -1.771   0.831  -1.643  0.00  0.00    +0.280 C 
ATOM      8  O   UNL     1      -2.120  -0.189  -1.079  0.00  0.00    -0.267 OA
ATOM      9  H   UNL     1      -0.408   2.459  -1.683  0.00  0.00    +0.149 HD
BRANCH   6  10
ATOM     10  C   UNL     1      -0.005   1.076   0.018  0.00  0.00    +0.070 C 
ATOM     11  C   UNL     1      -0.722   1.581   1.273  0.00  0.00    +0.028 C 
BRANCH  10  12
ATOM     12  C   UNL     1       1.425   1.619  -0.006  0.00  0.00    +0.020 C 
BRANCH  12  13
ATOM     13  C   UNL     1       2.179   1.016  -1.193  0.00  0.00    -0.017 C 
BRANCH  13  14
ATOM     14  C   UNL     1       3.609   1.559  -1.217  0.00  0.00    -0.079 C 
BRANCH  14  15
ATOM     15  N   UNL     1       4.370   0.889  -2.280  0.00  0.00    +0.379 N 
ATOM     16  H   UNL     1       4.116  -0.181  -2.254  0.00  0.00    -0.082 HD
BRANCH  15  18
ATOM     17  C   UNL     1       4.614   0.527  -4.690  0.00  0.00    -0.017 C 
ATOM     18  C   UNL     1       3.997   1.409  -3.603  0.00  0.00    -0.082 C 
ENDBRANCH  15  18
BRANCH  15  19
ATOM     19  C   UNL     1       5.815   1.016  -2.053  0.00  0.00    -0.082 C 
ATOM     20  C   UNL     1       6.242   0.061  -0.937  0.00  0.00    -0.017 C 
ENDBRANCH  15  19
ENDBRANCH  14  15
ENDBRANCH  13  14
ENDBRANCH  12  13
ENDBRANCH  10  12
ENDBRANCH   6  10
ENDBRANCH   1   7
BRANCH   4  21
ATOM     21  C   UNL     1      -3.090   3.605  -5.598  0.00  0.00    +0.188 C 
BRANCH  21  22
ATOM     22  N   UNL     1      -3.949   4.695  -5.132  0.00  0.00    -0.258 N 
ATOM     23  C   UNL     1      -3.418   5.743  -4.367  0.00  0.00    +0.079 A 
ATOM     24  C   UNL     1      -2.050   5.949  -4.301  0.00  0.00    +0.031 A 
ATOM     25  C   UNL     1      -1.547   6.988  -3.540  0.00  0.00    -0.040 A 
ATOM     26  C   UNL     1      -2.405   7.821  -2.846  0.00  0.00    +0.008 A 
ATOM     27  C   UNL     1      -3.772   7.621  -2.908  0.00  0.00    +0.048 A 
ATOM     28  C   UNL     1      -4.283   6.583  -3.668  0.00  0.00    +0.143 A 
ATOM     29  O   UNL     1      -5.625   6.373  -3.742  0.00  0.00    -0.481 OA
ATOM     30  C   UNL     1      -6.127   5.857  -4.977  0.00  0.00    +0.325 C 
ATOM     31  C   UNL     1      -5.265   4.710  -5.438  0.00  0.00    +0.258 C 
ATOM     32  O   UNL     1      -5.752   3.801  -6.077  0.00  0.00    -0.271 OA
BRANCH  25  33
ATOM     33  C   UNL     1      -0.058   7.213  -3.467  0.00  0.00    -0.013 C 
ATOM     34  C   UNL     1       0.232   8.416  -2.567  0.00  0.00    +0.015 C 
ATOM     35  C   UNL     1       0.618   5.969  -2.890  0.00  0.00    +0.015 C 
ATOM     36  C   UNL     1       0.486   7.484  -4.872  0.00  0.00    +0.015 C 
ENDBRANCH  25  33
ENDBRANCH  21  22
ENDBRANCH   4  21
TORSDOF 11
