REMARK  Name = ZINC11910786
REMARK  12 active torsions:
REMARK  status: ('A' for Active; 'I' for Inactive)
REMARK    1  A    between atoms: C_1  and  C_2
REMARK    2  A    between atoms: C_2  and  O_3
REMARK    3  A    between atoms: O_3  and  C_4
REMARK    4  A    between atoms: C_6  and  C_11
REMARK    5  A    between atoms: C_9  and  O_10
REMARK    6  A    between atoms: C_11  and  N_68
REMARK    7  A    between atoms: C_14  and  C_17
REMARK    8  A    between atoms: C_17  and  C_19
REMARK    9  A    between atoms: C_17  and  N_27
REMARK   10  A    between atoms: C_19  and  C_20
REMARK   11  A    between atoms: N_27  and  C_28
REMARK   12  A    between atoms: C_29  and  C_31
REMARK                            x       y       z     vdW  Elec       q    Type
REMARK                         _______ _______ _______ _____ _____    ______ ____
ROOT
ATOM      1  C   UNL     1       4.073   0.913   4.586  0.00  0.00    -0.078 C 
ATOM      2  C   UNL     1       5.224   1.918   4.503  0.00  0.00    -0.013 C 
ATOM      3  C   UNL     1       6.516   1.247   4.978  0.00  0.00    +0.006 C 
ATOM      4  C   UNL     1       6.784   0.008   4.119  0.00  0.00    -0.013 C 
ATOM      5  C   UNL     1       5.588  -0.941   4.213  0.00  0.00    -0.078 C 
ATOM      6  N   UNL     1       4.382  -0.243   3.719  0.00  0.00    +0.382 N 
ATOM      7  H   UNL     1       4.560   0.093   2.765  0.00  0.00    -0.081 HD
ENDROOT
BRANCH   6   8
ATOM      8  C   UNL     1       3.235  -1.175   3.692  0.00  0.00    -0.043 C 
BRANCH   8  11
ATOM      9  C   UNL     1       0.380   0.565   1.934  0.00  0.00    +0.162 A 
ATOM     10  C   UNL     1       1.543  -0.154   2.158  0.00  0.00    +0.051 A 
ATOM     11  C   UNL     1       1.970  -0.393   3.451  0.00  0.00    -0.060 A 
ATOM     12  C   UNL     1       1.238   0.084   4.523  0.00  0.00    +0.005 A 
ATOM     13  C   UNL     1       0.077   0.802   4.306  0.00  0.00    +0.049 A 
ATOM     14  C   UNL     1      -0.353   1.050   3.012  0.00  0.00    +0.158 A 
BRANCH  14  15
ATOM     15  O   UNL     1      -1.493   1.761   2.798  0.00  0.00    -0.503 OA
ATOM     16  H   UNL     1      -2.292   1.219   2.752  0.00  0.00    +0.292 HD
ENDBRANCH  14  15
BRANCH   9  17
ATOM     17  O   UNL     1      -0.042   0.800   0.662  0.00  0.00    -0.489 OA
BRANCH  17  19
ATOM     18  C   UNL     1       0.136   0.640  -1.742  0.00  0.00    +0.048 C 
ATOM     19  C   UNL     1       0.764   0.277  -0.396  0.00  0.00    +0.226 C 
ENDBRANCH  17  19
ENDBRANCH   9  17
ENDBRANCH   8  11
ENDBRANCH   6   8
BRANCH   3  20
ATOM     20  C   UNL     1       7.683   2.227   4.840  0.00  0.00    +0.083 C 
BRANCH  20  21
ATOM     21  N   UNL     1       7.851   2.591   3.431  0.00  0.00    -0.297 N 
ATOM     22  C   UNL     1       6.830   3.395   2.755  0.00  0.00    +0.132 C 
ATOM     23  C   UNL     1       8.945   2.185   2.756  0.00  0.00    +0.253 C 
ATOM     24  O   UNL     1       9.749   1.445   3.291  0.00  0.00    -0.269 OA
BRANCH  23  25
ATOM     25  C   UNL     1       9.165   2.636   1.379  0.00  0.00    +0.074 A 
ATOM     26  C   UNL     1      10.169   2.278   0.493  0.00  0.00    +0.021 A 
ATOM     27  C   UNL     1      10.138   2.854  -0.753  0.00  0.00    +0.008 A 
ATOM     28  C   UNL     1       9.150   3.738  -1.050  0.00  0.00    +0.046 A 
ATOM     29  S   UNL     1       8.215   3.793   0.408  0.00  0.00    -0.092 S 
ENDBRANCH  23  25
ENDBRANCH  20  21
BRANCH  20  30
ATOM     30  C   UNL     1       7.391   3.486   5.660  0.00  0.00    +0.060 C 
BRANCH  30  31
ATOM     31  C   UNL     1       8.602   4.382   5.653  0.00  0.00    -0.010 A 
ATOM     32  C   UNL     1       9.582   4.227   6.616  0.00  0.00    +0.006 A 
ATOM     33  C   UNL     1      10.697   5.045   6.606  0.00  0.00    +0.000 A 
ATOM     34  C   UNL     1      10.826   6.027   5.641  0.00  0.00    +0.003 A 
ATOM     35  C   UNL     1       9.845   6.187   4.681  0.00  0.00    +0.038 A 
ATOM     36  C   UNL     1       8.731   5.364   4.687  0.00  0.00    +0.127 A 
ATOM     37  F   UNL     1       7.771   5.521   3.749  0.00  0.00    -0.205 F 
ENDBRANCH  30  31
ENDBRANCH  20  30
ENDBRANCH   3  20
TORSDOF 10
