REMARK  Name = ZINC13274043
REMARK  7 active torsions:
REMARK  status: ('A' for Active; 'I' for Inactive)
REMARK    1  A    between atoms: C_3  and  O_10
REMARK    2  A    between atoms: C_6  and  C_7
REMARK    3  A    between atoms: O_10  and  C_11
REMARK    4  A    between atoms: C_14  and  S_20
REMARK    5  A    between atoms: C_16  and  N_17
REMARK    6  A    between atoms: S_20  and  N_23
REMARK    7  A    between atoms: C_26  and  C_29
REMARK                            x       y       z     vdW  Elec       q    Type
REMARK                         _______ _______ _______ _____ _____    ______ ____
ROOT
ATOM      1  C   UNL     1       2.257   5.220  -0.098  0.00  0.00    +0.159 A 
ATOM      2  C   UNL     1       1.027   5.862  -0.082  0.00  0.00    +0.050 A 
ATOM      3  C   UNL     1       0.967   7.238  -0.181  0.00  0.00    +0.032 A 
ATOM      4  C   UNL     1       2.131   7.976  -0.295  0.00  0.00    +0.108 A 
ATOM      5  C   UNL     1       3.357   7.338  -0.312  0.00  0.00    +0.065 A 
ATOM      6  C   UNL     1       3.423   5.962  -0.208  0.00  0.00    +0.170 A 
ENDROOT
BRANCH   6   7
ATOM      7  N   UNL     1       4.737   5.281  -0.219  0.00  0.00    +0.060 N 
ATOM      8  O   UNL     1       5.761   5.934  -0.316  0.00  0.00    -0.126 OA
ATOM      9  O   UNL     1       4.795   4.067  -0.132  0.00  0.00    -0.126 OA
ENDBRANCH   6   7
BRANCH   4  10
ATOM     10  S   UNL     1       2.050   9.732  -0.421  0.00  0.00    +0.061 S 
ATOM     11  O   UNL     1       3.246  10.148  -1.067  0.00  0.00    -0.153 OA
ATOM     12  O   UNL     1       0.761  10.044  -0.931  0.00  0.00    -0.153 OA
BRANCH  10  13
ATOM     13  N   UNL     1       2.109  10.336   1.119  0.00  0.00    -0.177 NA
ATOM     14  C   UNL     1       0.874  10.563   1.882  0.00  0.00    +0.110 C 
ATOM     15  C   UNL     1       0.855  12.006   2.382  0.00  0.00    +0.032 C 
ATOM     16  C   UNL     1       2.139  12.289   3.165  0.00  0.00    +0.105 C 
ATOM     17  C   UNL     1       3.349  12.110   2.246  0.00  0.00    +0.032 C 
ATOM     18  C   UNL     1       3.397  10.662   1.747  0.00  0.00    +0.110 C 
BRANCH  16  19
ATOM     19  C   UNL     1       2.108  13.703   3.685  0.00  0.00    +0.359 C 
ATOM     20  O   UNL     1       2.966  14.487   3.355  0.00  0.00    -0.246 OA
ATOM     21  O   UNL     1       1.128  14.092   4.516  0.00  0.00    -0.246 OA
ENDBRANCH  16  19
ENDBRANCH  10  13
ENDBRANCH   4  10
BRANCH   1  22
ATOM     22  O   UNL     1       2.319   3.866  -0.000  0.00  0.00    -0.452 OA
BRANCH  22  25
ATOM     23  C   UNL     1      -0.592   2.042   1.186  0.00  0.00    +0.019 A 
ATOM     24  C   UNL     1       0.592   2.746   1.190  0.00  0.00    +0.048 A 
ATOM     25  C   UNL     1       1.152   3.172  -0.008  0.00  0.00    +0.147 A 
ATOM     26  C   UNL     1       0.521   2.890  -1.216  0.00  0.00    +0.084 A 
ATOM     27  C   UNL     1      -0.663   2.186  -1.228  0.00  0.00    +0.038 A 
ATOM     28  C   UNL     1      -1.232   1.760  -0.024  0.00  0.00    +0.065 A 
ATOM     29 CL   UNL     1       1.227   3.425  -2.709  0.00  0.00    -0.080 Cl
BRANCH  28  30
ATOM     30  C   UNL     1      -2.503   1.011  -0.031  0.00  0.00    +0.387 C 
ATOM     31  O   UNL     1      -3.056   0.764  -1.084  0.00  0.00    -0.241 OA
ATOM     32  O   UNL     1      -3.050   0.602   1.130  0.00  0.00    -0.241 OA
ENDBRANCH  28  30
ENDBRANCH  22  25
ENDBRANCH   1  22
TORSDOF 7
