REMARK  Name = ZINC36311735
REMARK  4 active torsions:
REMARK  status: ('A' for Active; 'I' for Inactive)
REMARK    1  A    between atoms: C_8  and  C_27
REMARK    2  A    between atoms: C_10  and  C_18
REMARK    3  A    between atoms: C_21  and  N_24
REMARK    4  A    between atoms: C_27  and  C_29
REMARK                            x       y       z     vdW  Elec       q    Type
REMARK                         _______ _______ _______ _____ _____    ______ ____
ROOT
ATOM      1  C   UNL     1      -0.312   1.397   0.119  0.00  0.00    +0.000 A 
ATOM      2  C   UNL     1       0.754   2.237  -0.144  0.00  0.00    +0.002 A 
ATOM      3  C   UNL     1       1.994   1.714  -0.449  0.00  0.00    +0.023 A 
ATOM      4  C   UNL     1       2.180   0.334  -0.494  0.00  0.00    +0.039 A 
ATOM      5  C   UNL     1       1.100  -0.501  -0.227  0.00  0.00    +0.004 A 
ATOM      6  C   UNL     1      -0.136   0.026   0.077  0.00  0.00    +0.008 A 
ATOM      7  C   UNL     1       1.624  -1.903  -0.354  0.00  0.00    +0.137 C 
ATOM      8  C   UNL     1       0.864  -2.688  -1.438  0.00  0.00    +0.103 C 
ATOM      9  C   UNL     1      -0.356  -3.222  -0.639  0.00  0.00    +0.050 C 
ATOM     10  C   UNL     1       0.230  -3.470   0.768  0.00  0.00    +0.077 C 
ATOM     11  N   UNL     1       1.451  -2.668   0.890  0.00  0.00    -0.271 NA
ATOM     12  C   UNL     1       2.695  -3.417   1.194  0.00  0.00    +0.155 C 
ATOM     13  S   UNL     1       2.019  -4.971   1.927  0.00  0.00    -0.144 S 
ATOM     14  C   UNL     1       0.458  -4.987   0.956  0.00  0.00    +0.090 C 
ATOM     15  C   UNL     1       3.076  -1.747  -0.713  0.00  0.00    +0.243 C 
ATOM     16  O   UNL     1       3.874  -2.640  -0.910  0.00  0.00    -0.273 OA
ATOM     17  N   UNL     1       3.319  -0.424  -0.775  0.00  0.00    -0.283 N 
ATOM     18  H   UNL     1       4.185  -0.042  -0.989  0.00  0.00    +0.155 HD
ENDROOT
BRANCH   9  19
ATOM     19  C   UNL     1      -0.866  -4.506  -1.240  0.00  0.00    -0.042 A 
ATOM     20  C   UNL     1      -2.221  -4.682  -1.446  0.00  0.00    +0.006 A 
ATOM     21  C   UNL     1      -2.690  -5.860  -1.999  0.00  0.00    +0.033 A 
ATOM     22  C   UNL     1      -1.802  -6.861  -2.345  0.00  0.00    +0.126 A 
ATOM     23  C   UNL     1      -0.447  -6.685  -2.140  0.00  0.00    +0.033 A 
ATOM     24  C   UNL     1       0.022  -5.506  -1.592  0.00  0.00    +0.006 A 
BRANCH  22  25
ATOM     25  N   UNL     1      -2.304  -8.123  -2.935  0.00  0.00    +0.056 N 
ATOM     26  O   UNL     1      -3.489  -8.277  -3.114  0.00  0.00    -0.126 OA
ATOM     27  O   UNL     1      -1.527  -8.999  -3.238  0.00  0.00    -0.126 OA
ENDBRANCH  22  25
ENDBRANCH   9  19
BRANCH   8  28
ATOM     28  C   UNL     1       1.702  -3.822  -1.970  0.00  0.00    +0.169 C 
ATOM     29  O   UNL     1       2.509  -4.370  -1.250  0.00  0.00    -0.292 OA
BRANCH  28  30
ATOM     30  C   UNL     1       1.539  -4.266  -3.363  0.00  0.00    +0.018 A 
ATOM     31  C   UNL     1       0.612  -3.633  -4.198  0.00  0.00    +0.014 A 
ATOM     32  C   UNL     1       0.464  -4.053  -5.502  0.00  0.00    +0.039 A 
ATOM     33  C   UNL     1       1.232  -5.102  -5.986  0.00  0.00    +0.123 A 
ATOM     34  C   UNL     1       2.153  -5.734  -5.163  0.00  0.00    +0.039 A 
ATOM     35  C   UNL     1       2.315  -5.319  -3.860  0.00  0.00    +0.014 A 
ATOM     36  F   UNL     1       1.082  -5.510  -7.265  0.00  0.00    -0.205 F 
ENDBRANCH  28  30
ENDBRANCH   8  28
TORSDOF 4
