REMARK  Name = ZINC13606264
REMARK  7 active torsions:
REMARK  status: ('A' for Active; 'I' for Inactive)
REMARK    1  A    between atoms: C_3  and  C_26
REMARK    2  A    between atoms: C_5  and  O_7
REMARK    3  A    between atoms: O_7  and  C_8
REMARK    4  A    between atoms: C_8  and  C_9
REMARK    5  A    between atoms: C_16  and  C_24
REMARK    6  A    between atoms: C_18  and  C_19
REMARK    7  A    between atoms: C_26  and  O_36
REMARK                            x       y       z     vdW  Elec       q    Type
REMARK                         _______ _______ _______ _____ _____    ______ ____
ROOT
ATOM      1  C   UNL     1       4.755   0.331  -0.042  0.00  0.00    +0.266 C 
ENDROOT
BRANCH   1   2
ATOM      2  C   UNL     1       5.995  -0.526  -0.058  0.00  0.00    -0.010 A 
ATOM      3  C   UNL     1       6.548  -0.910  -1.278  0.00  0.00    +0.007 A 
ATOM      4  C   UNL     1       7.668  -1.684  -1.327  0.00  0.00    +0.009 A 
ATOM      5  C   UNL     1       8.277  -2.103  -0.135  0.00  0.00    -0.010 A 
ATOM      6  C   UNL     1       7.715  -1.713   1.107  0.00  0.00    -0.016 A 
ATOM      7  C   UNL     1       6.561  -0.909   1.119  0.00  0.00    +0.015 A 
ATOM      8  C   UNL     1       8.319  -2.128   2.303  0.00  0.00    +0.027 A 
ATOM      9  C   UNL     1       9.460  -2.916   2.263  0.00  0.00    +0.053 A 
ATOM     10  C   UNL     1      10.019  -3.303   1.035  0.00  0.00    +0.028 A 
ATOM     11  C   UNL     1       9.442  -2.907  -0.154  0.00  0.00    -0.006 A 
BRANCH  11  12
ATOM     12  C   UNL     1      10.040  -3.321  -1.446  0.00  0.00    +0.020 A 
ATOM     13  C   UNL     1      11.445  -3.197  -1.852  0.00  0.00    +0.049 A 
ATOM     14  C   UNL     1      11.517  -3.703  -3.095  0.00  0.00    +0.195 A 
ATOM     15  O   UNL     1      10.296  -4.108  -3.474  0.00  0.00    -0.470 OA
ATOM     16  C   UNL     1       9.399  -3.888  -2.502  0.00  0.00    +0.203 A 
ENDBRANCH  11  12
BRANCH   9  17
ATOM     17  C   UNL     1      10.074  -3.337   3.486  0.00  0.00    +0.099 C 
ATOM     18  N   UNL     1      10.561  -3.671   4.456  0.00  0.00    -0.191 NA
ENDBRANCH   9  17
ENDBRANCH   1   2
BRANCH   1  19
ATOM     19  O   UNL     1       3.597  -0.506  -0.035  0.00  0.00    -0.472 OA
BRANCH  19  24
ATOM     20  C   UNL     1       0.002  -0.004   0.002  0.00  0.00    +0.007 A 
ATOM     21  C   UNL     1      -0.017   1.384   0.010  0.00  0.00    +0.026 A 
ATOM     22  C   UNL     1       1.178   2.076   0.002  0.00  0.00    +0.077 A 
ATOM     23  N   UNL     1       2.331   1.434  -0.013  0.00  0.00    -0.215 NA
ATOM     24  C   UNL     1       2.390   0.113  -0.020  0.00  0.00    +0.215 A 
ATOM     25  C   UNL     1       1.227  -0.647  -0.013  0.00  0.00    +0.067 A 
BRANCH  22  26
ATOM     26  C   UNL     1       1.165   3.583   0.010  0.00  0.00    +0.115 C 
ATOM     27  C   UNL     1       2.599   4.107  -0.122  0.00  0.00    +0.075 C 
ATOM     28  C   UNL     1       2.585   5.630   0.091  0.00  0.00    +0.150 C 
ATOM     29  C   UNL     1       1.403   6.208  -0.723  0.00  0.00    +0.194 C 
ATOM     30  O   UNL     1       0.264   6.188   0.189  0.00  0.00    -0.349 OA
ATOM     31  C   UNL     1       0.751   5.605   1.412  0.00  0.00    +0.254 C 
ATOM     32  C   UNL     1       0.563   4.082   1.327  0.00  0.00    +0.102 C 
ATOM     33  O   UNL     1       2.171   5.866   1.460  0.00  0.00    -0.346 OA
BRANCH  26  34
ATOM     34  O   UNL     1       0.380   4.059  -1.085  0.00  0.00    -0.382 OA
ATOM     35  H   UNL     1      -0.542   3.766  -1.065  0.00  0.00    +0.211 HD
ENDBRANCH  26  34
ENDBRANCH  22  26
ENDBRANCH  19  24
ENDBRANCH   1  19
TORSDOF 7
