REMARK  Name = ZINC41350153
REMARK  12 active torsions:
REMARK  status: ('A' for Active; 'I' for Inactive)
REMARK    1  A    between atoms: C_1  and  C_2
REMARK    2  A    between atoms: C_10  and  C_31
REMARK    3  A    between atoms: C_11  and  O_13
REMARK    4  A    between atoms: O_13  and  C_14
REMARK    5  A    between atoms: C_14  and  C_16
REMARK    6  A    between atoms: C_16  and  C_18
REMARK    7  A    between atoms: C_16  and  O_19
REMARK    8  A    between atoms: O_19  and  C_20
REMARK    9  A    between atoms: C_31  and  C_32
REMARK   10  A    between atoms: C_32  and  C_33
REMARK   11  A    between atoms: C_33  and  O_35
REMARK   12  A    between atoms: O_35  and  C_36
REMARK                            x       y       z     vdW  Elec       q    Type
REMARK                         _______ _______ _______ _____ _____    ______ ____
ROOT
ATOM      1  C   UNL     1       0.085   1.554   0.058  0.00  0.00    +0.045 C 
ATOM      2  C   UNL     1       0.014   0.049   0.035  0.00  0.00    -0.033 A 
ATOM      3  C   UNL     1      -0.064  -0.628  -1.140  0.00  0.00    +0.096 A 
ATOM      4  C   UNL     1      -0.129  -2.037  -1.135  0.00  0.00    +0.337 A 
ATOM      5  O   UNL     1      -0.199  -2.631  -2.195  0.00  0.00    -0.245 OA
ATOM      6  O   UNL     1      -0.116  -2.739   0.009  0.00  0.00    -0.422 OA
ATOM      7  C   UNL     1      -0.039  -2.128   1.211  0.00  0.00    +0.143 A 
ATOM      8  C   UNL     1       0.034  -0.724   1.279  0.00  0.00    +0.021 A 
ATOM      9  C   UNL     1       0.119  -0.087   2.522  0.00  0.00    +0.019 A 
ATOM     10  C   UNL     1       0.136  -0.831   3.666  0.00  0.00    -0.004 A 
ATOM     11  C   UNL     1       0.068  -2.221   3.604  0.00  0.00    +0.138 A 
ATOM     12  C   UNL     1      -0.027  -2.868   2.383  0.00  0.00    +0.093 A 
ENDROOT
BRANCH  11  13
ATOM     13  O   UNL     1       0.086  -2.948   4.752  0.00  0.00    -0.423 OA
BRANCH  13  14
ATOM     14  C   UNL     1      -1.071  -3.111   5.412  0.00  0.00    +0.353 C 
ATOM     15  O   UNL     1      -2.104  -2.709   4.931  0.00  0.00    -0.246 OA
BRANCH  14  16
ATOM     16  C   UNL     1      -1.082  -3.797   6.754  0.00  0.00    +0.279 C 
ATOM     17  C   UNL     1      -0.657  -5.257   6.584  0.00  0.00    +0.064 C 
BRANCH  16  18
ATOM     18  O   UNL     1      -2.400  -3.747   7.304  0.00  0.00    -0.472 OA
BRANCH  18  19
ATOM     19  C   UNL     1      -2.503  -3.719   8.661  0.00  0.00    +0.198 A 
ATOM     20  C   UNL     1      -2.587  -4.905   9.375  0.00  0.00    +0.206 A 
ATOM     21  C   UNL     1      -2.691  -4.876  10.756  0.00  0.00    +0.200 A 
ATOM     22  C   UNL     1      -2.711  -3.662  11.424  0.00  0.00    +0.199 A 
ATOM     23  C   UNL     1      -2.628  -2.476  10.712  0.00  0.00    +0.200 A 
ATOM     24  C   UNL     1      -2.518  -2.503   9.331  0.00  0.00    +0.206 A 
ATOM     25  F   UNL     1      -2.432  -1.348   8.637  0.00  0.00    -0.198 F 
ATOM     26  F   UNL     1      -2.649  -1.293  11.364  0.00  0.00    -0.199 F 
ATOM     27  F   UNL     1      -2.813  -3.634  12.771  0.00  0.00    -0.199 F 
ATOM     28  F   UNL     1      -2.773  -6.031  11.452  0.00  0.00    -0.199 F 
ATOM     29  F   UNL     1      -2.567  -6.089   8.724  0.00  0.00    -0.198 F 
ENDBRANCH  18  19
ENDBRANCH  16  18
ENDBRANCH  14  16
ENDBRANCH  13  14
ENDBRANCH  11  13
BRANCH  10  30
ATOM     30  C   UNL     1       0.227  -0.145   5.005  0.00  0.00    +0.050 C 
BRANCH  30  31
ATOM     31  C   UNL     1       1.690  -0.091   5.451  0.00  0.00    +0.125 C 
BRANCH  31  32
ATOM     32  C   UNL     1       1.782   0.595   6.790  0.00  0.00    +0.307 C 
ATOM     33  O   UNL     1       0.780   1.000   7.331  0.00  0.00    -0.251 OA
BRANCH  32  34
ATOM     34  O   UNL     1       2.976   0.757   7.380  0.00  0.00    -0.468 OA
ATOM     35  C   UNL     1       2.989   1.416   8.648  0.00  0.00    +0.280 C 
ENDBRANCH  32  34
ENDBRANCH  31  32
ENDBRANCH  30  31
ENDBRANCH  10  30
TORSDOF 9
