REMARK  Name = ZINC00939045
REMARK  5 active torsions:
REMARK  status: ('A' for Active; 'I' for Inactive)
REMARK    1  A    between atoms: C_1  and  C_2
REMARK    2  A    between atoms: C_2  and  C_24
REMARK    3  A    between atoms: C_9  and  C_17
REMARK    4  A    between atoms: C_11  and  C_15
REMARK    5  A    between atoms: C_12  and  N_14
REMARK                            x       y       z     vdW  Elec       q    Type
REMARK                         _______ _______ _______ _____ _____    ______ ____
ROOT
ATOM      1  C   UNL     1      -4.294   3.066  -1.836  0.00  0.00    +0.019 C 
ATOM      2  C   UNL     1      -2.981   2.468  -2.345  0.00  0.00    +0.028 C 
ATOM      3  C   UNL     1      -2.178   3.545  -3.082  0.00  0.00    +0.022 C 
ATOM      4  C   UNL     1      -0.833   2.947  -3.500  0.00  0.00    +0.076 C 
ATOM      5  C   UNL     1      -0.091   2.460  -2.278  0.00  0.00    +0.115 C 
ATOM      6  C   UNL     1      -0.762   2.000  -1.206  0.00  0.00    +0.046 C 
ATOM      7  C   UNL     1      -2.169   1.969  -1.181  0.00  0.00    +0.169 C 
ATOM      8  O   UNL     1      -2.739   1.531  -0.201  0.00  0.00    -0.292 OA
ATOM      9  C   UNL     1      -0.018   1.503   0.010  0.00  0.00    +0.101 C 
ATOM     10  C   UNL     1       1.393   2.021  -0.000  0.00  0.00    +0.098 C 
ATOM     11  C   UNL     1       1.943   2.488  -1.148  0.00  0.00    +0.198 C 
ATOM     12  O   UNL     1       1.254   2.498  -2.300  0.00  0.00    -0.445 OA
ATOM     13  C   UNL     1      -3.278   1.308  -3.297  0.00  0.00    +0.019 C 
ENDROOT
BRANCH   9  14
ATOM     14  C   UNL     1       0.002  -0.004   0.002  0.00  0.00    -0.034 A 
ATOM     15  C   UNL     1       0.595  -0.681  -1.047  0.00  0.00    +0.004 A 
ATOM     16  C   UNL     1       0.619  -2.063  -1.053  0.00  0.00    +0.001 A 
ATOM     17  C   UNL     1       0.040  -2.769  -0.014  0.00  0.00    +0.015 A 
ATOM     18  C   UNL     1      -0.558  -2.092   1.033  0.00  0.00    +0.018 A 
ATOM     19  C   UNL     1      -0.577  -0.709   1.040  0.00  0.00    +0.020 A 
ATOM     20 BR   UNL     1      -1.351  -3.057   2.453  0.00  0.00    -0.050 Br
ENDBRANCH   9  14
BRANCH  11  21
ATOM     21  N   UNL     1       3.231   2.962  -1.131  0.00  0.00    -0.328 N 
ATOM     22  H   UNL     1       3.737   2.960  -0.304  0.00  0.00    +0.145 HD
ATOM     23  H   UNL     1       3.634   3.299  -1.946  0.00  0.00    +0.145 HD
ENDBRANCH  11  21
BRANCH  10  24
ATOM     24  C   UNL     1       2.160   2.021   1.208  0.00  0.00    +0.101 C 
ATOM     25  N   UNL     1       2.769   2.021   2.168  0.00  0.00    -0.191 NA
ENDBRANCH  10  24
TORSDOF 3
