REMARK  Name = ZINC08670438
REMARK  9 active torsions:
REMARK  status: ('A' for Active; 'I' for Inactive)
REMARK    1  A    between atoms: C_1  and  C_2
REMARK    2  A    between atoms: C_5  and  S_8
REMARK    3  A    between atoms: S_8  and  N_11
REMARK    4  A    between atoms: N_11  and  C_12
REMARK    5  A    between atoms: C_12  and  C_14
REMARK    6  A    between atoms: C_12  and  C_15
REMARK    7  A    between atoms: C_15  and  C_17
REMARK    8  A    between atoms: C_15  and  N_60
REMARK    9  A    between atoms: N_24  and  C_27
REMARK                            x       y       z     vdW  Elec       q    Type
REMARK                         _______ _______ _______ _____ _____    ______ ____
ROOT
ATOM      1  C   UNL     1       0.011   1.072   2.506  0.00  0.00    -0.012 C 
ENDROOT
BRANCH   1   7
ATOM      2  C   UNL     1      -0.868  -1.155   2.870  0.00  0.00    -0.059 C 
ATOM      3  C   UNL     1      -0.505  -2.642   2.863  0.00  0.00    +0.086 C 
ATOM      4  N   UNL     1       0.540  -2.892   3.866  0.00  0.00    -0.333 N 
ATOM      5  C   UNL     1       1.742  -2.096   3.580  0.00  0.00    +0.086 C 
ATOM      6  C   UNL     1       1.379  -0.609   3.586  0.00  0.00    -0.059 C 
ATOM      7  N   UNL     1       0.344  -0.367   2.559  0.00  0.00    +0.388 N 
ATOM      8  H   UNL     1       0.706  -0.660   1.644  0.00  0.00    -0.081 HD
BRANCH   4   9
ATOM      9  C   UNL     1       0.847  -4.253   3.939  0.00  0.00    +0.030 A 
ATOM     10  C   UNL     1       2.153  -4.684   3.744  0.00  0.00    +0.023 A 
ATOM     11  C   UNL     1       2.454  -6.029   3.822  0.00  0.00    +0.002 A 
ATOM     12  C   UNL     1       1.454  -6.949   4.084  0.00  0.00    +0.000 A 
ATOM     13  C   UNL     1       0.152  -6.524   4.274  0.00  0.00    +0.002 A 
ATOM     14  C   UNL     1      -0.155  -5.179   4.202  0.00  0.00    +0.023 A 
ENDBRANCH   4   9
ENDBRANCH   1   7
BRANCH   1  15
ATOM     15  C   UNL     1      -0.379   1.574   3.873  0.00  0.00    -0.022 A 
ATOM     16  C   UNL     1       0.055   2.674   4.535  0.00  0.00    +0.009 A 
ATOM     17  C   UNL     1      -0.450   2.943   5.793  0.00  0.00    +0.008 A 
ATOM     18  C   UNL     1      -1.358   2.092   6.332  0.00  0.00    +0.045 A 
ATOM     19  S   UNL     1      -1.529   0.869   5.043  0.00  0.00    -0.103 S 
ENDBRANCH   1  15
BRANCH   1  20
ATOM     20  C   UNL     1      -1.152   1.281   1.535  0.00  0.00    +0.065 C 
ATOM     21  C   UNL     1      -0.756   0.772   0.147  0.00  0.00    +0.024 C 
BRANCH  20  22
ATOM     22  N   UNL     1      -1.474   2.708   1.458  0.00  0.00    -0.188 NA
ATOM     23  H   UNL     1      -0.766   3.369   1.519  0.00  0.00    +0.148 HD
BRANCH  22  24
ATOM     24  S   UNL     1      -3.045   3.193   1.264  0.00  0.00    +0.059 S 
ATOM     25  O   UNL     1      -3.033   4.614   1.253  0.00  0.00    -0.153 OA
ATOM     26  O   UNL     1      -3.578   2.427   0.193  0.00  0.00    -0.153 OA
BRANCH  24  31
ATOM     27  C   UNL     1      -6.047   1.536   6.229  0.00  0.00    +0.044 C 
ATOM     28  C   UNL     1      -5.298   1.950   4.989  0.00  0.00    -0.050 A 
ATOM     29  C   UNL     1      -4.691   3.191   4.930  0.00  0.00    +0.005 A 
ATOM     30  C   UNL     1      -4.004   3.571   3.792  0.00  0.00    +0.029 A 
ATOM     31  C   UNL     1      -3.922   2.709   2.714  0.00  0.00    +0.105 A 
ATOM     32  C   UNL     1      -4.532   1.470   2.772  0.00  0.00    +0.029 A 
ATOM     33  C   UNL     1      -5.216   1.089   3.911  0.00  0.00    +0.005 A 
ENDBRANCH  24  31
ENDBRANCH  22  24
ENDBRANCH  20  22
ENDBRANCH   1  20
TORSDOF 7
