REMARK  Name = ZINC12128737
REMARK  7 active torsions:
REMARK  status: ('A' for Active; 'I' for Inactive)
REMARK    1  A    between atoms: C_1  and  C_2
REMARK    2  A    between atoms: C_3  and  C_18
REMARK    3  A    between atoms: C_11  and  C_13
REMARK    4  A    between atoms: N_20  and  C_21
REMARK    5  A    between atoms: C_21  and  C_22
REMARK    6  A    between atoms: C_22  and  N_62
REMARK    7  A    between atoms: C_25  and  C_28
REMARK                            x       y       z     vdW  Elec       q    Type
REMARK                         _______ _______ _______ _____ _____    ______ ____
ROOT
ATOM      1  C   UNL     1      -0.281   3.544   6.089  0.00  0.00    +0.247 C 
ATOM      2  O   UNL     1       0.780   2.951   6.093  0.00  0.00    -0.270 OA
ATOM      3  N   UNL     1      -0.945   3.731   4.930  0.00  0.00    -0.313 N 
ATOM      4  H   UNL     1      -1.791   4.204   4.927  0.00  0.00    +0.149 HD
ENDROOT
BRANCH   1   7
ATOM      5  C   UNL     1       1.019   3.257   8.940  0.00  0.00    +0.066 C 
ATOM      6  C   UNL     1      -0.282   3.939   8.606  0.00  0.00    +0.057 A 
ATOM      7  C   UNL     1      -0.843   4.059   7.351  0.00  0.00    +0.077 A 
ATOM      8  C   UNL     1      -2.059   4.764   7.502  0.00  0.00    +0.148 A 
ATOM      9  N   UNL     1      -2.208   5.048   8.766  0.00  0.00    -0.171 NA
ATOM     10  N   UNL     1      -1.111   4.547   9.476  0.00  0.00    -0.202 N 
ATOM     11  C   UNL     1      -0.912   4.655  10.853  0.00  0.00    +0.252 A 
ATOM     12  N   UNL     1       0.178   4.130  11.389  0.00  0.00    -0.219 NA
ATOM     13  C   UNL     1       0.406   4.210  12.691  0.00  0.00    +0.117 A 
ATOM     14  C   UNL     1      -0.512   4.853  13.500  0.00  0.00    +0.049 A 
ATOM     15  C   UNL     1      -1.656   5.399  12.905  0.00  0.00    +0.083 A 
ATOM     16  N   UNL     1      -1.815   5.283  11.586  0.00  0.00    -0.210 NA
BRANCH  15  17
ATOM     17  C   UNL     1      -2.667   6.095  13.723  0.00  0.00    +0.038 A 
ATOM     18  C   UNL     1      -3.839   6.688  13.329  0.00  0.00    +0.017 A 
ATOM     19  C   UNL     1      -4.632   7.284  14.282  0.00  0.00    +0.008 A 
ATOM     20  C   UNL     1      -4.232   7.268  15.581  0.00  0.00    +0.046 A 
ATOM     21  S   UNL     1      -2.687   6.378  15.486  0.00  0.00    -0.095 S 
ENDBRANCH  15  17
ENDBRANCH   1   7
BRANCH   3  22
ATOM     22  C   UNL     1      -0.387   3.218   3.676  0.00  0.00    +0.086 C 
BRANCH  22  23
ATOM     23  C   UNL     1      -1.329   3.562   2.521  0.00  0.00    -0.060 C 
BRANCH  23  29
ATOM     24  C   UNL     1      -0.731   1.580   1.266  0.00  0.00    -0.078 C 
ATOM     25  C   UNL     1      -0.013   1.086   0.008  0.00  0.00    -0.011 C 
ATOM     26  C   UNL     1      -0.755   1.594  -1.231  0.00  0.00    +0.016 C 
ATOM     27  C   UNL     1      -0.823   3.123  -1.184  0.00  0.00    -0.011 C 
ATOM     28  C   UNL     1      -1.519   3.558   0.108  0.00  0.00    -0.078 C 
ATOM     29  N   UNL     1      -0.742   3.059   1.262  0.00  0.00    +0.381 N 
ATOM     30  H   UNL     1       0.224   3.399   1.186  0.00  0.00    -0.082 HD
BRANCH  26  31
ATOM     31  C   UNL     1      -0.019   1.159  -2.472  0.00  0.00    -0.044 A 
ATOM     32  C   UNL     1       1.286   1.566  -2.681  0.00  0.00    +0.004 A 
ATOM     33  C   UNL     1       1.962   1.164  -3.817  0.00  0.00    +0.000 A 
ATOM     34  C   UNL     1       1.331   0.362  -4.750  0.00  0.00    +0.000 A 
ATOM     35  C   UNL     1       0.025  -0.041  -4.544  0.00  0.00    +0.000 A 
ATOM     36  C   UNL     1      -0.650   0.358  -3.405  0.00  0.00    +0.004 A 
ENDBRANCH  26  31
ENDBRANCH  23  29
ENDBRANCH  22  23
ENDBRANCH   3  22
TORSDOF 6
