REMARK  Name = ZINC38748340
REMARK  6 active torsions:
REMARK  status: ('A' for Active; 'I' for Inactive)
REMARK    1  A    between atoms: C_4  and  C_7
REMARK    2  A    between atoms: C_9  and  C_13
REMARK    3  A    between atoms: C_17  and  S_21
REMARK    4  A    between atoms: N_19  and  N_20
REMARK    5  A    between atoms: S_21  and  C_22
REMARK    6  A    between atoms: C_22  and  C_23
REMARK                            x       y       z     vdW  Elec       q    Type
REMARK                         _______ _______ _______ _____ _____    ______ ____
ROOT
ATOM      1  C   UNL     1       5.744  -2.909   1.095  0.00  0.00    +0.185 C 
ATOM      2  N   UNL     1       5.580  -2.350   2.462  0.00  0.00    -0.234 NA
ATOM      3  N   UNL     1       6.648  -2.978   3.246  0.00  0.00    -0.228 NA
ATOM      4  C   UNL     1       7.699  -3.382   2.291  0.00  0.00    +0.214 C 
ATOM      5  N   UNL     1       7.221  -2.990   0.942  0.00  0.00    -0.197 NA
ATOM      6  H   UNL     1       5.678  -1.346   2.457  0.00  0.00    +0.143 HD
ATOM      7  H   UNL     1       6.300  -3.774   3.759  0.00  0.00    +0.143 HD
ENDROOT
BRANCH   1  10
ATOM      8  C   UNL     1       3.462  -0.530   0.503  0.00  0.00    +0.091 C 
ATOM      9  C   UNL     1       3.642  -1.840   0.245  0.00  0.00    +0.034 C 
ATOM     10  C   UNL     1       5.142  -1.969   0.049  0.00  0.00    +0.187 C 
ATOM     11  N   UNL     1       5.626  -0.592   0.243  0.00  0.00    -0.176 NA
ATOM     12  N   UNL     1       4.652   0.126   0.479  0.00  0.00    -0.154 NA
BRANCH   8  16
ATOM     13  C   UNL     1      -0.301   1.297   1.266  0.00  0.00    +0.000 A 
ATOM     14  C   UNL     1       0.850   2.064   1.267  0.00  0.00    +0.001 A 
ATOM     15  C   UNL     1       2.074   1.476   1.020  0.00  0.00    +0.010 A 
ATOM     16  C   UNL     1       2.149   0.108   0.769  0.00  0.00    +0.002 A 
ATOM     17  C   UNL     1       0.986  -0.660   0.769  0.00  0.00    +0.010 A 
ATOM     18  C   UNL     1      -0.233  -0.062   1.017  0.00  0.00    +0.001 A 
ENDBRANCH   8  16
ENDBRANCH   1  10
BRANCH   5  19
ATOM     19  N   UNL     1       7.589  -3.983  -0.054  0.00  0.00    -0.264 NA
ATOM     20  H   UNL     1       8.591  -4.038  -0.158  0.00  0.00    +0.137 HD
ATOM     21  H   UNL     1       7.199  -4.885   0.173  0.00  0.00    +0.137 HD
ENDBRANCH   5  19
BRANCH   4  22
ATOM     22  S   UNL     1       9.252  -2.529   2.677  0.00  0.00    -0.115 S 
BRANCH  22  23
ATOM     23  C   UNL     1       8.825  -0.769   2.564  0.00  0.00    +0.168 C 
BRANCH  23  24
ATOM     24  C   UNL     1      10.044   0.064   2.866  0.00  0.00    +0.234 C 
ATOM     25  O   UNL     1      10.997  -0.436   3.427  0.00  0.00    -0.274 OA
ATOM     26  N   UNL     1      10.076   1.365   2.515  0.00  0.00    -0.237 N 
ATOM     27  C   UNL     1      11.264   2.087   2.686  0.00  0.00    +0.055 A 
ATOM     28  C   UNL     1      12.068   1.860   3.791  0.00  0.00    +0.025 A 
ATOM     29  C   UNL     1      13.239   2.579   3.954  0.00  0.00    +0.002 A 
ATOM     30  C   UNL     1      13.615   3.526   3.019  0.00  0.00    +0.001 A 
ATOM     31  C   UNL     1      12.820   3.760   1.911  0.00  0.00    +0.017 A 
ATOM     32  C   UNL     1      11.649   3.045   1.744  0.00  0.00    +0.035 A 
ATOM     33  S   UNL     1      10.613   3.322   0.341  0.00  0.00    -0.086 S 
ATOM     34  C   UNL     1       9.015   2.898   0.961  0.00  0.00    +0.035 A 
ATOM     35  C   UNL     1       8.922   1.955   1.984  0.00  0.00    +0.055 A 
ATOM     36  C   UNL     1       7.672   1.611   2.473  0.00  0.00    +0.025 A 
ATOM     37  C   UNL     1       6.537   2.200   1.945  0.00  0.00    +0.002 A 
ATOM     38  C   UNL     1       6.639   3.132   0.929  0.00  0.00    +0.001 A 
ATOM     39  C   UNL     1       7.876   3.485   0.442  0.00  0.00    +0.017 A 
ENDBRANCH  23  24
ENDBRANCH  22  23
ENDBRANCH   4  22
TORSDOF 6
