REMARK  Name = ZINC40066453
REMARK  9 active torsions:
REMARK  status: ('A' for Active; 'I' for Inactive)
REMARK    1  A    between atoms: C_1  and  C_2
REMARK    2  A    between atoms: C_2  and  N_3
REMARK    3  A    between atoms: C_4  and  N_22
REMARK    4  A    between atoms: C_5  and  C_13
REMARK    5  A    between atoms: C_6  and  C_12
REMARK    6  A    between atoms: C_7  and  C_10
REMARK    7  A    between atoms: N_17  and  C_21
REMARK    8  A    between atoms: N_22  and  C_23
REMARK    9  A    between atoms: C_23  and  C_24
REMARK                            x       y       z     vdW  Elec       q    Type
REMARK                         _______ _______ _______ _____ _____    ______ ____
ROOT
ATOM      1  N   UNL     1       0.848  -0.705   1.068  0.00  0.00    -0.296 N 
ATOM      2  C   UNL     1       2.187  -0.875   0.922  0.00  0.00    +0.109 A 
ATOM      3  C   UNL     1       2.991  -1.193   2.030  0.00  0.00    +0.019 A 
ATOM      4  C   UNL     1       2.398  -1.335   3.296  0.00  0.00    -0.017 A 
ATOM      5  C   UNL     1       1.024  -1.156   3.419  0.00  0.00    +0.120 A 
ATOM      6  C   UNL     1       0.257  -0.831   2.270  0.00  0.00    +0.270 A 
ATOM      7  O   UNL     1      -0.946  -0.668   2.373  0.00  0.00    -0.266 OA
ATOM      8  C   UNL     1       3.237  -1.676   4.500  0.00  0.00    +0.046 C 
ENDROOT
BRANCH   3   9
ATOM      9  C   UNL     1       4.434  -1.375   1.866  0.00  0.00    +0.032 C 
ATOM     10  C   UNL     1       5.189  -0.379   1.327  0.00  0.00    +0.077 C 
ATOM     11  C   UNL     1       6.574  -0.375   0.979  0.00  0.00    +0.258 C 
ATOM     12  O   UNL     1       7.267  -1.362   1.152  0.00  0.00    -0.269 OA
ATOM     13  N   UNL     1       7.082   0.731   0.463  0.00  0.00    -0.258 N 
ATOM     14  C   UNL     1       6.312   1.825   0.270  0.00  0.00    +0.120 C 
ATOM     15  S   UNL     1       6.755   3.348  -0.376  0.00  0.00    -0.027 S 
ATOM     16  S   UNL     1       4.715   1.279   0.855  0.00  0.00    -0.061 S 
ATOM     17  C   UNL     1       8.499   0.771   0.094  0.00  0.00    +0.139 C 
ENDBRANCH   3   9
BRANCH   1  19
ATOM     18  C   UNL     1       0.052   1.139  -0.327  0.00  0.00    +0.027 C 
ATOM     19  C   UNL     1       0.033  -0.375  -0.103  0.00  0.00    +0.123 C 
ENDBRANCH   1  19
BRANCH   5  20
ATOM     20  C   UNL     1       0.389  -1.294   4.695  0.00  0.00    +0.105 C 
ATOM     21  N   UNL     1      -0.115  -1.404   5.707  0.00  0.00    -0.191 NA
ENDBRANCH   5  20
BRANCH   2  22
ATOM     22  N   UNL     1       2.757  -0.735  -0.309  0.00  0.00    -0.326 N 
ATOM     23  H   UNL     1       3.019   0.143  -0.626  0.00  0.00    +0.148 HD
BRANCH  22  24
ATOM     24  C   UNL     1       2.972  -1.913  -1.154  0.00  0.00    +0.138 C 
BRANCH  24  25
ATOM     25  C   UNL     1       3.713  -1.506  -2.403  0.00  0.00    -0.027 A 
ATOM     26  C   UNL     1       3.008  -1.110  -3.524  0.00  0.00    +0.009 A 
ATOM     27  C   UNL     1       3.683  -0.736  -4.671  0.00  0.00    +0.050 A 
ATOM     28  C   UNL     1       5.068  -0.758  -4.700  0.00  0.00    +0.166 A 
ATOM     29  C   UNL     1       5.777  -1.157  -3.570  0.00  0.00    +0.167 A 
ATOM     30  C   UNL     1       5.095  -1.525  -2.422  0.00  0.00    +0.054 A 
ATOM     31  O   UNL     1       7.112  -1.093  -3.848  0.00  0.00    -0.453 OA
ATOM     32  C   UNL     1       7.204  -1.044  -5.284  0.00  0.00    +0.466 C 
ATOM     33  O   UNL     1       5.958  -0.444  -5.686  0.00  0.00    -0.453 OA
ENDBRANCH  24  25
ENDBRANCH  22  24
ENDBRANCH   2  22
TORSDOF 6
