REMARK  Name = ZINC48294097
REMARK  6 active torsions:
REMARK  status: ('A' for Active; 'I' for Inactive)
REMARK    1  A    between atoms: C_1  and  C_2
REMARK    2  A    between atoms: C_2  and  C_3
REMARK    3  A    between atoms: C_2  and  C_4
REMARK    4  A    between atoms: C_4  and  C_5
REMARK    5  A    between atoms: C_7  and  C_11
REMARK    6  A    between atoms: N_17  and  C_20
REMARK                            x       y       z     vdW  Elec       q    Type
REMARK                         _______ _______ _______ _____ _____    ______ ____
ROOT
ATOM      1  C   UNL     1      -1.298  -5.221  -1.921  0.00  0.00    +0.161 A 
ATOM      2  N   UNL     1      -1.311  -6.548  -1.596  0.00  0.00    -0.334 N 
ATOM      3  H   UNL     1      -1.360  -6.923  -0.702  0.00  0.00    +0.168 HD
ATOM      4  C   UNL     1      -1.241  -7.256  -2.784  0.00  0.00    +0.105 A 
ATOM      5  C   UNL     1      -1.202  -8.520  -3.386  0.00  0.00    +0.162 A 
ATOM      6  N   UNL     1      -1.129  -8.366  -4.681  0.00  0.00    -0.175 NA
ATOM      7  N   UNL     1      -1.118  -6.998  -4.981  0.00  0.00    -0.242 N 
ATOM      8  C   UNL     1      -1.188  -6.307  -3.800  0.00  0.00    +0.177 A 
ATOM      9  N   UNL     1      -1.230  -5.095  -3.227  0.00  0.00    -0.207 NA
ENDROOT
BRANCH   1  12
ATOM     10  C   UNL     1      -1.416  -2.035  -0.119  0.00  0.00    +0.037 A 
ATOM     11  C   UNL     1      -1.349  -2.729  -1.275  0.00  0.00    +0.056 A 
ATOM     12  C   UNL     1      -1.357  -4.102  -0.956  0.00  0.00    +0.128 A 
ATOM     13  N   UNL     1      -1.425  -4.212   0.356  0.00  0.00    -0.171 NA
ATOM     14  N   UNL     1      -1.458  -2.922   0.899  0.00  0.00    -0.281 N 
ATOM     15  H   UNL     1      -1.505  -2.703   1.843  0.00  0.00    +0.189 HD
BRANCH  10  16
ATOM     16  C   UNL     1      -1.433  -0.534   0.013  0.00  0.00    +0.058 C 
BRANCH  16  18
ATOM     17  C   UNL     1      -0.019   1.526   0.010  0.00  0.00    +0.007 C 
ATOM     18  C   UNL     1       0.002  -0.004   0.002  0.00  0.00    -0.011 C 
ATOM     19  C   UNL     1       0.742  -0.511   1.242  0.00  0.00    +0.007 C 
ENDBRANCH  16  18
ENDBRANCH  10  16
ENDBRANCH   1  12
BRANCH   7  20
ATOM     20  C   UNL     1      -1.044  -6.409  -6.321  0.00  0.00    +0.110 C 
ATOM     21  C   UNL     1      -2.213  -6.921  -7.188  0.00  0.00    +0.027 C 
ATOM     22  C   UNL     1      -1.595  -7.086  -8.599  0.00  0.00    +0.002 C 
ATOM     23  C   UNL     1      -0.175  -7.622  -8.290  0.00  0.00    +0.002 C 
ATOM     24  C   UNL     1       0.251  -6.855  -7.021  0.00  0.00    +0.027 C 
ENDBRANCH   7  20
TORSDOF 4
