REMARK  Name = ZINC44164118
REMARK  7 active torsions:
REMARK  status: ('A' for Active; 'I' for Inactive)
REMARK    1  A    between atoms: C_1  and  C_2
REMARK    2  A    between atoms: C_5  and  C_8
REMARK    3  A    between atoms: C_13  and  C_16
REMARK    4  A    between atoms: N_18  and  C_19
REMARK    5  A    between atoms: C_19  and  C_20
REMARK    6  A    between atoms: C_20  and  C_21
REMARK    7  A    between atoms: C_24  and  O_27
REMARK                            x       y       z     vdW  Elec       q    Type
REMARK                         _______ _______ _______ _____ _____    ______ ____
ROOT
ATOM      1  C   UNL     1       0.093  -4.252  -0.018  0.00  0.00    -0.030 C 
ATOM      2  C   UNL     1      -1.333  -4.759   0.229  0.00  0.00    +0.058 C 
ATOM      3  S   UNL     1      -1.316  -6.577   0.138  0.00  0.00    -0.163 S 
ATOM      4  C   UNL     1       0.067  -7.017   1.236  0.00  0.00    +0.062 C 
ATOM      5  C   UNL     1       1.284  -6.173   0.839  0.00  0.00    +0.027 C 
ATOM      6  N   UNL     1       0.985  -4.752   1.031  0.00  0.00    +0.392 N 
ATOM      7  H   UNL     1       1.847  -4.227   1.009  0.00  0.00    -0.084 HD
ATOM      8  H   UNL     1       0.543  -4.623   1.929  0.00  0.00    -0.084 HD
ENDROOT
BRANCH   1  13
ATOM      9  C   UNL     1       0.110   1.526   0.036  0.00  0.00    +0.044 C 
ATOM     10  C   UNL     1       0.106   0.019   0.022  0.00  0.00    -0.050 A 
ATOM     11  C   UNL     1       0.102  -0.661  -1.182  0.00  0.00    +0.003 A 
ATOM     12  C   UNL     1       0.098  -2.043  -1.194  0.00  0.00    +0.002 A 
ATOM     13  C   UNL     1       0.099  -2.745  -0.004  0.00  0.00    -0.061 A 
ATOM     14  C   UNL     1       0.104  -2.065   1.200  0.00  0.00    +0.002 A 
ATOM     15  C   UNL     1       0.112  -0.683   1.212  0.00  0.00    +0.003 A 
ENDBRANCH   1  13
BRANCH   5  16
ATOM     16  C   UNL     1       1.617  -6.423  -0.609  0.00  0.00    +0.200 C 
ATOM     17  O   UNL     1       2.025  -5.517  -1.303  0.00  0.00    -0.278 OA
ATOM     18  N   UNL     1       1.460  -7.655  -1.133  0.00  0.00    -0.316 N 
ATOM     19  H   UNL     1       1.134  -8.381  -0.577  0.00  0.00    +0.149 HD
BRANCH  18  20
ATOM     20  C   UNL     1       1.784  -7.899  -2.541  0.00  0.00    +0.109 C 
BRANCH  20  21
ATOM     21  C   UNL     1       1.519  -9.368  -2.878  0.00  0.00    +0.054 C 
BRANCH  21  22
ATOM     22  C   UNL     1       1.852  -9.619  -4.326  0.00  0.00    -0.046 A 
ATOM     23  C   UNL     1       0.880  -9.455  -5.296  0.00  0.00    +0.007 A 
ATOM     24  C   UNL     1       1.182  -9.685  -6.624  0.00  0.00    +0.045 A 
ATOM     25  C   UNL     1       2.462 -10.079  -6.985  0.00  0.00    +0.117 A 
ATOM     26  C   UNL     1       3.436 -10.242  -6.010  0.00  0.00    +0.045 A 
ATOM     27  C   UNL     1       3.130 -10.006  -4.684  0.00  0.00    +0.007 A 
BRANCH  25  28
ATOM     28  O   UNL     1       2.762 -10.306  -8.290  0.00  0.00    -0.507 OA
ATOM     29  H   UNL     1       3.083  -9.526  -8.762  0.00  0.00    +0.292 HD
ENDBRANCH  25  28
ENDBRANCH  21  22
ENDBRANCH  20  21
ENDBRANCH  18  20
ENDBRANCH   5  16
TORSDOF 6
