REMARK  Name = ZINC12210406
REMARK  8 active torsions:
REMARK  status: ('A' for Active; 'I' for Inactive)
REMARK    1  A    between atoms: C_1  and  C_2
REMARK    2  A    between atoms: C_6  and  C_23
REMARK    3  A    between atoms: C_7  and  C_20
REMARK    4  A    between atoms: N_8  and  C_9
REMARK    5  A    between atoms: C_9  and  C_10
REMARK    6  A    between atoms: C_20  and  O_21
REMARK    7  A    between atoms: O_21  and  C_22
REMARK    8  A    between atoms: C_30  and  N_77
REMARK                            x       y       z     vdW  Elec       q    Type
REMARK                         _______ _______ _______ _____ _____    ______ ____
ROOT
ATOM      1  C   UNL     1       6.352   3.793  -0.592  0.00  0.00    +0.063 C 
ATOM      2  C   UNL     1       4.855   3.947  -0.516  0.00  0.00    +0.020 A 
ATOM      3  C   UNL     1       4.070   3.036  -1.125  0.00  0.00    +0.072 A 
ATOM      4  C   UNL     1       2.662   3.173  -1.051  0.00  0.00    +0.194 A 
ATOM      5  O   UNL     1       1.921   2.363  -1.586  0.00  0.00    -0.287 OA
ATOM      6  C   UNL     1       2.121   4.324  -0.313  0.00  0.00    +0.105 A 
ATOM      7  C   UNL     1       3.011   5.200   0.274  0.00  0.00    +0.061 A 
ATOM      8  N   UNL     1       4.335   4.999   0.164  0.00  0.00    -0.341 N 
ENDROOT
BRANCH   6   9
ATOM      9  C   UNL     1       0.667   4.534  -0.198  0.00  0.00    +0.252 C 
ATOM     10  O   UNL     1       0.081   5.197  -1.031  0.00  0.00    -0.270 OA
ATOM     11  N   UNL     1      -0.012   3.990   0.832  0.00  0.00    -0.301 N 
ATOM     12  C   UNL     1      -1.464   4.187   0.965  0.00  0.00    +0.089 C 
ATOM     13  C   UNL     1      -2.125   2.818   1.157  0.00  0.00    -0.059 C 
ATOM     14  C   UNL     1      -0.068   1.856   2.008  0.00  0.00    -0.059 C 
ATOM     15  C   UNL     1       0.678   3.186   1.851  0.00  0.00    +0.089 C 
ATOM     16  N   UNL     1      -1.488   2.140   2.307  0.00  0.00    +0.384 N 
ATOM     17  H   UNL     1      -1.539   2.757   3.127  0.00  0.00    -0.081 HD
BRANCH  16  18
ATOM     18  C   UNL     1      -2.202   0.882   2.609  0.00  0.00    -0.064 C 
ATOM     19  C   UNL     1      -1.503   0.175   3.777  0.00  0.00    -0.010 C 
ATOM     20  C   UNL     1      -2.395  -0.971   4.248  0.00  0.00    +0.034 C 
ATOM     21  C   UNL     1      -2.805  -1.836   3.085  0.00  0.00    -0.044 A 
ATOM     22  C   UNL     1      -3.294  -3.106   3.365  0.00  0.00    +0.004 A 
ATOM     23  C   UNL     1      -3.692  -3.944   2.344  0.00  0.00    +0.000 A 
ATOM     24  C   UNL     1      -3.604  -3.518   1.032  0.00  0.00    +0.000 A 
ATOM     25  C   UNL     1      -3.117  -2.258   0.752  0.00  0.00    +0.004 A 
ATOM     26  C   UNL     1      -2.714  -1.413   1.778  0.00  0.00    -0.046 A 
ATOM     27  C   UNL     1      -2.188  -0.053   1.401  0.00  0.00    +0.020 C 
ENDBRANCH  16  18
ENDBRANCH   6   9
BRANCH   8  28
ATOM     28  C   UNL     1       5.249   5.950   0.800  0.00  0.00    +0.157 C 
BRANCH  28  29
ATOM     29  C   UNL     1       5.683   5.410   2.139  0.00  0.00    -0.020 A 
ATOM     30  C   UNL     1       4.776   5.259   3.142  0.00  0.00    +0.006 A 
ATOM     31  C   UNL     1       5.157   4.755   4.384  0.00  0.00    +0.001 A 
ATOM     32  C   UNL     1       6.451   4.411   4.634  0.00  0.00    +0.008 A 
ATOM     33  C   UNL     1       7.417   4.559   3.625  0.00  0.00    -0.018 A 
ATOM     34  C   UNL     1       7.028   5.066   2.359  0.00  0.00    -0.013 A 
ATOM     35  C   UNL     1       7.994   5.215   1.350  0.00  0.00    +0.009 A 
ATOM     36  C   UNL     1       9.287   4.872   1.600  0.00  0.00    +0.001 A 
ATOM     37  C   UNL     1       9.670   4.374   2.844  0.00  0.00    +0.001 A 
ATOM     38  C   UNL     1       8.762   4.216   3.845  0.00  0.00    +0.008 A 
ENDBRANCH  28  29
ENDBRANCH   8  28
BRANCH   7  39
ATOM     39  C   UNL     1       2.496   6.389   1.044  0.00  0.00    +0.213 C 
BRANCH  39  40
ATOM     40  O   UNL     1       2.316   7.492   0.153  0.00  0.00    -0.377 OA
ATOM     41  C   UNL     1       1.828   8.677   0.785  0.00  0.00    +0.194 C 
ENDBRANCH  39  40
ENDBRANCH   7  39
TORSDOF 6
