REMARK  Name = ZINC35707112
REMARK  7 active torsions:
REMARK  status: ('A' for Active; 'I' for Inactive)
REMARK    1  A    between atoms: C_1  and  C_2
REMARK    2  A    between atoms: C_2  and  C_3
REMARK    3  A    between atoms: C_2  and  N_4
REMARK    4  A    between atoms: N_4  and  C_5
REMARK    5  A    between atoms: C_5  and  C_6
REMARK    6  A    between atoms: C_20  and  C_22
REMARK    7  A    between atoms: N_29  and  C_30
REMARK                            x       y       z     vdW  Elec       q    Type
REMARK                         _______ _______ _______ _____ _____    ______ ____
ROOT
ATOM      1  C   UNL     1      -0.018  -3.265   1.052  0.00  0.00    +0.238 C 
ATOM      2  O   UNL     1       0.470  -2.732   2.026  0.00  0.00    -0.273 OA
ATOM      3  N   UNL     1       0.205  -4.573   0.816  0.00  0.00    -0.252 N 
ATOM      4  C   UNL     1       0.903  -5.344   1.755  0.00  0.00    +0.061 A 
ATOM      5  C   UNL     1       0.850  -5.029   3.104  0.00  0.00    +0.025 A 
ATOM      6  C   UNL     1       1.552  -5.792   4.019  0.00  0.00    +0.002 A 
ATOM      7  C   UNL     1       2.310  -6.869   3.597  0.00  0.00    +0.002 A 
ATOM      8  C   UNL     1       2.367  -7.195   2.253  0.00  0.00    +0.028 A 
ATOM      9  C   UNL     1       1.664  -6.441   1.335  0.00  0.00    +0.068 A 
ATOM     10  N   UNL     1       1.668  -6.747  -0.034  0.00  0.00    -0.316 N 
ATOM     11  C   UNL     1       2.469  -7.581  -0.739  0.00  0.00    +0.092 A 
ATOM     12  C   UNL     1       2.087  -7.536  -2.035  0.00  0.00    +0.020 A 
ATOM     13  C   UNL     1       1.004  -6.635  -2.129  0.00  0.00    +0.025 A 
ATOM     14  C   UNL     1       0.764  -6.169  -0.898  0.00  0.00    +0.052 A 
ATOM     15  C   UNL     1      -0.289  -5.191  -0.425  0.00  0.00    +0.194 C 
ENDROOT
BRANCH  15  16
ATOM     16  C   UNL     1      -1.582  -5.916  -0.155  0.00  0.00    +0.131 A 
ATOM     17  C   UNL     1      -2.654  -5.942  -0.968  0.00  0.00    +0.047 A 
ATOM     18  C   UNL     1      -3.634  -6.734  -0.327  0.00  0.00    +0.041 A 
ATOM     19  C   UNL     1      -3.103  -7.144   0.839  0.00  0.00    +0.195 A 
ATOM     20  O   UNL     1      -1.858  -6.650   0.935  0.00  0.00    -0.466 OA
ENDBRANCH  15  16
BRANCH   1  21
ATOM     21  C   UNL     1      -0.876  -2.464   0.106  0.00  0.00    +0.205 C 
BRANCH  21  22
ATOM     22  N   UNL     1      -0.866  -1.056   0.510  0.00  0.00    -0.274 N 
ATOM     23  C   UNL     1      -1.789  -0.597   1.378  0.00  0.00    +0.307 C 
ATOM     24  O   UNL     1      -2.686  -1.327   1.754  0.00  0.00    -0.252 OA
ATOM     25  N   UNL     1      -1.719   0.671   1.828  0.00  0.00    -0.267 N 
ATOM     26  H   UNL     1      -1.053   1.277   1.469  0.00  0.00    +0.156 HD
BRANCH  25  27
ATOM     27  C   UNL     1      -2.609   1.114   2.816  0.00  0.00    +0.072 A 
ATOM     28  C   UNL     1      -3.975   0.918   2.659  0.00  0.00    +0.064 A 
ATOM     29  C   UNL     1      -4.851   1.356   3.636  0.00  0.00    +0.022 A 
ATOM     30  C   UNL     1      -4.367   1.988   4.767  0.00  0.00    +0.003 A 
ATOM     31  C   UNL     1      -3.008   2.185   4.925  0.00  0.00    +0.022 A 
ATOM     32  C   UNL     1      -2.127   1.744   3.955  0.00  0.00    +0.064 A 
ATOM     33 CL   UNL     1      -0.419   1.985   4.159  0.00  0.00    -0.082 Cl
ATOM     34 CL   UNL     1      -4.583   0.125   1.240  0.00  0.00    -0.082 Cl
ENDBRANCH  25  27
BRANCH  22  36
ATOM     35  C   UNL     1       1.542  -0.718   0.244  0.00  0.00    +0.028 C 
ATOM     36  C   UNL     1       0.149  -0.147  -0.029  0.00  0.00    +0.072 C 
ATOM     37  C   UNL     1      -0.053   0.006  -1.537  0.00  0.00    +0.028 C 
ENDBRANCH  22  36
ENDBRANCH  21  22
ENDBRANCH   1  21
TORSDOF 5
