REMARK  Name = ZINC09882056
REMARK  7 active torsions:
REMARK  status: ('A' for Active; 'I' for Inactive)
REMARK    1  A    between atoms: C_1  and  C_2
REMARK    2  A    between atoms: C_2  and  C_4
REMARK    3  A    between atoms: C_2  and  S_16
REMARK    4  A    between atoms: S_16  and  C_17
REMARK    5  A    between atoms: C_20  and  C_29
REMARK    6  A    between atoms: N_21  and  C_22
REMARK    7  A    between atoms: C_29  and  N_58
REMARK                            x       y       z     vdW  Elec       q    Type
REMARK                         _______ _______ _______ _____ _____    ______ ____
ROOT
ATOM      1  C   UNL     1      -0.906  -6.625  -0.758  0.00  0.00    +0.197 A 
ATOM      2  N   UNL     1       0.222  -7.161  -0.352  0.00  0.00    -0.122 NA
ATOM      3  N   UNL     1       0.184  -8.435  -0.517  0.00  0.00    -0.135 NA
ATOM      4  C   UNL     1      -0.960  -8.788  -1.033  0.00  0.00    +0.122 A 
ATOM      5  N   UNL     1      -1.699  -7.647  -1.200  0.00  0.00    -0.276 N 
ENDROOT
BRANCH   5   6
ATOM      6  C   UNL     1      -2.999  -7.548  -1.720  0.00  0.00    +0.050 A 
ATOM      7  C   UNL     1      -4.064  -8.123  -1.042  0.00  0.00    +0.029 A 
ATOM      8  C   UNL     1      -5.343  -8.021  -1.552  0.00  0.00    +0.040 A 
ATOM      9  C   UNL     1      -5.562  -7.354  -2.746  0.00  0.00    +0.124 A 
ATOM     10  C   UNL     1      -4.499  -6.784  -3.427  0.00  0.00    +0.040 A 
ATOM     11  C   UNL     1      -3.219  -6.880  -2.917  0.00  0.00    +0.029 A 
ATOM     12  F   UNL     1      -6.813  -7.259  -3.247  0.00  0.00    -0.205 F 
ENDBRANCH   5   6
BRANCH   1  13
ATOM     13  S   UNL     1      -1.321  -4.912  -0.730  0.00  0.00    -0.075 S 
BRANCH  13  15
ATOM     14  C   UNL     1       0.365  -4.742   1.413  0.00  0.00    +0.027 C 
ATOM     15  C   UNL     1       0.198  -4.232  -0.020  0.00  0.00    +0.117 C 
BRANCH  15  16
ATOM     16  C   UNL     1       0.119  -2.727  -0.012  0.00  0.00    +0.124 A 
ATOM     17  N   UNL     1      -1.110  -2.147   0.003  0.00  0.00    -0.309 N 
ATOM     18  H   UNL     1      -1.904  -2.703   0.009  0.00  0.00    +0.170 HD
ATOM     19  C   UNL     1      -1.235  -0.799   0.011  0.00  0.00    +0.259 A 
ATOM     20  O   UNL     1      -2.329  -0.266   0.024  0.00  0.00    -0.267 OA
ATOM     21  C   UNL     1       0.002  -0.004   0.002  0.00  0.00    +0.065 A 
ATOM     22  C   UNL     1      -0.017   1.389   0.010  0.00  0.00    +0.015 A 
ATOM     23  C   UNL     1       1.173   2.084   0.002  0.00  0.00    +0.001 A 
ATOM     24  C   UNL     1       2.386   1.408  -0.014  0.00  0.00    +0.002 A 
ATOM     25  C   UNL     1       2.426   0.032  -0.021  0.00  0.00    +0.028 A 
ATOM     26  C   UNL     1       1.234  -0.695  -0.013  0.00  0.00    +0.078 A 
ATOM     27  N   UNL     1       1.227  -2.051  -0.020  0.00  0.00    -0.233 NA
ENDBRANCH  15  16
ENDBRANCH  13  15
ENDBRANCH   1  13
BRANCH   4  28
ATOM     28  C   UNL     1      -1.391 -10.190  -1.375  0.00  0.00    -0.001 C 
BRANCH  28  34
ATOM     29  C   UNL     1      -1.117 -10.975   0.899  0.00  0.00    -0.078 C 
ATOM     30  C   UNL     1      -1.875 -11.469   2.133  0.00  0.00    -0.019 C 
ATOM     31  C   UNL     1      -2.566 -12.795   1.805  0.00  0.00    -0.004 C 
ATOM     32  C   UNL     1      -3.504 -12.591   0.612  0.00  0.00    -0.019 C 
ATOM     33  C   UNL     1      -2.699 -12.065  -0.579  0.00  0.00    -0.078 C 
ATOM     34  N   UNL     1      -2.079 -10.775  -0.206  0.00  0.00    +0.384 N 
ATOM     35  H   UNL     1      -2.814 -10.130   0.105  0.00  0.00    -0.081 HD
ENDBRANCH  28  34
ENDBRANCH   4  28
TORSDOF 6
