REMARK  Name = ZINC39527742
REMARK  9 active torsions:
REMARK  status: ('A' for Active; 'I' for Inactive)
REMARK    1  A    between atoms: C_1  and  C_2
REMARK    2  A    between atoms: C_2  and  C_3
REMARK    3  A    between atoms: C_2  and  S_4
REMARK    4  A    between atoms: S_4  and  N_7
REMARK    5  A    between atoms: C_8  and  C_30
REMARK    6  A    between atoms: C_17  and  S_20
REMARK    7  A    between atoms: S_20  and  O_23
REMARK    8  A    between atoms: O_23  and  C_24
REMARK    9  A    between atoms: C_35  and  O_36
REMARK                            x       y       z     vdW  Elec       q    Type
REMARK                         _______ _______ _______ _____ _____    ______ ____
ROOT
ATOM      1  N   UNL     1      -2.550  -0.673  -1.271  0.00  0.00    -0.167 NA
ATOM      2  C   UNL     1      -2.306   0.771  -1.394  0.00  0.00    +0.113 C 
ATOM      3  C   UNL     1      -1.165   0.994  -2.392  0.00  0.00    +0.025 C 
ATOM      4  C   UNL     1      -1.505   0.300  -3.713  0.00  0.00    +0.004 C 
ATOM      5  C   UNL     1      -1.652  -1.205  -3.478  0.00  0.00    +0.024 C 
ATOM      6  C   UNL     1      -2.789  -1.454  -2.491  0.00  0.00    +0.045 C 
ATOM      7  C   UNL     1      -2.846  -2.942  -2.141  0.00  0.00    +0.024 C 
ATOM      8  C   UNL     1      -3.987  -3.189  -1.152  0.00  0.00    +0.004 C 
ATOM      9  C   UNL     1      -5.313  -2.760  -1.784  0.00  0.00    +0.030 C 
ATOM     10  C   UNL     1      -5.254  -1.271  -2.131  0.00  0.00    +0.173 C 
ATOM     11  C   UNL     1      -4.114  -1.023  -3.121  0.00  0.00    +0.053 C 
ENDROOT
BRANCH   2  12
ATOM     12  C   UNL     1      -1.923   1.335  -0.050  0.00  0.00    +0.013 A 
ATOM     13  C   UNL     1      -0.625   1.210   0.408  0.00  0.00    +0.009 A 
ATOM     14  C   UNL     1      -0.274   1.726   1.641  0.00  0.00    +0.001 A 
ATOM     15  C   UNL     1      -1.219   2.370   2.419  0.00  0.00    +0.004 A 
ATOM     16  C   UNL     1      -2.517   2.498   1.965  0.00  0.00    +0.046 A 
ATOM     17  C   UNL     1      -2.872   1.985   0.726  0.00  0.00    +0.122 A 
BRANCH  17  18
ATOM     18  O   UNL     1      -4.147   2.114   0.275  0.00  0.00    -0.506 OA
ATOM     19  H   UNL     1      -4.729   1.384   0.526  0.00  0.00    +0.292 HD
ENDBRANCH  17  18
ENDBRANCH   2  12
BRANCH   1  20
ATOM     20  S   UNL     1      -2.549  -1.406   0.214  0.00  0.00    +0.035 S 
ATOM     21  O   UNL     1      -1.501  -0.769   0.931  0.00  0.00    -0.158 OA
ATOM     22  O   UNL     1      -2.493  -2.797  -0.069  0.00  0.00    -0.158 OA
BRANCH  20  24
ATOM     23  C   UNL     1      -5.162  -2.092   0.643  0.00  0.00    +0.033 C 
ATOM     24  C   UNL     1      -4.154  -0.981   0.945  0.00  0.00    +0.142 C 
ATOM     25  C   UNL     1      -4.001  -0.829   2.459  0.00  0.00    +0.033 C 
ENDBRANCH  20  24
ENDBRANCH   1  20
BRANCH  10  26
ATOM     26  S   UNL     1      -6.826  -0.762  -2.879  0.00  0.00    +0.124 S 
ATOM     27  O   UNL     1      -6.794   0.624  -3.191  0.00  0.00    -0.136 OA
ATOM     28  O   UNL     1      -7.237  -1.714  -3.851  0.00  0.00    -0.136 OA
BRANCH  26  29
ATOM     29  O   UNL     1      -7.850  -0.884  -1.760  0.00  0.00    -0.346 OA
BRANCH  29  30
ATOM     30  C   UNL     1      -7.946   0.222  -0.976  0.00  0.00    +0.156 A 
ATOM     31  C   UNL     1      -7.083   0.391   0.097  0.00  0.00    +0.048 A 
ATOM     32  C   UNL     1      -7.183   1.516   0.892  0.00  0.00    +0.004 A 
ATOM     33  C   UNL     1      -8.142   2.474   0.620  0.00  0.00    +0.000 A 
ATOM     34  C   UNL     1      -9.003   2.308  -0.449  0.00  0.00    +0.004 A 
ATOM     35  C   UNL     1      -8.904   1.188  -1.251  0.00  0.00    +0.048 A 
ENDBRANCH  29  30
ENDBRANCH  26  29
ENDBRANCH  10  26
TORSDOF 7
