REMARK  Name = ZINC12558348
REMARK  8 active torsions:
REMARK  status: ('A' for Active; 'I' for Inactive)
REMARK    1  A    between atoms: C_4  and  C_7
REMARK    2  A    between atoms: N_9  and  C_10
REMARK    3  A    between atoms: C_10  and  C_29
REMARK    4  A    between atoms: C_11  and  C_12
REMARK    5  A    between atoms: N_14  and  C_23
REMARK    6  A    between atoms: C_16  and  C_17
REMARK    7  A    between atoms: N_31  and  N_32
REMARK    8  A    between atoms: N_32  and  C_33
REMARK                            x       y       z     vdW  Elec       q    Type
REMARK                         _______ _______ _______ _____ _____    ______ ____
ROOT
ATOM      1  C   UNL     1       4.164  -3.224  -2.076  0.00  0.00    +0.098 C 
ATOM      2  C   UNL     1       3.204  -2.356  -1.675  0.00  0.00    +0.040 C 
ENDROOT
BRANCH   2   3
ATOM      3  C   UNL     1       1.874  -2.853  -1.300  0.00  0.00    +0.023 A 
ATOM      4  C   UNL     1       1.348  -4.100  -1.579  0.00  0.00    +0.123 A 
ATOM      5  N   UNL     1       0.104  -4.146  -1.064  0.00  0.00    -0.239 N 
ATOM      6  N   UNL     1      -0.191  -2.932  -0.439  0.00  0.00    -0.166 NA
ATOM      7  C   UNL     1       0.842  -2.127  -0.552  0.00  0.00    +0.102 A 
BRANCH   7   8
ATOM      8  C   UNL     1       0.943  -0.744  -0.028  0.00  0.00    +0.021 A 
ATOM      9  C   UNL     1      -0.178   0.092  -0.007  0.00  0.00    +0.013 A 
ATOM     10  C   UNL     1      -0.031   1.375   0.491  0.00  0.00    +0.020 A 
ATOM     11  C   UNL     1       1.208   1.785   0.950  0.00  0.00    +0.111 A 
ATOM     12  N   UNL     1       2.248   0.974   0.917  0.00  0.00    -0.263 NA
ATOM     13  C   UNL     1       2.157  -0.255   0.452  0.00  0.00    +0.120 A 
ENDBRANCH   7   8
BRANCH   5  14
ATOM     14  C   UNL     1      -0.762  -5.244  -1.144  0.00  0.00    +0.065 A 
ATOM     15  C   UNL     1      -0.448  -6.320  -1.964  0.00  0.00    +0.028 A 
ATOM     16  C   UNL     1      -1.302  -7.403  -2.037  0.00  0.00    +0.002 A 
ATOM     17  C   UNL     1      -2.474  -7.413  -1.303  0.00  0.00    +0.000 A 
ATOM     18  C   UNL     1      -2.792  -6.340  -0.489  0.00  0.00    +0.002 A 
ATOM     19  C   UNL     1      -1.940  -5.257  -0.408  0.00  0.00    +0.028 A 
ENDBRANCH   5  14
ENDBRANCH   2   3
BRANCH   1  22
ATOM     20  C   UNL     1       4.000  -5.349  -3.136  0.00  0.00    +0.248 C 
ATOM     21  O   UNL     1       4.365  -4.844  -4.180  0.00  0.00    -0.270 OA
ATOM     22  N   UNL     1       3.930  -4.604  -2.015  0.00  0.00    -0.277 N 
ATOM     23  H   UNL     1       3.718  -5.023  -1.167  0.00  0.00    +0.155 HD
BRANCH  20  27
ATOM     24  C   UNL     1       2.943  -9.461  -3.021  0.00  0.00    +0.000 A 
ATOM     25  C   UNL     1       3.247  -8.862  -4.231  0.00  0.00    +0.001 A 
ATOM     26  C   UNL     1       3.591  -7.527  -4.275  0.00  0.00    +0.013 A 
ATOM     27  C   UNL     1       3.632  -6.780  -3.096  0.00  0.00    +0.037 A 
ATOM     28  C   UNL     1       3.330  -7.393  -1.879  0.00  0.00    +0.013 A 
ATOM     29  C   UNL     1       2.982  -8.727  -1.849  0.00  0.00    +0.001 A 
ENDBRANCH  20  27
ENDBRANCH   1  22
BRANCH   1  30
ATOM     30  C   UNL     1       5.447  -2.719  -2.575  0.00  0.00    +0.274 C 
ATOM     31  O   UNL     1       5.650  -1.520  -2.628  0.00  0.00    -0.267 OA
ATOM     32  N   UNL     1       6.402  -3.582  -2.974  0.00  0.00    -0.231 N 
ATOM     33  H   UNL     1       6.240  -4.537  -2.932  0.00  0.00    +0.173 HD
BRANCH  32  34
ATOM     34  N   UNL     1       7.628  -3.099  -3.451  0.00  0.00    -0.264 N 
ATOM     35  H   UNL     1       7.789  -2.144  -3.493  0.00  0.00    +0.170 HD
BRANCH  34  36
ATOM     36  C   UNL     1       8.617  -3.994  -3.865  0.00  0.00    +0.044 A 
ATOM     37  C   UNL     1       8.389  -5.363  -3.800  0.00  0.00    +0.024 A 
ATOM     38  C   UNL     1       9.368  -6.245  -4.215  0.00  0.00    +0.002 A 
ATOM     39  C   UNL     1      10.577  -5.766  -4.684  0.00  0.00    +0.000 A 
ATOM     40  C   UNL     1      10.809  -4.404  -4.746  0.00  0.00    +0.002 A 
ATOM     41  C   UNL     1       9.833  -3.517  -4.337  0.00  0.00    +0.024 A 
ENDBRANCH  34  36
ENDBRANCH  32  34
ENDBRANCH   1  30
TORSDOF 8
