REMARK  Name = ZINC58174282
REMARK  8 active torsions:
REMARK  status: ('A' for Active; 'I' for Inactive)
REMARK    1  A    between atoms: C_1  and  C_2
REMARK    2  A    between atoms: C_15  and  C_17
REMARK    3  A    between atoms: C_17  and  N_18
REMARK    4  A    between atoms: N_18  and  C_19
REMARK    5  A    between atoms: N_18  and  C_32
REMARK    6  A    between atoms: C_19  and  C_20
REMARK    7  A    between atoms: C_32  and  C_33
REMARK    8  A    between atoms: C_32  and  C_34
REMARK                            x       y       z     vdW  Elec       q    Type
REMARK                         _______ _______ _______ _____ _____    ______ ____
ROOT
ATOM      1  C   UNL     1       0.464  -1.220   3.067  0.00  0.00    +0.181 C 
ENDROOT
BRANCH   1  15
ATOM      2  C   UNL     1      -1.511   1.738   0.100  0.00  0.00    +0.029 C 
ATOM      3  C   UNL     1      -1.301   0.227  -0.011  0.00  0.00    +0.087 C 
ATOM      4  C   UNL     1      -0.865  -0.122  -1.435  0.00  0.00    +0.118 C 
ATOM      5  C   UNL     1      -0.278  -1.508  -1.472  0.00  0.00    +0.219 C 
ATOM      6  O   UNL     1      -0.925  -2.425  -1.933  0.00  0.00    -0.275 OA
ATOM      7  N   UNL     1       0.965  -1.738  -0.996  0.00  0.00    -0.284 N 
ATOM      8  C   UNL     1       1.687  -0.713  -0.374  0.00  0.00    +0.055 A 
ATOM      9  C   UNL     1       2.997  -0.444  -0.738  0.00  0.00    +0.025 A 
ATOM     10  C   UNL     1       3.698   0.559  -0.093  0.00  0.00    +0.002 A 
ATOM     11  C   UNL     1       3.097   1.292   0.914  0.00  0.00    +0.002 A 
ATOM     12  C   UNL     1       1.787   1.037   1.276  0.00  0.00    +0.025 A 
ATOM     13  C   UNL     1       1.075   0.042   0.627  0.00  0.00    +0.058 A 
ATOM     14  N   UNL     1      -0.270  -0.193   0.940  0.00  0.00    -0.265 N 
ATOM     15  C   UNL     1      -0.608  -0.794   2.098  0.00  0.00    +0.234 C 
ATOM     16  O   UNL     1      -1.776  -0.992   2.360  0.00  0.00    -0.274 OA
ATOM     17  H   UNL     1       1.360  -2.619  -1.085  0.00  0.00    +0.155 HD
ENDBRANCH   1  15
BRANCH   1  18
ATOM     18  N   UNL     1      -0.158  -1.845   4.242  0.00  0.00    -0.284 NA
BRANCH  18  19
ATOM     19  C   UNL     1      -0.948  -0.868   5.002  0.00  0.00    +0.051 C 
ATOM     20  C   UNL     1      -1.798  -1.599   6.043  0.00  0.00    +0.024 C 
ATOM     21  C   UNL     1      -0.007   0.110   5.708  0.00  0.00    +0.024 C 
ENDBRANCH  18  19
BRANCH  18  22
ATOM     22  C   UNL     1       0.853  -2.484   5.095  0.00  0.00    +0.159 C 
BRANCH  22  23
ATOM     23  C   UNL     1       1.288  -3.785   4.472  0.00  0.00    +0.125 A 
ATOM     24  N   UNL     1       2.167  -4.564   5.154  0.00  0.00    -0.309 N 
ATOM     25  H   UNL     1       2.496  -4.274   6.019  0.00  0.00    +0.170 HD
ATOM     26  C   UNL     1       2.589  -5.742   4.637  0.00  0.00    +0.259 A 
ATOM     27  O   UNL     1       3.376  -6.450   5.238  0.00  0.00    -0.267 OA
ATOM     28  C   UNL     1       2.059  -6.133   3.322  0.00  0.00    +0.065 A 
ATOM     29  C   UNL     1       2.429  -7.325   2.703  0.00  0.00    +0.015 A 
ATOM     30  C   UNL     1       1.902  -7.641   1.470  0.00  0.00    +0.001 A 
ATOM     31  C   UNL     1       1.008  -6.784   0.843  0.00  0.00    +0.002 A 
ATOM     32  C   UNL     1       0.629  -5.601   1.438  0.00  0.00    +0.028 A 
ATOM     33  C   UNL     1       1.149  -5.258   2.688  0.00  0.00    +0.078 A 
ATOM     34  N   UNL     1       0.800  -4.106   3.312  0.00  0.00    -0.232 NA
ENDBRANCH  22  23
ENDBRANCH  18  22
ENDBRANCH   1  18
TORSDOF 5
