REMARK  Name = ZINC59310668
REMARK  8 active torsions:
REMARK  status: ('A' for Active; 'I' for Inactive)
REMARK    1  A    between atoms: C_1  and  C_2
REMARK    2  A    between atoms: C_2  and  C_24
REMARK    3  A    between atoms: N_3  and  N_4
REMARK    4  A    between atoms: C_7  and  S_10
REMARK    5  A    between atoms: S_10  and  C_11
REMARK    6  A    between atoms: C_11  and  C_12
REMARK    7  A    between atoms: N_14  and  C_15
REMARK    8  A    between atoms: C_20  and  N_21
REMARK                            x       y       z     vdW  Elec       q    Type
REMARK                         _______ _______ _______ _____ _____    ______ ____
ROOT
ATOM      1  N   UNL     1       0.114   0.070   2.348  0.00  0.00    -0.205 N 
ATOM      2  C   UNL     1       0.124  -0.632   3.540  0.00  0.00    +0.232 A 
ATOM      3  N   UNL     1       0.130  -1.942   3.666  0.00  0.00    -0.186 NA
ATOM      4  C   UNL     1       0.140  -2.269   4.963  0.00  0.00    +0.211 A 
ATOM      5  N   UNL     1       0.139  -1.170   5.679  0.00  0.00    -0.144 NA
ATOM      6  N   UNL     1       0.135  -0.094   4.777  0.00  0.00    -0.245 N 
ATOM      7  H   UNL     1       0.114   1.040   2.356  0.00  0.00    +0.177 HD
ATOM      8  H   UNL     1       0.137   0.850   5.000  0.00  0.00    +0.192 HD
ENDROOT
BRANCH   1  11
ATOM      9  C   UNL     1       0.094   1.536   0.038  0.00  0.00    +0.063 C 
ATOM     10  C   UNL     1       0.094   0.029   0.025  0.00  0.00    +0.040 C 
ATOM     11  N   UNL     1       0.103  -0.620   1.128  0.00  0.00    -0.189 NA
BRANCH  10  12
ATOM     12  C   UNL     1       0.082  -0.713  -1.286  0.00  0.00    +0.011 C 
ATOM     13  C   UNL     1       1.325  -0.337  -2.096  0.00  0.00    +0.016 C 
ATOM     14  C   UNL     1       1.313  -1.091  -3.428  0.00  0.00    -0.010 C 
ATOM     15  C   UNL     1       1.315  -2.597  -3.161  0.00  0.00    +0.007 C 
ATOM     16  C   UNL     1       0.073  -2.973  -2.351  0.00  0.00    -0.010 C 
ATOM     17  C   UNL     1       0.084  -2.220  -1.020  0.00  0.00    +0.016 C 
ATOM     18  C   UNL     1      -1.183  -2.597  -3.139  0.00  0.00    +0.007 C 
ATOM     19  C   UNL     1      -1.185  -1.090  -3.406  0.00  0.00    -0.010 C 
ATOM     20  C   UNL     1       0.057  -0.714  -4.216  0.00  0.00    +0.007 C 
ATOM     21  C   UNL     1      -1.174  -0.337  -2.075  0.00  0.00    +0.016 C 
ENDBRANCH  10  12
ENDBRANCH   1  11
BRANCH   4  22
ATOM     22  S   UNL     1       0.150  -3.910   5.606  0.00  0.00    -0.075 S 
BRANCH  22  23
ATOM     23  C   UNL     1       0.160  -3.676   7.404  0.00  0.00    +0.173 C 
BRANCH  23  24
ATOM     24  C   UNL     1       0.170  -5.021   8.085  0.00  0.00    +0.228 C 
ATOM     25  O   UNL     1       0.170  -6.036   7.422  0.00  0.00    -0.275 OA
ATOM     26  N   UNL     1       0.178  -5.095   9.431  0.00  0.00    -0.283 N 
ATOM     27  H   UNL     1       0.243  -4.285   9.961  0.00  0.00    +0.155 HD
BRANCH  26  28
ATOM     28  C   UNL     1       0.092  -6.340  10.064  0.00  0.00    +0.064 A 
ATOM     29  C   UNL     1       0.700  -7.452   9.496  0.00  0.00    +0.025 A 
ATOM     30  C   UNL     1       0.613  -8.680  10.123  0.00  0.00    +0.002 A 
ATOM     31  C   UNL     1      -0.077  -8.802  11.315  0.00  0.00    +0.002 A 
ATOM     32  C   UNL     1      -0.683  -7.696  11.883  0.00  0.00    +0.034 A 
ATOM     33  C   UNL     1      -0.596  -6.464  11.264  0.00  0.00    +0.147 A 
BRANCH  33  34
ATOM     34  N   UNL     1      -1.239  -5.280  11.876  0.00  0.00    +0.058 N 
ATOM     35  O   UNL     1      -1.753  -5.367  12.966  0.00  0.00    -0.126 OA
ATOM     36  O   UNL     1      -1.250  -4.225  11.285  0.00  0.00    -0.126 OA
ENDBRANCH  33  34
ENDBRANCH  26  28
ENDBRANCH  23  24
ENDBRANCH  22  23
ENDBRANCH   4  22
TORSDOF 7
