REMARK  Name = ZINC39034816
REMARK  7 active torsions:
REMARK  status: ('A' for Active; 'I' for Inactive)
REMARK    1  A    between atoms: C_1  and  S_2
REMARK    2  A    between atoms: S_2  and  C_3
REMARK    3  A    between atoms: C_3  and  C_4
REMARK    4  A    between atoms: C_4  and  C_5
REMARK    5  A    between atoms: C_5  and  C_7
REMARK    6  A    between atoms: C_5  and  N_24
REMARK    7  A    between atoms: C_25  and  C_27
REMARK                            x       y       z     vdW  Elec       q    Type
REMARK                         _______ _______ _______ _____ _____    ______ ____
ROOT
ATOM      1  C   UNL     1      -3.363  -2.381   0.022  0.00  0.00    +0.160 C 
ENDROOT
BRANCH   1   2
ATOM      2  C   UNL     1      -3.480  -3.884   0.014  0.00  0.00    +0.236 C 
ATOM      3  O   UNL     1      -3.625  -4.476  -1.034  0.00  0.00    -0.274 OA
ATOM      4  N   UNL     1      -3.422  -4.570   1.173  0.00  0.00    -0.300 N 
ATOM      5  C   UNL     1      -3.356  -3.863   2.459  0.00  0.00    +0.106 C 
ATOM      6  C   UNL     1      -2.146  -4.380   3.244  0.00  0.00    +0.009 C 
ATOM      7  C   UNL     1      -2.233  -5.902   3.365  0.00  0.00    -0.037 C 
ATOM      8  C   UNL     1      -2.215  -6.534   1.972  0.00  0.00    +0.009 C 
ATOM      9  C   UNL     1      -3.431  -6.039   1.174  0.00  0.00    +0.106 C 
ATOM     10  C   UNL     1      -1.049  -6.421   4.182  0.00  0.00    +0.140 C 
ATOM     11  C   UNL     1      -1.231  -5.843   5.582  0.00  0.00    +0.042 C 
ATOM     12  N   UNL     1      -0.157  -5.207   5.845  0.00  0.00    -0.243 NA
ATOM     13  C   UNL     1       0.689  -5.194   4.785  0.00  0.00    +0.216 C 
ATOM     14  N   UNL     1       0.234  -5.866   3.749  0.00  0.00    -0.264 NA
ATOM     15  C   UNL     1      -2.537  -5.975   6.324  0.00  0.00    +0.034 C 
ATOM     16  C   UNL     1      -3.634  -5.554   5.326  0.00  0.00    -0.076 C 
ATOM     17  N   UNL     1      -3.474  -6.271   4.059  0.00  0.00    +0.385 N 
ATOM     18  H   UNL     1      -4.260  -6.059   3.462  0.00  0.00    -0.085 HD
ATOM     19  H   UNL     1      -3.464  -7.263   4.244  0.00  0.00    -0.085 HD
ENDBRANCH   1   2
BRANCH   1  20
ATOM     20  N   UNL     1      -3.995  -1.837  -1.182  0.00  0.00    -0.300 N 
ATOM     21  C   UNL     1      -4.467  -0.574  -1.183  0.00  0.00    +0.245 C 
ATOM     22  O   UNL     1      -4.369   0.112  -0.184  0.00  0.00    -0.270 OA
ATOM     23  H   UNL     1      -4.074  -2.384  -1.979  0.00  0.00    +0.150 HD
BRANCH  21  24
ATOM     24  C   UNL     1      -5.105  -0.024  -2.397  0.00  0.00    +0.037 A 
ATOM     25  C   UNL     1      -5.221  -0.825  -3.548  0.00  0.00    +0.013 A 
ATOM     26  C   UNL     1      -5.803  -0.343  -4.675  0.00  0.00    +0.009 A 
ATOM     27  C   UNL     1      -6.298   0.974  -4.704  0.00  0.00    -0.018 A 
ATOM     28  C   UNL     1      -6.904   1.494  -5.859  0.00  0.00    +0.008 A 
ATOM     29  C   UNL     1      -7.375   2.772  -5.857  0.00  0.00    +0.001 A 
ATOM     30  C   UNL     1      -7.265   3.576  -4.724  0.00  0.00    +0.001 A 
ATOM     31  C   UNL     1      -6.684   3.106  -3.586  0.00  0.00    +0.008 A 
ATOM     32  C   UNL     1      -6.187   1.791  -3.551  0.00  0.00    -0.017 A 
ATOM     33  C   UNL     1      -5.588   1.273  -2.392  0.00  0.00    +0.021 A 
ENDBRANCH  21  24
ENDBRANCH   1  20
BRANCH   1  34
ATOM     34  C   UNL     1      -1.885  -1.985   0.046  0.00  0.00    +0.042 C 
BRANCH  34  35
ATOM     35  C   UNL     1      -1.767  -0.468   0.206  0.00  0.00    +0.071 C 
BRANCH  35  37
ATOM     36  C   UNL     1      -0.048   1.806   0.426  0.00  0.00    +0.084 C 
ATOM     37  S   UNL     1      -0.015   0.003   0.235  0.00  0.00    -0.164 S 
ENDBRANCH  35  37
ENDBRANCH  34  35
ENDBRANCH   1  34
TORSDOF 6
