REMARK  Name = ZINC63374236
REMARK  10 active torsions:
REMARK  status: ('A' for Active; 'I' for Inactive)
REMARK    1  A    between atoms: C_1  and  C_2
REMARK    2  A    between atoms: C_2  and  C_3
REMARK    3  A    between atoms: C_3  and  N_4
REMARK    4  A    between atoms: C_5  and  C_7
REMARK    5  A    between atoms: C_7  and  C_9
REMARK    6  A    between atoms: C_7  and  N_13
REMARK    7  A    between atoms: C_9  and  C_10
REMARK    8  A    between atoms: C_10  and  C_11
REMARK    9  A    between atoms: C_10  and  C_12
REMARK   10  A    between atoms: C_16  and  C_32
REMARK                            x       y       z     vdW  Elec       q    Type
REMARK                         _______ _______ _______ _____ _____    ______ ____
ROOT
ATOM      1  N   UNL     1       2.093  -4.639   3.414  0.00  0.00    -0.212 N 
ATOM      2  C   UNL     1       3.208  -5.398   3.373  0.00  0.00    +0.249 C 
ATOM      3  O   UNL     1       3.773  -5.815   2.385  0.00  0.00    -0.273 OA
ATOM      4  C   UNL     1       3.606  -5.621   4.816  0.00  0.00    +0.136 C 
ATOM      5  C   UNL     1       3.564  -7.117   5.149  0.00  0.00    +0.139 C 
ATOM      6  C   UNL     1       3.428  -7.218   6.664  0.00  0.00    -0.034 C 
ATOM      7  C   UNL     1       4.462  -7.939   7.085  0.00  0.00    -0.001 A 
ATOM      8  C   UNL     1       4.837  -8.420   8.424  0.00  0.00    +0.010 A 
ATOM      9  C   UNL     1       5.988  -9.139   8.502  0.00  0.00    +0.001 A 
ATOM     10  C   UNL     1       6.793  -9.424   7.395  0.00  0.00    +0.002 A 
ATOM     11  C   UNL     1       6.522  -9.026   6.126  0.00  0.00    +0.026 A 
ATOM     12  C   UNL     1       5.335  -8.265   5.916  0.00  0.00    +0.043 A 
ATOM     13  N   UNL     1       4.828  -7.775   4.810  0.00  0.00    -0.375 N 
ATOM     14  C   UNL     1       2.331  -6.534   7.444  0.00  0.00    +0.052 C 
ATOM     15  C   UNL     1       2.334  -5.050   7.027  0.00  0.00    +0.115 C 
ATOM     16  N   UNL     1       2.505  -4.982   5.572  0.00  0.00    -0.269 N 
ATOM     17  C   UNL     1       1.718  -4.379   4.673  0.00  0.00    +0.313 C 
ATOM     18  O   UNL     1       0.768  -3.679   4.965  0.00  0.00    -0.252 OA
ATOM     19  C   UNL     1       4.964  -4.993   5.137  0.00  0.00    +0.044 C 
ATOM     20  H   UNL     1       5.217  -7.832   3.923  0.00  0.00    +0.160 HD
ENDROOT
BRANCH   1  21
ATOM     21  C   UNL     1       1.385  -4.154   2.227  0.00  0.00    +0.171 C 
BRANCH  21  23
ATOM     22  N   UNL     1       0.762  -1.976   1.234  0.00  0.00    -0.314 N 
ATOM     23  C   UNL     1       1.364  -2.647   2.235  0.00  0.00    +0.234 C 
ATOM     24  O   UNL     1       1.890  -2.038   3.143  0.00  0.00    -0.274 OA
ATOM     25  H   UNL     1       0.342  -2.462   0.507  0.00  0.00    +0.149 HD
BRANCH  22  26
ATOM     26  C   UNL     1       0.742  -0.511   1.242  0.00  0.00    +0.104 C 
BRANCH  26  28
ATOM     27  C   UNL     1      -0.019   1.526   0.010  0.00  0.00    +0.005 C 
ATOM     28  C   UNL     1       0.002  -0.004   0.002  0.00  0.00    +0.015 C 
ENDBRANCH  26  28
ENDBRANCH  22  26
ENDBRANCH  21  23
BRANCH  21  29
ATOM     29  C   UNL     1      -0.051  -4.684   2.238  0.00  0.00    +0.035 C 
BRANCH  29  30
ATOM     30  C   UNL     1      -0.033  -6.207   2.103  0.00  0.00    -0.015 C 
ATOM     31  C   UNL     1      -1.458  -6.748   2.239  0.00  0.00    +0.007 C 
ATOM     32  C   UNL     1       0.530  -6.593   0.734  0.00  0.00    +0.007 C 
ENDBRANCH  29  30
ENDBRANCH  21  29
ENDBRANCH   1  21
TORSDOF 6
