REMARK  Name = ZINC26954125
REMARK  5 active torsions:
REMARK  status: ('A' for Active; 'I' for Inactive)
REMARK    1  A    between atoms: C_4  and  C_7
REMARK    2  A    between atoms: C_7  and  N_8
REMARK    3  A    between atoms: N_18  and  C_31
REMARK    4  A    between atoms: N_21  and  N_22
REMARK    5  A    between atoms: C_23  and  C_24
REMARK                            x       y       z     vdW  Elec       q    Type
REMARK                         _______ _______ _______ _____ _____    ______ ____
ROOT
ATOM      1  N   UNL     1       2.612   2.063  -2.873  0.00  0.00    +0.386 N 
ATOM      2  C   UNL     1       3.908   2.700  -2.596  0.00  0.00    -0.073 C 
ATOM      3  C   UNL     1       4.503   3.263  -3.889  0.00  0.00    +0.018 C 
ATOM      4  C   UNL     1       3.449   4.141  -4.559  0.00  0.00    -0.026 A 
ATOM      5  C   UNL     1       2.148   4.019  -4.200  0.00  0.00    -0.021 A 
ATOM      6  S   UNL     1       1.279   5.200  -5.198  0.00  0.00    -0.075 S 
ATOM      7  C   UNL     1       2.655   5.852  -6.092  0.00  0.00    +0.117 A 
ATOM      8  C   UNL     1       3.755   5.125  -5.581  0.00  0.00    +0.076 A 
ATOM      9  C   UNL     1       5.048   5.430  -6.119  0.00  0.00    +0.268 A 
ATOM     10  O   UNL     1       6.056   4.858  -5.743  0.00  0.00    -0.266 OA
ATOM     11  N   UNL     1       5.081   6.393  -7.070  0.00  0.00    -0.247 N 
ATOM     12  C   UNL     1       3.965   7.045  -7.504  0.00  0.00    +0.224 A 
ATOM     13  N   UNL     1       2.754   6.787  -7.028  0.00  0.00    -0.207 NA
ATOM     14  N   UNL     1       4.099   8.008  -8.474  0.00  0.00    -0.206 N 
ATOM     15  C   UNL     1       1.589   3.080  -3.178  0.00  0.00    -0.035 C 
ATOM     16  H   UNL     1       5.095   8.246  -8.879  0.00  0.00    +0.177 HD
ATOM     17  H   UNL     1       2.732   1.416  -3.754  0.00  0.00    -0.081 HD
ENDROOT
BRANCH  11  18
ATOM     18  C   UNL     1       6.317   6.736  -7.633  0.00  0.00    +0.053 A 
ATOM     19  C   UNL     1       6.775   6.070  -8.762  0.00  0.00    +0.026 A 
ATOM     20  C   UNL     1       7.992   6.414  -9.319  0.00  0.00    +0.002 A 
ATOM     21  C   UNL     1       8.758   7.412  -8.745  0.00  0.00    +0.000 A 
ATOM     22  C   UNL     1       8.308   8.072  -7.617  0.00  0.00    +0.002 A 
ATOM     23  C   UNL     1       7.089   7.737  -7.060  0.00  0.00    +0.026 A 
ENDBRANCH  11  18
BRANCH  14  24
ATOM     24  N   UNL     1       2.970   8.688  -8.949  0.00  0.00    -0.188 NA
ATOM     25  C   UNL     1       3.098   9.598  -9.866  0.00  0.00    +0.138 C 
BRANCH  25  26
ATOM     26  C   UNL     1       1.909  10.313 -10.365  0.00  0.00    -0.005 A 
ATOM     27  C   UNL     1       0.643  10.009  -9.857  0.00  0.00    +0.012 A 
ATOM     28  C   UNL     1      -0.465  10.684 -10.325  0.00  0.00    +0.039 A 
ATOM     29  C   UNL     1      -0.325  11.655 -11.305  0.00  0.00    +0.123 A 
ATOM     30  C   UNL     1       0.927  11.957 -11.815  0.00  0.00    +0.039 A 
ATOM     31  C   UNL     1       2.043  11.293 -11.352  0.00  0.00    +0.012 A 
ATOM     32  F   UNL     1      -1.415  12.309 -11.763  0.00  0.00    -0.205 F 
ENDBRANCH  25  26
ENDBRANCH  14  24
BRANCH   1  33
ATOM     33  C   UNL     1       2.193   1.214  -1.751  0.00  0.00    -0.043 C 
BRANCH  33  37
ATOM     34  C   UNL     1      -1.853  -0.022  -2.342  0.00  0.00    +0.000 A 
ATOM     35  C   UNL     1      -0.816  -0.793  -2.833  0.00  0.00    +0.000 A 
ATOM     36  C   UNL     1       0.493  -0.393  -2.643  0.00  0.00    +0.002 A 
ATOM     37  C   UNL     1       0.765   0.777  -1.958  0.00  0.00    -0.064 A 
ATOM     38  C   UNL     1      -0.272   1.545  -1.462  0.00  0.00    +0.002 A 
ATOM     39  C   UNL     1      -1.581   1.145  -1.652  0.00  0.00    +0.000 A 
ENDBRANCH  33  37
ENDBRANCH   1  33
TORSDOF 5
