REMARK  Name = ZINC09243606
REMARK  13 active torsions:
REMARK  status: ('A' for Active; 'I' for Inactive)
REMARK    1  A    between atoms: C_1  and  C_2
REMARK    2  A    between atoms: C_2  and  C_3
REMARK    3  A    between atoms: C_2  and  C_4
REMARK    4  A    between atoms: C_7  and  C_10
REMARK    5  A    between atoms: C_13  and  C_33
REMARK    6  A    between atoms: N_20  and  C_21
REMARK    7  A    between atoms: C_21  and  C_22
REMARK    8  A    between atoms: C_22  and  C_23
REMARK    9  A    between atoms: C_26  and  O_31
REMARK   10  A    between atoms: C_27  and  O_29
REMARK   11  A    between atoms: O_29  and  C_30
REMARK   12  A    between atoms: O_31  and  C_32
REMARK   13  A    between atoms: C_38  and  O_39
REMARK                            x       y       z     vdW  Elec       q    Type
REMARK                         _______ _______ _______ _____ _____    ______ ____
ROOT
ATOM      1  C   UNL     1      -5.419  -2.005   0.043  0.00  0.00    +0.141 C 
ATOM      2  C   UNL     1      -5.434  -3.446   0.473  0.00  0.00    +0.035 A 
ATOM      3  C   UNL     1      -5.153  -4.359   1.439  0.00  0.00    +0.075 A 
ATOM      4  N   UNL     1      -5.522  -5.578   0.946  0.00  0.00    -0.276 N 
ATOM      5  H   UNL     1      -5.437  -6.419   1.420  0.00  0.00    +0.189 HD
ATOM      6  N   UNL     1      -5.998  -5.444  -0.241  0.00  0.00    -0.168 NA
ATOM      7  C   UNL     1      -5.980  -4.178  -0.606  0.00  0.00    +0.153 A 
ATOM      8  C   UNL     1      -6.301  -3.224  -1.683  0.00  0.00    +0.268 C 
ATOM      9  O   UNL     1      -6.788  -3.526  -2.755  0.00  0.00    -0.268 OA
ATOM     10  N   UNL     1      -5.979  -1.971  -1.313  0.00  0.00    -0.285 N 
ENDROOT
BRANCH   1  14
ATOM     11  C   UNL     1      -1.412  -0.526   0.013  0.00  0.00    -0.045 A 
ATOM     12  C   UNL     1      -2.259  -0.204   1.056  0.00  0.00    +0.004 A 
ATOM     13  C   UNL     1      -3.556  -0.683   1.066  0.00  0.00    +0.006 A 
ATOM     14  C   UNL     1      -4.006  -1.482   0.032  0.00  0.00    -0.022 A 
ATOM     15  C   UNL     1      -3.159  -1.803  -1.012  0.00  0.00    +0.006 A 
ATOM     16  C   UNL     1      -1.863  -1.321  -1.024  0.00  0.00    +0.004 A 
BRANCH  11  18
ATOM     17  C   UNL     1      -0.019   1.526   0.010  0.00  0.00    +0.012 C 
ATOM     18  C   UNL     1       0.002  -0.004   0.002  0.00  0.00    +0.013 C 
ATOM     19  C   UNL     1       0.742  -0.511   1.242  0.00  0.00    +0.012 C 
ENDBRANCH  11  18
ENDBRANCH   1  14
BRANCH   3  20
ATOM     20  C   UNL     1      -4.564  -4.085   2.768  0.00  0.00    +0.042 A 
ATOM     21  C   UNL     1      -3.301  -4.582   3.090  0.00  0.00    +0.013 A 
ATOM     22  C   UNL     1      -2.755  -4.324   4.331  0.00  0.00    +0.001 A 
ATOM     23  C   UNL     1      -3.457  -3.573   5.258  0.00  0.00    +0.004 A 
ATOM     24  C   UNL     1      -4.710  -3.077   4.951  0.00  0.00    +0.046 A 
ATOM     25  C   UNL     1      -5.268  -3.323   3.707  0.00  0.00    +0.126 A 
BRANCH  25  26
ATOM     26  O   UNL     1      -6.496  -2.830   3.401  0.00  0.00    -0.506 OA
ATOM     27  H   UNL     1      -7.226  -3.422   3.629  0.00  0.00    +0.292 HD
ENDBRANCH  25  26
ENDBRANCH   3  20
BRANCH  10  28
ATOM     28  C   UNL     1      -6.160  -0.768  -2.129  0.00  0.00    +0.114 C 
BRANCH  28  29
ATOM     29  C   UNL     1      -4.901  -0.525  -2.964  0.00  0.00    +0.054 C 
BRANCH  29  30
ATOM     30  C   UNL     1      -5.086   0.712  -3.804  0.00  0.00    -0.042 A 
ATOM     31  C   UNL     1      -5.633   0.611  -5.070  0.00  0.00    +0.007 A 
ATOM     32  C   UNL     1      -5.805   1.743  -5.844  0.00  0.00    +0.049 A 
ATOM     33  C   UNL     1      -5.429   2.983  -5.352  0.00  0.00    +0.161 A 
ATOM     34  C   UNL     1      -4.879   3.085  -4.078  0.00  0.00    +0.162 A 
ATOM     35  C   UNL     1      -4.714   1.946  -3.305  0.00  0.00    +0.053 A 
BRANCH  34  36
ATOM     36  O   UNL     1      -4.508   4.299  -3.591  0.00  0.00    -0.491 OA
ATOM     37  C   UNL     1      -3.951   4.328  -2.276  0.00  0.00    +0.277 C 
ENDBRANCH  34  36
BRANCH  33  38
ATOM     38  O   UNL     1      -5.597   4.098  -6.113  0.00  0.00    -0.491 OA
ATOM     39  C   UNL     1      -6.168   3.917  -7.411  0.00  0.00    +0.277 C 
ENDBRANCH  33  38
ENDBRANCH  29  30
ENDBRANCH  28  29
ENDBRANCH  10  28
TORSDOF 9
