REMARK  Name = ZINC40815448
REMARK  10 active torsions:
REMARK  status: ('A' for Active; 'I' for Inactive)
REMARK    1  A    between atoms: C_1  and  C_2
REMARK    2  A    between atoms: C_4  and  C_38
REMARK    3  A    between atoms: C_6  and  O_8
REMARK    4  A    between atoms: O_8  and  C_9
REMARK    5  A    between atoms: C_9  and  C_11
REMARK    6  A    between atoms: C_12  and  C_37
REMARK    7  A    between atoms: N_20  and  N_21
REMARK    8  A    between atoms: C_22  and  C_24
REMARK    9  A    between atoms: C_24  and  C_25
REMARK   10  A    between atoms: C_24  and  C_31
REMARK                            x       y       z     vdW  Elec       q    Type
REMARK                         _______ _______ _______ _____ _____    ______ ____
ROOT
ATOM      1  C   UNL     1      -2.072  -1.133   5.286  0.00  0.00    +0.215 A 
ATOM      2  C   UNL     1      -1.561  -0.798   6.510  0.00  0.00    +0.011 A 
ATOM      3  C   UNL     1      -1.320  -2.005   7.177  0.00  0.00    +0.042 A 
ATOM      4  C   UNL     1      -1.692  -3.025   6.332  0.00  0.00    +0.115 A 
ATOM      5  O   UNL     1      -2.148  -2.482   5.207  0.00  0.00    -0.452 OA
ATOM      6  C   UNL     1      -1.572  -4.481   6.703  0.00  0.00    +0.075 C 
ATOM      7  C   UNL     1      -0.557  -4.635   7.839  0.00  0.00    +0.014 C 
ATOM      8  C   UNL     1      -0.907  -3.707   9.007  0.00  0.00    +0.058 C 
ATOM      9  C   UNL     1      -0.777  -2.269   8.528  0.00  0.00    +0.070 C 
ATOM     10  N   UNL     1      -0.229  -1.341   9.251  0.00  0.00    -0.184 NA
ATOM     11  C   UNL     1      -1.309   0.592   7.035  0.00  0.00    +0.048 C 
ENDROOT
BRANCH  10  12
ATOM     12  N   UNL     1       0.269  -1.648  10.524  0.00  0.00    -0.206 N 
ATOM     13  C   UNL     1       0.838  -0.685  11.275  0.00  0.00    +0.244 C 
ATOM     14  O   UNL     1       0.920   0.448  10.849  0.00  0.00    -0.273 OA
ATOM     15  H   UNL     1       0.204  -2.554  10.865  0.00  0.00    +0.177 HD
BRANCH  13  16
ATOM     16  C   UNL     1       1.374  -1.015  12.645  0.00  0.00    +0.136 C 
BRANCH  16  17
ATOM     17  C   UNL     1       1.954   0.227  13.270  0.00  0.00    -0.031 A 
ATOM     18  C   UNL     1       3.257   0.225  13.732  0.00  0.00    +0.005 A 
ATOM     19  C   UNL     1       3.789   1.364  14.306  0.00  0.00    +0.000 A 
ATOM     20  C   UNL     1       3.018   2.506  14.418  0.00  0.00    +0.000 A 
ATOM     21  C   UNL     1       1.715   2.509  13.955  0.00  0.00    +0.000 A 
ATOM     22  C   UNL     1       1.185   1.371  13.377  0.00  0.00    +0.005 A 
ENDBRANCH  16  17
BRANCH  16  23
ATOM     23  C   UNL     1       0.255  -1.538  13.509  0.00  0.00    -0.031 A 
ATOM     24  C   UNL     1      -0.928  -0.830  13.611  0.00  0.00    +0.005 A 
ATOM     25  C   UNL     1      -1.954  -1.309  14.404  0.00  0.00    +0.000 A 
ATOM     26  C   UNL     1      -1.797  -2.496  15.094  0.00  0.00    +0.000 A 
ATOM     27  C   UNL     1      -0.614  -3.204  14.992  0.00  0.00    +0.000 A 
ATOM     28  C   UNL     1       0.410  -2.728  14.196  0.00  0.00    +0.005 A 
ENDBRANCH  16  23
ENDBRANCH  13  16
ENDBRANCH  10  12
BRANCH   1  29
ATOM     29  C   UNL     1      -2.476  -0.190   4.239  0.00  0.00    +0.380 C 
ATOM     30  O   UNL     1      -2.362   1.007   4.423  0.00  0.00    -0.241 OA
BRANCH  29  31
ATOM     31  O   UNL     1      -2.973  -0.650   3.072  0.00  0.00    -0.420 OA
BRANCH  31  37
ATOM     32  C   UNL     1      -1.288   2.502  -0.252  0.00  0.00    +0.044 C 
ATOM     33  C   UNL     1      -2.429   1.807   0.444  0.00  0.00    -0.047 A 
ATOM     34  C   UNL     1      -3.734   2.087   0.081  0.00  0.00    +0.007 A 
ATOM     35  C   UNL     1      -4.783   1.452   0.718  0.00  0.00    -0.047 A 
ATOM     36  C   UNL     1      -4.531   0.535   1.720  0.00  0.00    +0.049 A 
ATOM     37  C   UNL     1      -3.223   0.252   2.087  0.00  0.00    +0.133 A 
ATOM     38  C   UNL     1      -2.172   0.887   1.442  0.00  0.00    +0.049 A 
ATOM     39  C   UNL     1      -6.204   1.760   0.320  0.00  0.00    +0.044 C 
ENDBRANCH  31  37
ENDBRANCH  29  31
ENDBRANCH   1  29
TORSDOF 7
