REMARK  Name = ZINC49735118
REMARK  8 active torsions:
REMARK  status: ('A' for Active; 'I' for Inactive)
REMARK    1  A    between atoms: C_1  and  C_2
REMARK    2  A    between atoms: C_2  and  C_3
REMARK    3  A    between atoms: C_3  and  C_4
REMARK    4  A    between atoms: C_4  and  N_5
REMARK    5  A    between atoms: C_24  and  C_27
REMARK    6  A    between atoms: C_30  and  O_35
REMARK    7  A    between atoms: C_31  and  O_33
REMARK    8  A    between atoms: O_33  and  C_34
REMARK                            x       y       z     vdW  Elec       q    Type
REMARK                         _______ _______ _______ _____ _____    ______ ____
ROOT
ATOM      1  N   UNL     1      -2.702  -3.049  -0.041  0.00  0.00    -0.249 N 
ATOM      2  C   UNL     1      -3.305  -3.309   1.137  0.00  0.00    +0.259 C 
ATOM      3  O   UNL     1      -2.651  -3.537   2.137  0.00  0.00    -0.269 OA
ATOM      4  C   UNL     1      -4.779  -3.309   1.180  0.00  0.00    +0.116 C 
ATOM      5  C   UNL     1      -5.487  -3.022  -0.080  0.00  0.00    +0.256 C 
ATOM      6  N   UNL     1      -4.751  -2.780  -1.184  0.00  0.00    -0.263 N 
ATOM      7  H   UNL     1      -5.202  -2.589  -2.021  0.00  0.00    +0.157 HD
ATOM      8  C   UNL     1      -3.411  -2.791  -1.149  0.00  0.00    +0.146 C 
ATOM      9  S   UNL     1      -2.560  -2.465  -2.598  0.00  0.00    -0.018 S 
ATOM     10  O   UNL     1      -6.703  -3.005  -0.123  0.00  0.00    -0.270 OA
ATOM     11  C   UNL     1      -5.466  -3.568   2.352  0.00  0.00    +0.027 C 
ATOM     12  N   UNL     1      -4.782  -3.423   3.433  0.00  0.00    -0.316 N 
ATOM     13  C   UNL     1      -4.820  -3.714   4.769  0.00  0.00    +0.045 A 
ATOM     14  C   UNL     1      -3.600  -3.523   5.442  0.00  0.00    +0.024 A 
ATOM     15  C   UNL     1      -3.469  -3.769   6.787  0.00  0.00    +0.002 A 
ATOM     16  C   UNL     1      -4.561  -4.216   7.510  0.00  0.00    +0.001 A 
ATOM     17  C   UNL     1      -5.761  -4.407   6.869  0.00  0.00    +0.016 A 
ATOM     18  C   UNL     1      -5.912  -4.161   5.497  0.00  0.00    +0.030 A 
ATOM     19  S   UNL     1      -7.499  -4.447   4.826  0.00  0.00    -0.115 S 
ATOM     20  C   UNL     1      -7.303  -5.037   3.151  0.00  0.00    +0.087 C 
ATOM     21  C   UNL     1      -6.889  -3.966   2.177  0.00  0.00    +0.071 C 
ATOM     22  H   UNL     1      -3.962  -2.947   3.231  0.00  0.00    +0.152 HD
ENDROOT
BRANCH  20  23
ATOM     23  C   UNL     1      -8.614  -5.620   2.690  0.00  0.00    -0.030 A 
ATOM     24  C   UNL     1      -9.745  -4.826   2.644  0.00  0.00    +0.008 A 
ATOM     25  C   UNL     1     -10.950  -5.356   2.222  0.00  0.00    +0.049 A 
ATOM     26  C   UNL     1     -11.026  -6.687   1.843  0.00  0.00    +0.158 A 
ATOM     27  C   UNL     1      -9.888  -7.487   1.889  0.00  0.00    +0.162 A 
ATOM     28  C   UNL     1      -8.682  -6.947   2.309  0.00  0.00    +0.054 A 
BRANCH  27  29
ATOM     29  O   UNL     1      -9.958  -8.793   1.519  0.00  0.00    -0.491 OA
ATOM     30  C   UNL     1      -8.750  -9.554   1.592  0.00  0.00    +0.277 C 
ENDBRANCH  27  29
BRANCH  26  31
ATOM     31  O   UNL     1     -12.210  -7.210   1.428  0.00  0.00    -0.503 OA
ATOM     32  H   UNL     1     -12.361  -7.136   0.476  0.00  0.00    +0.292 HD
ENDBRANCH  26  31
ENDBRANCH  20  23
BRANCH   1  33
ATOM     33  C   UNL     1      -1.239  -3.042  -0.110  0.00  0.00    +0.116 C 
BRANCH  33  34
ATOM     34  C   UNL     1      -0.721  -1.634   0.188  0.00  0.00    +0.019 C 
BRANCH  34  36
ATOM     35  C   UNL     1       1.326  -0.219   0.414  0.00  0.00    +0.004 C 
ATOM     36  C   UNL     1       0.808  -1.627   0.117  0.00  0.00    -0.002 C 
ENDBRANCH  34  36
ENDBRANCH  33  34
ENDBRANCH   1  33
TORSDOF 6
