REMARK  Name = ZINC61997769
REMARK  3 active torsions:
REMARK  status: ('A' for Active; 'I' for Inactive)
REMARK    1  A    between atoms: C_1  and  C_2
REMARK    2  A    between atoms: C_22  and  C_30
REMARK    3  A    between atoms: C_30  and  C_32
REMARK                            x       y       z     vdW  Elec       q    Type
REMARK                         _______ _______ _______ _____ _____    ______ ____
ROOT
ATOM      1  C   UNL     1      -0.165   1.543   0.075  0.00  0.00    +0.044 C 
ATOM      2  C   UNL     1      -0.212   0.037   0.066  0.00  0.00    -0.050 A 
ATOM      3  C   UNL     1      -0.328  -0.647  -1.131  0.00  0.00    +0.005 A 
ATOM      4  C   UNL     1      -0.372  -2.025  -1.144  0.00  0.00    +0.024 A 
ATOM      5  C   UNL     1      -0.300  -2.741   0.049  0.00  0.00    +0.039 A 
ATOM      6  C   UNL     1      -0.184  -2.042   1.246  0.00  0.00    +0.004 A 
ATOM      7  C   UNL     1      -0.135  -0.666   1.256  0.00  0.00    +0.011 A 
ATOM      8  C   UNL     1      -0.130  -3.084   2.332  0.00  0.00    +0.145 C 
ATOM      9  C   UNL     1      -0.230  -4.401   1.604  0.00  0.00    +0.244 C 
ATOM     10  O   UNL     1      -0.226  -5.506   2.105  0.00  0.00    -0.273 OA
ATOM     11  N   UNL     1      -0.323  -4.115   0.292  0.00  0.00    -0.283 N 
ATOM     12  C   UNL     1       1.164  -2.990   3.131  0.00  0.00    +0.116 C 
ATOM     13  C   UNL     1       1.993  -4.237   3.010  0.00  0.00    -0.008 A 
ATOM     14  C   UNL     1       1.759  -5.563   3.296  0.00  0.00    +0.006 A 
ATOM     15  C   UNL     1       2.746  -6.505   3.071  0.00  0.00    +0.000 A 
ATOM     16  C   UNL     1       3.969  -6.112   2.557  0.00  0.00    +0.002 A 
ATOM     17  C   UNL     1       4.208  -4.785   2.269  0.00  0.00    +0.023 A 
ATOM     18  C   UNL     1       3.220  -3.829   2.493  0.00  0.00    +0.038 A 
ATOM     19  N   UNL     1       3.221  -2.449   2.285  0.00  0.00    -0.284 N 
ATOM     20  C   UNL     1       2.051  -1.881   2.634  0.00  0.00    +0.231 C 
ATOM     21  O   UNL     1       1.767  -0.704   2.560  0.00  0.00    -0.274 OA
ATOM     22  C   UNL     1       0.739  -2.745   4.589  0.00  0.00    +0.100 C 
ATOM     23  C   UNL     1      -0.693  -2.176   4.443  0.00  0.00    +0.070 C 
ATOM     24  N   UNL     1      -1.253  -2.921   3.273  0.00  0.00    -0.281 NA
ATOM     25  C   UNL     1      -1.639  -4.244   3.819  0.00  0.00    +0.086 C 
ATOM     26  C   UNL     1      -2.178  -3.960   5.235  0.00  0.00    +0.017 C 
ATOM     27  C   UNL     1      -1.534  -2.608   5.656  0.00  0.00    +0.021 C 
ATOM     28  H   UNL     1      -0.398  -4.787  -0.404  0.00  0.00    +0.155 HD
ATOM     29  H   UNL     1       3.978  -1.955   1.930  0.00  0.00    +0.155 HD
ENDROOT
BRANCH  22  30
ATOM     30  C   UNL     1       0.727  -4.036   5.366  0.00  0.00    +0.176 C 
ATOM     31  O   UNL     1      -0.284  -4.708   5.412  0.00  0.00    -0.291 OA
BRANCH  30  32
ATOM     32  C   UNL     1       1.891  -4.466   6.040  0.00  0.00    +0.055 A 
ATOM     33  C   UNL     1       2.093  -5.615   6.798  0.00  0.00    +0.019 A 
ATOM     34  C   UNL     1       3.346  -5.761   7.335  0.00  0.00    +0.008 A 
ATOM     35  C   UNL     1       4.282  -4.806   7.099  0.00  0.00    +0.046 A 
ATOM     36  S   UNL     1       3.490  -3.682   6.133  0.00  0.00    -0.094 S 
ENDBRANCH  30  32
ENDBRANCH  22  30
TORSDOF 2
