REMARK  Name = ZINC08962324
REMARK  9 active torsions:
REMARK  status: ('A' for Active; 'I' for Inactive)
REMARK    1  A    between atoms: C_1  and  C_2
REMARK    2  A    between atoms: C_2  and  C_3
REMARK    3  A    between atoms: C_2  and  C_4
REMARK    4  A    between atoms: N_6  and  C_7
REMARK    5  A    between atoms: C_10  and  S_13
REMARK    6  A    between atoms: S_13  and  N_16
REMARK    7  A    between atoms: N_16  and  C_17
REMARK    8  A    between atoms: C_26  and  C_29
REMARK    9  A    between atoms: C_26  and  C_30
REMARK                            x       y       z     vdW  Elec       q    Type
REMARK                         _______ _______ _______ _____ _____    ______ ____
ROOT
ATOM      1  N   UNL     1       4.678   4.066  -0.893  0.00  0.00    -0.216 N 
ATOM      2  H   UNL     1       5.477   3.801  -0.410  0.00  0.00    +0.174 HD
ENDROOT
BRANCH   1   3
ATOM      3  C   UNL     1       3.488   3.350  -0.722  0.00  0.00    +0.049 A 
ATOM      4  C   UNL     1       2.724   2.999  -1.831  0.00  0.00    +0.028 A 
ATOM      5  C   UNL     1       1.548   2.291  -1.675  0.00  0.00    +0.048 A 
ATOM      6  C   UNL     1       1.123   1.925  -0.409  0.00  0.00    +0.133 A 
ATOM      7  C   UNL     1       1.887   2.280   0.714  0.00  0.00    +0.080 A 
ATOM      8  C   UNL     1       3.073   2.993   0.551  0.00  0.00    +0.041 A 
ATOM      9  C   UNL     1       1.411   1.888   2.054  0.00  0.00    +0.248 C 
ATOM     10  O   UNL     1       1.381   2.697   2.961  0.00  0.00    -0.270 OA
ATOM     11  N   UNL     1       1.008   0.611   2.257  0.00  0.00    -0.303 N 
ATOM     12  C   UNL     1       1.152  -0.371   1.180  0.00  0.00    +0.063 C 
ATOM     13  C   UNL     1       0.098  -0.152   0.104  0.00  0.00    +0.254 C 
ATOM     14  O   UNL     1      -0.026   1.224  -0.235  0.00  0.00    -0.489 OA
ATOM     15  C   UNL     1       0.996  -1.779   1.759  0.00  0.00    +0.035 C 
ATOM     16  C   UNL     1       2.543  -0.235   0.558  0.00  0.00    +0.035 C 
ATOM     17  H   UNL     1       0.628   0.348   3.109  0.00  0.00    +0.150 HD
ENDBRANCH   1   3
BRANCH   1  18
ATOM     18  S   UNL     1       4.723   5.364  -1.920  0.00  0.00    +0.072 S 
ATOM     19  O   UNL     1       6.043   5.887  -1.857  0.00  0.00    -0.150 OA
ATOM     20  O   UNL     1       4.131   4.938  -3.140  0.00  0.00    -0.150 OA
BRANCH  18  24
ATOM     21  C   UNL     1       1.991   8.535  -0.191  0.00  0.00    +0.034 A 
ATOM     22  C   UNL     1       3.333   8.505   0.162  0.00  0.00    +0.025 A 
ATOM     23  C   UNL     1       4.164   7.537  -0.367  0.00  0.00    +0.030 A 
ATOM     24  C   UNL     1       3.660   6.598  -1.248  0.00  0.00    +0.109 A 
ATOM     25  C   UNL     1       2.325   6.628  -1.606  0.00  0.00    +0.030 A 
ATOM     26  C   UNL     1       1.488   7.590  -1.077  0.00  0.00    +0.025 A 
BRANCH  21  29
ATOM     27  C   UNL     1       1.628  10.743   0.617  0.00  0.00    +0.220 C 
ATOM     28  O   UNL     1       2.768  11.028   0.316  0.00  0.00    -0.275 OA
ATOM     29  N   UNL     1       1.146   9.514   0.343  0.00  0.00    -0.285 N 
ATOM     30  H   UNL     1       0.214   9.309   0.517  0.00  0.00    +0.155 HD
BRANCH  27  32
ATOM     31  C   UNL     1       0.307  11.227   2.659  0.00  0.00    +0.017 C 
ATOM     32  C   UNL     1       0.750  11.762   1.296  0.00  0.00    +0.069 C 
ATOM     33  C   UNL     1       1.533  13.062   1.489  0.00  0.00    +0.017 C 
ENDBRANCH  27  32
ENDBRANCH  21  29
ENDBRANCH  18  24
ENDBRANCH   1  18
TORSDOF 5
