REMARK  Name = ZINC12635492
REMARK  9 active torsions:
REMARK  status: ('A' for Active; 'I' for Inactive)
REMARK    1  A    between atoms: C_1  and  C_2
REMARK    2  A    between atoms: C_2  and  N_3
REMARK    3  A    between atoms: C_8  and  C_27
REMARK    4  A    between atoms: C_10  and  C_15
REMARK    5  A    between atoms: C_10  and  C_22
REMARK    6  A    between atoms: C_15  and  C_16
REMARK    7  A    between atoms: C_22  and  O_24
REMARK    8  A    between atoms: O_24  and  C_25
REMARK    9  A    between atoms: C_25  and  C_26
REMARK                            x       y       z     vdW  Elec       q    Type
REMARK                         _______ _______ _______ _____ _____    ______ ____
ROOT
ATOM      1  N   UNL     1       0.025   1.260   0.365  0.00  0.00    -0.242 N 
ATOM      2  C   UNL     1       1.267   1.841   0.434  0.00  0.00    +0.224 C 
ATOM      3  O   UNL     1       1.530   3.023   0.387  0.00  0.00    -0.275 OA
ATOM      4  C   UNL     1       2.189   0.747   0.575  0.00  0.00    +0.077 C 
ATOM      5  C   UNL     1       3.613   0.392   0.459  0.00  0.00    -0.024 C 
ATOM      6  C   UNL     1       2.237  -1.596   0.306  0.00  0.00    +0.048 C 
ATOM      7  C   UNL     1       1.484  -0.397  -0.244  0.00  0.00    +0.086 C 
ATOM      8  C   UNL     1       0.083  -0.093   0.181  0.00  0.00    +0.225 C 
ATOM      9  O   UNL     1      -0.820  -0.888   0.333  0.00  0.00    -0.275 OA
ATOM     10  N   UNL     1       3.599  -1.094   0.631  0.00  0.00    +0.396 N 
ATOM     11  H   UNL     1       3.832  -1.332   1.603  0.00  0.00    -0.083 HD
ATOM     12  H   UNL     1       4.285  -1.523  -0.001  0.00  0.00    -0.083 HD
ENDROOT
BRANCH   5  13
ATOM     13  C   UNL     1       4.424   1.055   1.542  0.00  0.00    -0.025 A 
ATOM     14  C   UNL     1       3.788   1.720   2.573  0.00  0.00    +0.005 A 
ATOM     15  C   UNL     1       4.532   2.328   3.567  0.00  0.00    +0.000 A 
ATOM     16  C   UNL     1       5.913   2.271   3.531  0.00  0.00    +0.003 A 
ATOM     17  C   UNL     1       6.551   1.607   2.502  0.00  0.00    +0.038 A 
ATOM     18  C   UNL     1       5.807   0.994   1.508  0.00  0.00    +0.125 A 
ATOM     19  F   UNL     1       6.430   0.339   0.503  0.00  0.00    -0.205 F 
ENDBRANCH   5  13
BRANCH   1  21
ATOM     20  C   UNL     1      -1.661   2.077   1.938  0.00  0.00    +0.025 C 
ATOM     21  C   UNL     1      -1.229   2.010   0.471  0.00  0.00    +0.113 C 
ENDBRANCH   1  21
BRANCH   6  22
ATOM     22  C   UNL     1       2.313  -2.684  -0.734  0.00  0.00    +0.297 C 
ATOM     23  O   UNL     1       1.480  -2.744  -1.607  0.00  0.00    -0.252 OA
BRANCH  22  24
ATOM     24  O   UNL     1       3.305  -3.586  -0.690  0.00  0.00    -0.466 OA
BRANCH  24  25
ATOM     25  C   UNL     1       3.316  -4.606  -1.724  0.00  0.00    +0.228 C 
ATOM     26  C   UNL     1       4.511  -5.536  -1.511  0.00  0.00    +0.048 C 
ENDBRANCH  24  25
ENDBRANCH  22  24
ENDBRANCH   6  22
BRANCH   6  27
ATOM     27  C   UNL     1       1.548  -2.118   1.568  0.00  0.00    +0.034 C 
BRANCH  27  28
ATOM     28  C   UNL     1       2.351  -3.255   2.145  0.00  0.00    -0.048 A 
ATOM     29  C   UNL     1       2.112  -4.551   1.728  0.00  0.00    +0.003 A 
ATOM     30  C   UNL     1       2.853  -5.594   2.254  0.00  0.00    +0.000 A 
ATOM     31  C   UNL     1       3.825  -5.341   3.204  0.00  0.00    +0.000 A 
ATOM     32  C   UNL     1       4.060  -4.046   3.624  0.00  0.00    +0.000 A 
ATOM     33  C   UNL     1       3.323  -3.003   3.095  0.00  0.00    +0.003 A 
ENDBRANCH  27  28
ENDBRANCH   6  27
TORSDOF 7
