REMARK  Name = ZINC58168414
REMARK  9 active torsions:
REMARK  status: ('A' for Active; 'I' for Inactive)
REMARK    1  A    between atoms: C_1  and  C_2
REMARK    2  A    between atoms: C_7  and  C_9
REMARK    3  A    between atoms: C_7  and  N_29
REMARK    4  A    between atoms: C_9  and  N_10
REMARK    5  A    between atoms: C_11  and  C_13
REMARK    6  A    between atoms: N_16  and  C_22
REMARK    7  A    between atoms: C_17  and  C_18
REMARK    8  A    between atoms: N_29  and  C_30
REMARK    9  A    between atoms: N_29  and  C_31
REMARK                            x       y       z     vdW  Elec       q    Type
REMARK                         _______ _______ _______ _____ _____    ______ ____
ROOT
ATOM      1  N   UNL     1       2.821  -1.812  -0.209  0.00  0.00    -0.313 N 
ATOM      2  C   UNL     1       3.509  -1.954  -1.359  0.00  0.00    +0.248 C 
ATOM      3  O   UNL     1       2.942  -2.340  -2.363  0.00  0.00    -0.270 OA
ATOM      4  H   UNL     1       3.273  -1.504   0.592  0.00  0.00    +0.149 HD
ENDROOT
BRANCH   2   5
ATOM      5  C   UNL     1       4.949  -1.640  -1.400  0.00  0.00    +0.086 A 
ATOM      6  C   UNL     1       5.740  -1.190  -0.319  0.00  0.00    +0.148 A 
ATOM      7  N   UNL     1       6.960  -1.025  -0.752  0.00  0.00    -0.174 NA
ATOM      8  N   UNL     1       7.008  -1.357  -2.111  0.00  0.00    -0.227 N 
ATOM      9  C   UNL     1       5.778  -1.737  -2.500  0.00  0.00    +0.159 A 
BRANCH   8  10
ATOM     10  C   UNL     1       8.147  -1.306  -2.927  0.00  0.00    +0.066 A 
ATOM     11  C   UNL     1       8.321  -2.244  -3.936  0.00  0.00    +0.029 A 
ATOM     12  C   UNL     1       9.443  -2.192  -4.739  0.00  0.00    +0.022 A 
ATOM     13  C   UNL     1      10.394  -1.207  -4.538  0.00  0.00    +0.041 A 
ATOM     14  C   UNL     1      10.223  -0.272  -3.533  0.00  0.00    +0.022 A 
ATOM     15  C   UNL     1       9.099  -0.316  -2.731  0.00  0.00    +0.029 A 
ATOM     16 CL   UNL     1      11.805  -1.145  -5.548  0.00  0.00    -0.084 Cl
ENDBRANCH   8  10
BRANCH   9  17
ATOM     17  C   UNL     1       5.377  -2.183  -3.883  0.00  0.00    +0.435 C 
ATOM     18  F   UNL     1       5.533  -3.569  -3.989  0.00  0.00    -0.164 F 
ATOM     19  F   UNL     1       4.039  -1.845  -4.112  0.00  0.00    -0.164 F 
ATOM     20  F   UNL     1       6.187  -1.548  -4.830  0.00  0.00    -0.164 F 
ENDBRANCH   9  17
ENDBRANCH   2   5
BRANCH   1  21
ATOM     21  C   UNL     1       1.390  -2.124  -0.168  0.00  0.00    +0.092 C 
BRANCH  21  27
ATOM     22  C   UNL     1       0.315   1.904   0.991  0.00  0.00    +0.007 C 
ATOM     23  C   UNL     1       0.182   0.424   0.626  0.00  0.00    -0.015 C 
ATOM     24  C   UNL     1      -1.290   0.013   0.691  0.00  0.00    +0.003 C 
ATOM     25  C   UNL     1      -1.422  -1.467   0.326  0.00  0.00    -0.001 C 
ATOM     26  C   UNL     1      -0.613  -2.310   1.314  0.00  0.00    -0.010 C 
ATOM     27  C   UNL     1       0.859  -1.899   1.249  0.00  0.00    -0.050 C 
ATOM     28  C   UNL     1       0.992  -0.419   1.614  0.00  0.00    -0.007 C 
BRANCH  27  29
ATOM     29  N   UNL     1       1.636  -2.708   2.197  0.00  0.00    +0.381 N 
ATOM     30  C   UNL     1       1.078  -2.551   3.547  0.00  0.00    -0.096 C 
ATOM     31  C   UNL     1       1.572  -4.122   1.802  0.00  0.00    -0.096 C 
ATOM     32  H   UNL     1       2.597  -2.401   2.193  0.00  0.00    -0.082 HD
ENDBRANCH  27  29
ENDBRANCH  21  27
ENDBRANCH   1  21
TORSDOF 6
