REMARK  Name = ZINC21465422
REMARK  13 active torsions:
REMARK  status: ('A' for Active; 'I' for Inactive)
REMARK    1  A    between atoms: C_1  and  C_2
REMARK    2  A    between atoms: C_2  and  C_3
REMARK    3  A    between atoms: C_6  and  N_9
REMARK    4  A    between atoms: C_12  and  C_15
REMARK    5  A    between atoms: C_15  and  O_16
REMARK    6  A    between atoms: O_16  and  C_17
REMARK    7  A    between atoms: C_17  and  C_19
REMARK    8  A    between atoms: C_20  and  C_30
REMARK    9  A    between atoms: C_21  and  C_26
REMARK   10  A    between atoms: C_22  and  C_25
REMARK   11  A    between atoms: C_26  and  O_28
REMARK   12  A    between atoms: O_28  and  C_29
REMARK   13  A    between atoms: C_31  and  C_33
REMARK                            x       y       z     vdW  Elec       q    Type
REMARK                         _______ _______ _______ _____ _____    ______ ____
ROOT
ATOM      1  N   UNL     1      -2.727   2.941   4.660  0.00  0.00    -0.219 N 
ATOM      2  C   UNL     1      -2.324   4.113   5.292  0.00  0.00    +0.172 A 
ATOM      3  N   UNL     1      -2.732   4.617   6.440  0.00  0.00    -0.226 NA
ATOM      4  C   UNL     1      -2.241   5.751   6.902  0.00  0.00    +0.088 A 
ATOM      5  C   UNL     1      -1.300   6.393   6.167  0.00  0.00    +0.075 A 
ATOM      6  S   UNL     1      -1.148   5.282   4.777  0.00  0.00    -0.060 S 
ATOM      7  C   UNL     1      -3.735   2.209   5.175  0.00  0.00    +0.223 C 
ATOM      8  O   UNL     1      -4.343   2.612   6.144  0.00  0.00    -0.275 OA
ATOM      9  C   UNL     1      -4.107   0.891   4.547  0.00  0.00    +0.110 C 
ENDROOT
BRANCH   1  13
ATOM     10  C   UNL     1      -0.818   1.694   1.171  0.00  0.00    -0.048 A 
ATOM     11  C   UNL     1      -2.127   2.137   1.121  0.00  0.00    +0.005 A 
ATOM     12  C   UNL     1      -2.764   2.546   2.276  0.00  0.00    +0.024 A 
ATOM     13  C   UNL     1      -2.086   2.521   3.487  0.00  0.00    +0.043 A 
ATOM     14  C   UNL     1      -0.769   2.081   3.534  0.00  0.00    +0.024 A 
ATOM     15  C   UNL     1      -0.140   1.668   2.376  0.00  0.00    +0.005 A 
BRANCH  10  17
ATOM     16  C   UNL     1      -0.353  -0.258  -0.286  0.00  0.00    +0.009 C 
ATOM     17  C   UNL     1      -0.128   1.243  -0.090  0.00  0.00    +0.032 C 
ENDBRANCH  10  17
ENDBRANCH   1  13
BRANCH   4  18
ATOM     18  C   UNL     1      -2.715   6.318   8.215  0.00  0.00    +0.288 C 
BRANCH  18  19
ATOM     19  O   UNL     1      -2.017   7.562   8.484  0.00  0.00    -0.454 OA
BRANCH  19  20
ATOM     20  C   UNL     1      -2.328   8.203   9.630  0.00  0.00    +0.356 C 
ATOM     21  O   UNL     1      -3.159   7.734  10.383  0.00  0.00    -0.243 OA
BRANCH  20  22
ATOM     22  C   UNL     1      -1.662   9.466   9.967  0.00  0.00    +0.128 A 
ATOM     23  C   UNL     1      -1.887  10.213  11.086  0.00  0.00    -0.005 A 
ATOM     24  C   UNL     1      -1.036  11.338  11.010  0.00  0.00    +0.083 A 
ATOM     25  C   UNL     1      -0.326  11.230   9.827  0.00  0.00    +0.028 A 
ATOM     26  N   UNL     1      -0.707  10.104   9.206  0.00  0.00    -0.352 N 
ATOM     27  H   UNL     1      -0.382   9.665   8.251  0.00  0.00    +0.166 HD
ATOM     28  C   UNL     1       0.700  12.212   9.322  0.00  0.00    +0.064 C 
ATOM     29  C   UNL     1      -2.857   9.897  12.195  0.00  0.00    +0.047 C 
BRANCH  24  30
ATOM     30  C   UNL     1      -0.928  12.423  11.999  0.00  0.00    +0.341 C 
ATOM     31  O   UNL     1      -1.640  13.404  11.905  0.00  0.00    -0.245 OA
BRANCH  30  32
ATOM     32  O   UNL     1      -0.040  12.329  13.009  0.00  0.00    -0.464 OA
ATOM     33  C   UNL     1       0.011  13.436  13.947  0.00  0.00    +0.280 C 
ENDBRANCH  30  32
ENDBRANCH  24  30
ENDBRANCH  20  22
ENDBRANCH  19  20
ENDBRANCH  18  19
ENDBRANCH   4  18
TORSDOF 8
