REMARK  Name = ZINC06147914
REMARK  7 active torsions:
REMARK  status: ('A' for Active; 'I' for Inactive)
REMARK    1  A    between atoms: C_1  and  C_2
REMARK    2  A    between atoms: C_2  and  C_3
REMARK    3  A    between atoms: C_9  and  C_10
REMARK    4  A    between atoms: C_9  and  N_55
REMARK    5  A    between atoms: C_11  and  O_32
REMARK    6  A    between atoms: C_17  and  C_28
REMARK    7  A    between atoms: C_18  and  C_21
REMARK                            x       y       z     vdW  Elec       q    Type
REMARK                         _______ _______ _______ _____ _____    ______ ____
ROOT
ATOM      1  C   UNL     1       1.914   1.268  -3.189  0.00  0.00    +0.020 A 
ATOM      2  C   UNL     1       2.873   0.505  -2.544  0.00  0.00    +0.122 A 
ATOM      3  C   UNL     1       4.036   1.094  -2.054  0.00  0.00    +0.046 A 
ATOM      4  C   UNL     1       4.246   2.435  -2.204  0.00  0.00    +0.019 A 
ATOM      5  C   UNL     1       3.289   3.217  -2.851  0.00  0.00    +0.065 A 
ATOM      6  C   UNL     1       2.114   2.632  -3.355  0.00  0.00    +0.144 A 
ATOM      7  O   UNL     1       1.188   3.390  -3.974  0.00  0.00    -0.450 OA
ATOM      8  C   UNL     1       1.322   4.706  -4.158  0.00  0.00    +0.219 A 
ATOM      9  C   UNL     1       2.408   5.398  -3.727  0.00  0.00    +0.076 A 
ATOM     10  C   UNL     1       3.481   4.668  -3.030  0.00  0.00    +0.201 A 
ATOM     11  O   UNL     1       4.479   5.236  -2.622  0.00  0.00    -0.286 OA
ENDROOT
BRANCH   9  12
ATOM     12  C   UNL     1       2.513   6.860  -3.954  0.00  0.00    -0.011 A 
ATOM     13  C   UNL     1       1.688   7.737  -3.251  0.00  0.00    +0.010 A 
ATOM     14  C   UNL     1       1.792   9.096  -3.462  0.00  0.00    +0.020 A 
ATOM     15  C   UNL     1       2.706   9.589  -4.378  0.00  0.00    +0.041 A 
ATOM     16  C   UNL     1       3.523   8.722  -5.082  0.00  0.00    +0.020 A 
ATOM     17  C   UNL     1       3.431   7.361  -4.875  0.00  0.00    +0.010 A 
ATOM     18 CL   UNL     1       2.827  11.301  -4.643  0.00  0.00    -0.084 Cl
ENDBRANCH   9  12
BRANCH   8  19
ATOM     19  C   UNL     1       0.224   5.453  -4.872  0.00  0.00    +0.451 C 
ATOM     20  F   UNL     1       0.778   6.234  -5.891  0.00  0.00    -0.163 F 
ATOM     21  F   UNL     1      -0.680   4.538  -5.423  0.00  0.00    -0.163 F 
ATOM     22  F   UNL     1      -0.445   6.279  -3.962  0.00  0.00    -0.163 F 
ENDBRANCH   8  19
BRANCH   2  23
ATOM     23  O   UNL     1       2.678  -0.830  -2.388  0.00  0.00    -0.506 OA
ATOM     24  H   UNL     1       3.022  -1.365  -3.116  0.00  0.00    +0.292 HD
ENDBRANCH   2  23
BRANCH   1  25
ATOM     25  C   UNL     1       0.660   0.619  -3.714  0.00  0.00    -0.035 C 
BRANCH  25  31
ATOM     26  C   UNL     1      -1.548  -0.157  -3.094  0.00  0.00    -0.068 C 
ATOM     27  C   UNL     1      -2.502  -0.349  -1.913  0.00  0.00    -0.015 C 
ATOM     28  C   UNL     1      -2.867   1.019  -1.330  0.00  0.00    -0.003 C 
ATOM     29  C   UNL     1      -1.585   1.743  -0.908  0.00  0.00    -0.019 C 
ATOM     30  C   UNL     1      -0.658   1.875  -2.118  0.00  0.00    -0.078 C 
ATOM     31  N   UNL     1      -0.325   0.523  -2.617  0.00  0.00    +0.384 N 
ATOM     32  H   UNL     1       0.082  -0.024  -1.850  0.00  0.00    -0.081 HD
BRANCH  26  34
ATOM     33  C   UNL     1      -2.421  -2.230  -4.181  0.00  0.00    +0.002 C 
ATOM     34  C   UNL     1      -1.165  -1.523  -3.668  0.00  0.00    -0.019 C 
ENDBRANCH  26  34
ENDBRANCH  25  31
ENDBRANCH   1  25
TORSDOF 6
