REMARK  Name = ZINC18068097
REMARK  7 active torsions:
REMARK  status: ('A' for Active; 'I' for Inactive)
REMARK    1  A    between atoms: C_1  and  C_2
REMARK    2  A    between atoms: C_2  and  C_31
REMARK    3  A    between atoms: C_4  and  N_10
REMARK    4  A    between atoms: C_6  and  C_8
REMARK    5  A    between atoms: C_6  and  C_9
REMARK    6  A    between atoms: N_10  and  C_11
REMARK    7  A    between atoms: C_13  and  C_27
REMARK                            x       y       z     vdW  Elec       q    Type
REMARK                         _______ _______ _______ _____ _____    ______ ____
ROOT
ATOM      1  C   UNL     1      -4.546  -0.473   1.785  0.00  0.00    +0.083 C 
ATOM      2  C   UNL     1      -5.821  -0.991   1.634  0.00  0.00    +0.084 C 
ATOM      3  C   UNL     1      -6.261  -2.030   0.691  0.00  0.00    +0.175 C 
ATOM      4  N   UNL     1      -7.531  -2.219   0.880  0.00  0.00    -0.165 NA
ATOM      5  N   UNL     1      -8.023  -1.390   1.887  0.00  0.00    -0.131 N 
ATOM      6  C   UNL     1      -7.029  -0.627   2.386  0.00  0.00    +0.275 C 
ATOM      7  O   UNL     1      -7.116   0.200   3.278  0.00  0.00    -0.268 OA
ATOM      8  C   UNL     1      -9.341  -1.359   2.318  0.00  0.00    +0.189 A 
ATOM      9  N   UNL     1      -9.886  -0.610   3.249  0.00  0.00    -0.223 NA
ATOM     10  C   UNL     1     -11.195  -0.686   3.568  0.00  0.00    +0.080 A 
ATOM     11  C   UNL     1     -11.902   0.057   4.542  0.00  0.00    +0.029 A 
ATOM     12  C   UNL     1     -13.242  -0.146   4.741  0.00  0.00    +0.002 A 
ATOM     13  C   UNL     1     -13.952  -1.081   4.001  0.00  0.00    +0.001 A 
ATOM     14  C   UNL     1     -13.294  -1.825   3.039  0.00  0.00    +0.017 A 
ATOM     15  C   UNL     1     -11.951  -1.629   2.833  0.00  0.00    +0.041 A 
ATOM     16  S   UNL     1     -10.732  -2.322   1.742  0.00  0.00    -0.050 S 
ENDROOT
BRANCH   3  17
ATOM     17  C   UNL     1      -5.394  -2.746  -0.312  0.00  0.00    +0.436 C 
ATOM     18  F   UNL     1      -6.169  -3.664  -1.028  0.00  0.00    -0.164 F 
ATOM     19  F   UNL     1      -4.838  -1.816  -1.197  0.00  0.00    -0.164 F 
ATOM     20  F   UNL     1      -4.368  -3.424   0.357  0.00  0.00    -0.164 F 
ENDBRANCH   3  17
BRANCH   1  21
ATOM     21  N   UNL     1      -3.540  -0.922   1.007  0.00  0.00    -0.346 N 
ATOM     22  H   UNL     1      -3.710  -1.608   0.342  0.00  0.00    +0.146 HD
BRANCH  21  26
ATOM     23  C   UNL     1      -0.019   1.528   0.010  0.00  0.00    -0.010 C 
ATOM     24  C   UNL     1       0.002  -0.004   0.002  0.00  0.00    -0.072 C 
ATOM     25  C   UNL     1      -1.419  -0.538  -0.145  0.00  0.00    +0.009 C 
ATOM     26  C   UNL     1      -2.188  -0.373   1.166  0.00  0.00    +0.067 C 
ATOM     27  C   UNL     1      -1.451  -1.155   2.253  0.00  0.00    +0.009 C 
ATOM     28  C   UNL     1      -0.030  -0.627   2.418  0.00  0.00    -0.072 C 
ATOM     29  N   UNL     1       0.697  -0.529   1.164  0.00  0.00    +0.386 N 
ATOM     30  C   UNL     1       0.730  -1.621   3.326  0.00  0.00    -0.010 C 
ATOM     31  C   UNL     1      -0.059   0.719   3.151  0.00  0.00    -0.010 C 
ATOM     32  C   UNL     1       0.791  -0.440  -1.254  0.00  0.00    -0.010 C 
ATOM     33  H   UNL     1       1.056  -1.460   0.929  0.00  0.00    -0.084 HD
ATOM     34  H   UNL     1       1.534   0.040   1.322  0.00  0.00    -0.084 HD
ENDBRANCH  21  26
ENDBRANCH   1  21
TORSDOF 3
