REMARK  Name = ZINC13065034
REMARK  11 active torsions:
REMARK  status: ('A' for Active; 'I' for Inactive)
REMARK    1  A    between atoms: C_1  and  C_2
REMARK    2  A    between atoms: C_2  and  C_3
REMARK    3  A    between atoms: C_3  and  C_5
REMARK    4  A    between atoms: C_3  and  N_72
REMARK    5  A    between atoms: N_9  and  C_10
REMARK    6  A    between atoms: C_16  and  C_17
REMARK    7  A    between atoms: C_16  and  N_72
REMARK    8  A    between atoms: C_23  and  C_24
REMARK    9  A    between atoms: C_23  and  N_72
REMARK   10  A    between atoms: C_29  and  C_37
REMARK   11  A    between atoms: C_30  and  C_36
REMARK                            x       y       z     vdW  Elec       q    Type
REMARK                         _______ _______ _______ _____ _____    ______ ____
ROOT
ATOM      1  N   UNL     1       4.112  -0.591  -1.550  0.00  0.00    +0.392 N 
ATOM      2  H   UNL     1       4.089   0.398  -1.828  0.00  0.00    -0.080 HD
ENDROOT
BRANCH   1   3
ATOM      3  C   UNL     1       5.362  -1.200  -2.051  0.00  0.00    +0.003 C 
BRANCH   3   4
ATOM      4  C   UNL     1       5.350  -2.690  -1.826  0.00  0.00    +0.138 A 
ATOM      5  N   UNL     1       4.383  -3.520  -2.133  0.00  0.00    -0.115 NA
ATOM      6  N   UNL     1       4.750  -4.705  -1.785  0.00  0.00    -0.023 NA
ATOM      7  N   UNL     1       5.926  -4.653  -1.265  0.00  0.00    -0.044 NA
ATOM      8  N   UNL     1       6.332  -3.429  -1.278  0.00  0.00    -0.228 N 
BRANCH   8   9
ATOM      9  C   UNL     1       7.620  -2.934  -0.784  0.00  0.00    +0.111 C 
ATOM     10  C   UNL     1       8.756  -3.607  -1.557  0.00  0.00    +0.027 C 
ATOM     11  C   UNL     1      10.100  -3.091  -1.041  0.00  0.00    +0.002 C 
ATOM     12  C   UNL     1      10.234  -3.416   0.448  0.00  0.00    +0.000 C 
ATOM     13  C   UNL     1       9.099  -2.743   1.221  0.00  0.00    +0.002 C 
ATOM     14  C   UNL     1       7.754  -3.259   0.705  0.00  0.00    +0.027 C 
ENDBRANCH   8   9
ENDBRANCH   3   4
BRANCH   3  16
ATOM     15  C   UNL     1       5.584   0.600  -3.769  0.00  0.00    +0.002 C 
ATOM     16  C   UNL     1       5.487  -0.911  -3.548  0.00  0.00    -0.011 C 
ENDBRANCH   3  16
ENDBRANCH   1   3
BRANCH   1  17
ATOM     17  C   UNL     1       4.064  -0.676  -0.075  0.00  0.00    -0.042 C 
BRANCH  17  18
ATOM     18  C   UNL     1       4.966   0.387   0.499  0.00  0.00    -0.064 A 
ATOM     19  C   UNL     1       4.503   1.681   0.645  0.00  0.00    +0.002 A 
ATOM     20  C   UNL     1       5.330   2.656   1.171  0.00  0.00    +0.000 A 
ATOM     21  C   UNL     1       6.619   2.336   1.553  0.00  0.00    +0.000 A 
ATOM     22  C   UNL     1       7.082   1.041   1.408  0.00  0.00    +0.000 A 
ATOM     23  C   UNL     1       6.255   0.067   0.881  0.00  0.00    +0.002 A 
ENDBRANCH  17  18
ENDBRANCH   1  17
BRANCH   1  24
ATOM     24  C   UNL     1       2.944  -1.282  -2.134  0.00  0.00    -0.036 C 
BRANCH  24  25
ATOM     25  C   UNL     1       1.742  -0.379  -2.019  0.00  0.00    +0.001 A 
ATOM     26  C   UNL     1       1.435   0.468  -3.032  0.00  0.00    +0.017 A 
ATOM     27  C   UNL     1       0.259   1.329  -2.891  0.00  0.00    -0.001 A 
ATOM     28  C   UNL     1      -0.112   2.219  -3.904  0.00  0.00    +0.010 A 
ATOM     29  C   UNL     1      -1.212   3.012  -3.740  0.00  0.00    +0.004 A 
ATOM     30  C   UNL     1      -1.966   2.942  -2.576  0.00  0.00    -0.046 A 
ATOM     31  C   UNL     1      -1.620   2.072  -1.565  0.00  0.00    -0.024 A 
ATOM     32  C   UNL     1      -0.503   1.254  -1.710  0.00  0.00    +0.052 A 
ATOM     33  N   UNL     1      -0.134   0.375  -0.715  0.00  0.00    -0.322 N 
ATOM     34  H   UNL     1      -0.661   0.325   0.099  0.00  0.00    +0.169 HD
ATOM     35  C   UNL     1       0.945  -0.415  -0.855  0.00  0.00    +0.251 A 
ATOM     36  O   UNL     1       1.242  -1.181   0.045  0.00  0.00    -0.268 OA
ATOM     37  C   UNL     1      -2.448   2.005  -0.308  0.00  0.00    +0.046 C 
ATOM     38  C   UNL     1      -3.176   3.826  -2.417  0.00  0.00    +0.044 C 
ENDBRANCH  24  25
ENDBRANCH   1  24
TORSDOF 8
