REMARK  Name = ZINC13097193
REMARK  10 active torsions:
REMARK  status: ('A' for Active; 'I' for Inactive)
REMARK    1  A    between atoms: C_1  and  C_2
REMARK    2  A    between atoms: C_2  and  C_3
REMARK    3  A    between atoms: C_3  and  N_4
REMARK    4  A    between atoms: N_4  and  C_5
REMARK    5  A    between atoms: N_4  and  C_19
REMARK    6  A    between atoms: C_5  and  C_6
REMARK    7  A    between atoms: C_19  and  C_20
REMARK    8  A    between atoms: N_22  and  C_23
REMARK    9  A    between atoms: C_25  and  N_30
REMARK   10  A    between atoms: C_28  and  C_29
REMARK                            x       y       z     vdW  Elec       q    Type
REMARK                         _______ _______ _______ _____ _____    ______ ____
ROOT
ATOM      1  N   UNL     1       0.836  -1.952  -1.192  0.00  0.00    +0.390 N 
ATOM      2  H   UNL     1       1.208  -2.189  -0.284  0.00  0.00    -0.081 HD
ENDROOT
BRANCH   1   3
ATOM      3  C   UNL     1       0.718  -0.492  -1.306  0.00  0.00    -0.078 C 
BRANCH   3   5
ATOM      4  C   UNL     1      -0.123   1.575  -0.183  0.00  0.00    +0.002 C 
ATOM      5  C   UNL     1      -0.112   0.046  -0.139  0.00  0.00    -0.022 C 
ENDBRANCH   3   5
ENDBRANCH   1   3
BRANCH   1   6
ATOM      6  C   UNL     1       1.738  -2.454  -2.237  0.00  0.00    -0.003 C 
BRANCH   6   7
ATOM      7  C   UNL     1       3.128  -1.921  -1.999  0.00  0.00    +0.094 A 
ATOM      8  N   UNL     1       4.110  -2.271  -2.870  0.00  0.00    -0.312 N 
ATOM      9  H   UNL     1       3.903  -2.850  -3.620  0.00  0.00    +0.170 HD
ATOM     10  C   UNL     1       5.375  -1.819  -2.701  0.00  0.00    +0.259 A 
ATOM     11  O   UNL     1       6.264  -2.125  -3.474  0.00  0.00    -0.267 OA
ATOM     12  C   UNL     1       5.632  -0.944  -1.548  0.00  0.00    +0.065 A 
ATOM     13  C   UNL     1       6.899  -0.426  -1.285  0.00  0.00    +0.017 A 
ATOM     14  C   UNL     1       7.085   0.389  -0.190  0.00  0.00    +0.021 A 
ATOM     15  C   UNL     1       6.021   0.697   0.651  0.00  0.00    +0.043 A 
ATOM     16  C   UNL     1       4.761   0.194   0.407  0.00  0.00    +0.048 A 
ATOM     17  C   UNL     1       4.549  -0.634  -0.696  0.00  0.00    +0.079 A 
ATOM     18  N   UNL     1       3.324  -1.146  -0.976  0.00  0.00    -0.236 NA
ATOM     19 CL   UNL     1       6.284   1.726   2.024  0.00  0.00    -0.083 Cl
ENDBRANCH   6   7
ENDBRANCH   1   6
BRANCH   1  20
ATOM     20  C   UNL     1      -0.489  -2.565  -1.353  0.00  0.00    +0.019 C 
BRANCH  20  21
ATOM     21  C   UNL     1      -0.400  -4.039  -1.052  0.00  0.00    +0.201 C 
ATOM     22  O   UNL     1       0.672  -4.541  -0.787  0.00  0.00    -0.278 OA
ATOM     23  N   UNL     1      -1.513  -4.800  -1.076  0.00  0.00    -0.287 N 
ATOM     24  H   UNL     1      -2.358  -4.414  -1.353  0.00  0.00    +0.155 HD
BRANCH  23  25
ATOM     25  C   UNL     1      -1.448  -6.146  -0.702  0.00  0.00    +0.038 A 
ATOM     26  C   UNL     1      -0.257  -6.849  -0.837  0.00  0.00    +0.056 A 
ATOM     27  C   UNL     1      -0.196  -8.178  -0.466  0.00  0.00    +0.128 A 
ATOM     28  C   UNL     1      -1.319  -8.809   0.039  0.00  0.00    +0.033 A 
ATOM     29  C   UNL     1      -2.505  -8.112   0.175  0.00  0.00    +0.007 A 
ATOM     30  C   UNL     1      -2.571  -6.781  -0.189  0.00  0.00    -0.029 A 
ATOM     31  C   UNL     1      -3.862  -6.020  -0.034  0.00  0.00    +0.045 C 
BRANCH  27  32
ATOM     32  N   UNL     1       1.071  -8.929  -0.610  0.00  0.00    +0.056 N 
ATOM     33  O   UNL     1       2.053  -8.378  -1.052  0.00  0.00    -0.126 OA
ATOM     34  O   UNL     1       1.125 -10.092  -0.286  0.00  0.00    -0.126 OA
ENDBRANCH  27  32
ENDBRANCH  23  25
ENDBRANCH  20  21
ENDBRANCH   1  20
TORSDOF 8
