REMARK  Name = ZINC09781010
REMARK  7 active torsions:
REMARK  status: ('A' for Active; 'I' for Inactive)
REMARK    1  A    between atoms: C_1  and  N_2
REMARK    2  A    between atoms: N_2  and  C_3
REMARK    3  A    between atoms: N_2  and  C_4
REMARK    4  A    between atoms: C_7  and  C_10
REMARK    5  A    between atoms: C_17  and  S_28
REMARK    6  A    between atoms: S_28  and  C_29
REMARK    7  A    between atoms: C_29  and  C_30
REMARK                            x       y       z     vdW  Elec       q    Type
REMARK                         _______ _______ _______ _____ _____    ______ ____
ROOT
ATOM      1  C   UNL     1      -6.302   2.426   1.132  0.00  0.00    +0.092 C 
ATOM      2  C   UNL     1      -6.952   1.524   2.138  0.00  0.00    +0.069 A 
ATOM      3  C   UNL     1      -7.131   0.164   1.856  0.00  0.00    +0.258 A 
ATOM      4  O   UNL     1      -6.763  -0.305   0.790  0.00  0.00    -0.267 OA
ATOM      5  N   UNL     1      -7.718  -0.620   2.785  0.00  0.00    -0.302 N 
ATOM      6  H   UNL     1      -7.853  -1.564   2.608  0.00  0.00    +0.171 HD
ATOM      7  C   UNL     1      -8.123  -0.087   3.972  0.00  0.00    +0.171 A 
ATOM      8  N   UNL     1      -7.958   1.192   4.241  0.00  0.00    -0.208 NA
ATOM      9  C   UNL     1      -7.386   2.016   3.356  0.00  0.00    +0.135 A 
ATOM     10  N   UNL     1      -7.223   3.355   3.649  0.00  0.00    -0.302 N 
ATOM     11  C   UNL     1      -7.012   4.267   2.651  0.00  0.00    +0.017 C 
ATOM     12  C   UNL     1      -6.581   3.877   1.434  0.00  0.00    +0.024 C 
ATOM     13  C   UNL     1      -6.379   4.812   0.403  0.00  0.00    +0.162 C 
ATOM     14  O   UNL     1      -5.984   4.428  -0.680  0.00  0.00    -0.292 OA
ATOM     15  C   UNL     1      -6.641   6.277   0.614  0.00  0.00    +0.080 C 
ATOM     16  C   UNL     1      -7.728   6.440   1.682  0.00  0.00    +0.014 C 
ATOM     17  C   UNL     1      -7.269   5.724   2.954  0.00  0.00    +0.051 C 
ATOM     18  H   UNL     1      -7.259   3.652   4.572  0.00  0.00    +0.153 HD
ENDROOT
BRANCH   1  22
ATOM     19  C   UNL     1      -2.079   1.772   1.193  0.00  0.00    +0.029 A 
ATOM     20  C   UNL     1      -2.731   2.215   2.337  0.00  0.00    +0.023 A 
ATOM     21  C   UNL     1      -4.095   2.430   2.312  0.00  0.00    +0.006 A 
ATOM     22  C   UNL     1      -4.813   2.196   1.153  0.00  0.00    -0.035 A 
ATOM     23  C   UNL     1      -4.167   1.750   0.014  0.00  0.00    +0.006 A 
ATOM     24  C   UNL     1      -2.802   1.538   0.031  0.00  0.00    +0.023 A 
BRANCH  19  26
ATOM     25  C   UNL     1      -0.013   1.086   0.008  0.00  0.00    +0.129 C 
ATOM     26  N   UNL     1      -0.698   1.558   1.213  0.00  0.00    -0.336 N 
ATOM     27  C   UNL     1       0.063   1.806   2.440  0.00  0.00    +0.129 C 
ENDBRANCH  19  26
ENDBRANCH   1  22
BRANCH   7  28
ATOM     28  S   UNL     1      -8.882  -1.130   5.172  0.00  0.00    -0.083 S 
BRANCH  28  29
ATOM     29  C   UNL     1      -9.193   0.076   6.485  0.00  0.00    +0.114 C 
BRANCH  29  30
ATOM     30  C   UNL     1      -9.857  -0.610   7.651  0.00  0.00    -0.019 A 
ATOM     31  C   UNL     1     -11.236  -0.682   7.716  0.00  0.00    +0.006 A 
ATOM     32  C   UNL     1     -11.845  -1.315   8.783  0.00  0.00    +0.000 A 
ATOM     33  C   UNL     1     -11.077  -1.869   9.790  0.00  0.00    +0.001 A 
ATOM     34  C   UNL     1      -9.698  -1.793   9.729  0.00  0.00    +0.020 A 
ATOM     35  C   UNL     1      -9.087  -1.163   8.659  0.00  0.00    +0.045 A 
ATOM     36 CL   UNL     1      -7.356  -1.066   8.581  0.00  0.00    -0.083 Cl
ENDBRANCH  29  30
ENDBRANCH  28  29
ENDBRANCH   7  28
TORSDOF 5
