REMARK  Name = ZINC12659573
REMARK  9 active torsions:
REMARK  status: ('A' for Active; 'I' for Inactive)
REMARK    1  A    between atoms: C_1  and  C_2
REMARK    2  A    between atoms: C_5  and  O_44
REMARK    3  A    between atoms: C_18  and  C_43
REMARK    4  A    between atoms: C_23  and  C_24
REMARK    5  A    between atoms: C_24  and  C_26
REMARK    6  A    between atoms: C_26  and  C_27
REMARK    7  A    between atoms: C_34  and  O_35
REMARK    8  A    between atoms: O_35  and  C_36
REMARK    9  A    between atoms: C_42  and  N_84
REMARK                            x       y       z     vdW  Elec       q    Type
REMARK                         _______ _______ _______ _____ _____    ______ ____
ROOT
ATOM      1  C   UNL     1       0.413  -0.954   2.935  0.00  0.00    +0.012 C 
ATOM      2  C   UNL     1       1.089  -1.411   1.641  0.00  0.00    -0.026 C 
ATOM      3  C   UNL     1       2.586  -1.102   1.712  0.00  0.00    +0.010 C 
ATOM      4  C   UNL     1       2.787   0.404   1.895  0.00  0.00    +0.032 C 
ATOM      5  C   UNL     1       2.167   1.148   0.710  0.00  0.00    +0.115 C 
ATOM      6  C   UNL     1       0.671   0.837   0.637  0.00  0.00    +0.035 C 
ATOM      7  C   UNL     1       0.471  -0.669   0.454  0.00  0.00    -0.002 C 
ATOM      8  C   UNL     1      -1.025  -0.979   0.380  0.00  0.00    +0.004 C 
ATOM      9  C   UNL     1      -1.242  -2.486   0.229  0.00  0.00    +0.004 C 
ATOM     10  C   UNL     1      -0.609  -3.226   1.409  0.00  0.00    -0.003 C 
ATOM     11  C   UNL     1       0.885  -2.917   1.465  0.00  0.00    -0.001 C 
ATOM     12  C   UNL     1       1.538  -3.366   0.152  0.00  0.00    +0.005 C 
ATOM     13  C   UNL     1       1.389  -4.884   0.040  0.00  0.00    +0.012 C 
ATOM     14  C   UNL     1      -0.060  -5.302   0.058  0.00  0.00    -0.001 C 
ATOM     15  C   UNL     1      -0.854  -4.726   1.247  0.00  0.00    +0.006 C 
ATOM     16  C   UNL     1      -2.296  -4.881   0.667  0.00  0.00    +0.032 C 
ATOM     17  C   UNL     1      -2.100  -4.616  -0.815  0.00  0.00    -0.019 C 
ATOM     18  C   UNL     1      -0.828  -4.855  -1.159  0.00  0.00    -0.003 C 
ATOM     19  C   UNL     1      -0.127  -6.828   0.140  0.00  0.00    +0.016 C 
ENDROOT
BRANCH  18  20
ATOM     20  C   UNL     1      -0.272  -4.706  -2.503  0.00  0.00    +0.158 C 
ATOM     21  O   UNL     1       0.915  -4.872  -2.691  0.00  0.00    -0.292 OA
BRANCH  20  22
ATOM     22  C   UNL     1      -1.174  -4.346  -3.656  0.00  0.00    +0.069 C 
BRANCH  22  23
ATOM     23  C   UNL     1      -0.377  -4.396  -4.961  0.00  0.00    -0.027 C 
ATOM     24  C   UNL     1       0.268  -5.750  -5.098  0.00  0.00    -0.012 A 
ATOM     25  C   UNL     1       1.567  -5.896  -5.539  0.00  0.00    -0.040 A 
ATOM     26  C   UNL     1       2.122  -7.161  -5.654  0.00  0.00    +0.053 A 
ATOM     27  C   UNL     1       1.382  -8.286  -5.328  0.00  0.00    +0.170 A 
ATOM     28  C   UNL     1       0.073  -8.143  -4.881  0.00  0.00    +0.208 A 
ATOM     29  C   UNL     1      -0.480  -6.875  -4.767  0.00  0.00    +0.167 A 
ATOM     30  O   UNL     1      -0.439  -9.383  -4.625  0.00  0.00    -0.449 OA
ATOM     31  C   UNL     1       0.430 -10.306  -5.309  0.00  0.00    +0.467 C 
ATOM     32  O   UNL     1       1.693  -9.615  -5.354  0.00  0.00    -0.452 OA
ATOM     33  C   UNL     1       2.416  -4.705  -5.903  0.00  0.00    +0.017 C 
ATOM     34  C   UNL     1       1.530  -3.476  -6.112  0.00  0.00    -0.074 C 
ATOM     35  C   UNL     1       0.018  -2.010  -4.914  0.00  0.00    -0.095 C 
ATOM     36  N   UNL     1       0.655  -3.346  -4.930  0.00  0.00    +0.383 N 
ATOM     37  H   UNL     1       1.220  -3.457  -4.080  0.00  0.00    -0.081 HD
BRANCH  29  38
ATOM     38  O   UNL     1      -1.760  -6.732  -4.330  0.00  0.00    -0.491 OA
ATOM     39  C   UNL     1      -2.788  -6.738  -5.322  0.00  0.00    +0.277 C 
ENDBRANCH  29  38
ENDBRANCH  22  23
ENDBRANCH  20  22
ENDBRANCH  18  20
BRANCH   5  40
ATOM     40  O   UNL     1       2.353   2.554   0.882  0.00  0.00    -0.392 OA
ATOM     41  H   UNL     1       3.280   2.825   0.937  0.00  0.00    +0.210 HD
ENDBRANCH   5  40
TORSDOF 5
