REMARK  Name = ZINC02922495
REMARK  7 active torsions:
REMARK  status: ('A' for Active; 'I' for Inactive)
REMARK    1  A    between atoms: C_1  and  C_2
REMARK    2  A    between atoms: C_7  and  N_8
REMARK    3  A    between atoms: C_9  and  C_11
REMARK    4  A    between atoms: C_12  and  C_32
REMARK    5  A    between atoms: N_18  and  C_21
REMARK    6  A    between atoms: C_21  and  C_22
REMARK    7  A    between atoms: C_29  and  C_31
REMARK                            x       y       z     vdW  Elec       q    Type
REMARK                         _______ _______ _______ _____ _____    ______ ____
ROOT
ATOM      1  C   UNL     1      -6.582   9.744   1.706  0.00  0.00    +0.080 A 
ATOM      2  C   UNL     1      -5.367   9.134   1.821  0.00  0.00    -0.017 A 
ATOM      3  C   UNL     1      -5.288   7.739   1.829  0.00  0.00    +0.076 A 
ATOM      4  C   UNL     1      -6.519   7.052   1.715  0.00  0.00    +0.116 A 
ATOM      5  S   UNL     1      -7.709   8.364   1.602  0.00  0.00    -0.064 S 
ATOM      6  N   UNL     1      -6.582   5.727   1.710  0.00  0.00    -0.230 NA
ATOM      7  C   UNL     1      -5.510   4.990   1.812  0.00  0.00    +0.203 A 
ATOM      8  N   UNL     1      -4.274   5.535   1.926  0.00  0.00    -0.290 N 
ATOM      9  C   UNL     1      -4.095   6.870   1.947  0.00  0.00    +0.263 A 
ATOM     10  O   UNL     1      -2.981   7.350   2.055  0.00  0.00    -0.267 OA
ATOM     11  C   UNL     1      -4.113   9.962   1.937  0.00  0.00    +0.046 C 
ENDROOT
BRANCH   1  13
ATOM     12  N   UNL     1      -8.162  11.594   1.556  0.00  0.00    -0.281 N 
ATOM     13  C   UNL     1      -6.886  11.178   1.676  0.00  0.00    +0.255 C 
ATOM     14  O   UNL     1      -5.985  11.993   1.760  0.00  0.00    -0.269 OA
ATOM     15  H   UNL     1      -8.885  10.947   1.559  0.00  0.00    +0.155 HD
BRANCH  12  22
ATOM     16  C   UNL     1     -10.369  12.363  -0.066  0.00  0.00    +0.046 C 
ATOM     17  C   UNL     1      -9.512  13.377   0.646  0.00  0.00    -0.028 A 
ATOM     18  C   UNL     1      -9.791  14.725   0.526  0.00  0.00    +0.020 A 
ATOM     19  C   UNL     1      -9.001  15.657   1.175  0.00  0.00    +0.018 A 
ATOM     20  C   UNL     1      -7.933  15.242   1.951  0.00  0.00    +0.017 A 
ATOM     21  C   UNL     1      -7.653  13.896   2.079  0.00  0.00    +0.024 A 
ATOM     22  C   UNL     1      -8.444  12.958   1.429  0.00  0.00    +0.037 A 
ATOM     23 BR   UNL     1      -9.383  17.501   1.002  0.00  0.00    -0.050 Br
ENDBRANCH  12  22
ENDBRANCH   1  13
BRANCH   8  24
ATOM     24  C   UNL     1      -3.109   4.653   2.036  0.00  0.00    +0.222 C 
BRANCH  24  25
ATOM     25  C   UNL     1      -2.577   4.349   0.659  0.00  0.00    +0.236 C 
ATOM     26  O   UNL     1      -3.118   4.822  -0.318  0.00  0.00    -0.274 OA
ATOM     27  N   UNL     1      -1.500   3.552   0.514  0.00  0.00    -0.297 N 
ATOM     28  C   UNL     1      -0.898   2.887   1.678  0.00  0.00    +0.108 C 
ATOM     29  C   UNL     1      -0.808   1.384   1.395  0.00  0.00    +0.019 C 
ATOM     30  C   UNL     1      -0.053   1.160   0.083  0.00  0.00    +0.003 C 
ATOM     31  C   UNL     1      -0.816   1.823  -1.066  0.00  0.00    +0.022 C 
ATOM     32  C   UNL     1      -0.906   3.331  -0.812  0.00  0.00    +0.073 C 
ATOM     33  C   UNL     1      -1.786   3.980  -1.883  0.00  0.00    +0.028 C 
ENDBRANCH  24  25
ENDBRANCH   8  24
TORSDOF 4
