REMARK  Name = ZINC34774836
REMARK  6 active torsions:
REMARK  status: ('A' for Active; 'I' for Inactive)
REMARK    1  A    between atoms: C_2  and  C_3
REMARK    2  A    between atoms: C_3  and  N_4
REMARK    3  A    between atoms: C_12  and  C_29
REMARK    4  A    between atoms: C_17  and  S_19
REMARK    5  A    between atoms: S_19  and  C_20
REMARK    6  A    between atoms: C_20  and  C_21
REMARK                            x       y       z     vdW  Elec       q    Type
REMARK                         _______ _______ _______ _____ _____    ______ ____
ROOT
ATOM      1  N   UNL     1       0.528  -1.557   3.412  0.00  0.00    +0.384 N 
ATOM      2  C   UNL     1       1.095  -2.217   4.595  0.00  0.00    -0.059 C 
ATOM      3  C   UNL     1       2.243  -3.136   4.166  0.00  0.00    +0.088 C 
ATOM      4  N   UNL     1       1.741  -4.060   3.136  0.00  0.00    -0.318 N 
ATOM      5  C   UNL     1       1.013  -3.492   1.991  0.00  0.00    +0.088 C 
ATOM      6  C   UNL     1      -0.077  -2.556   2.523  0.00  0.00    -0.059 C 
ATOM      7  C   UNL     1       1.947  -5.423   3.243  0.00  0.00    +0.134 A 
ATOM      8  C   UNL     1       3.233  -5.976   2.996  0.00  0.00    +0.055 A 
ATOM      9  C   UNL     1       4.475  -5.308   2.620  0.00  0.00    +0.002 A 
ATOM     10  C   UNL     1       5.588  -6.056   2.438  0.00  0.00    +0.056 A 
ATOM     11  S   UNL     1       5.029  -7.718   2.763  0.00  0.00    -0.076 S 
ATOM     12  C   UNL     1       3.330  -7.376   3.134  0.00  0.00    +0.115 A 
ATOM     13  N   UNL     1       2.286  -8.109   3.471  0.00  0.00    -0.214 NA
ATOM     14  C   UNL     1       1.109  -7.538   3.689  0.00  0.00    +0.191 A 
ATOM     15  N   UNL     1       0.951  -6.224   3.582  0.00  0.00    -0.206 NA
ATOM     16  H   UNL     1       1.262  -1.070   2.919  0.00  0.00    -0.081 HD
ENDROOT
BRANCH   9  17
ATOM     17  C   UNL     1       4.517  -3.838   2.440  0.00  0.00    -0.017 A 
ATOM     18  C   UNL     1       3.708  -3.226   1.482  0.00  0.00    +0.008 A 
ATOM     19  C   UNL     1       3.751  -1.857   1.320  0.00  0.00    +0.001 A 
ATOM     20  C   UNL     1       4.594  -1.090   2.104  0.00  0.00    +0.000 A 
ATOM     21  C   UNL     1       5.399  -1.691   3.056  0.00  0.00    +0.001 A 
ATOM     22  C   UNL     1       5.360  -3.059   3.232  0.00  0.00    +0.008 A 
ENDBRANCH   9  17
BRANCH   1  23
ATOM     23  C   UNL     1      -0.498  -0.594   3.835  0.00  0.00    -0.052 C 
BRANCH  23  25
ATOM     24  C   UNL     1      -0.015   1.754   4.299  0.00  0.00    +0.002 C 
ATOM     25  C   UNL     1       0.145   0.501   4.647  0.00  0.00    -0.053 C 
ENDBRANCH  23  25
ENDBRANCH   1  23
BRANCH  14  26
ATOM     26  S   UNL     1      -0.269  -8.542   4.137  0.00  0.00    -0.077 S 
BRANCH  26  27
ATOM     27  C   UNL     1       0.406 -10.225   4.168  0.00  0.00    +0.173 C 
BRANCH  27  28
ATOM     28  C   UNL     1      -0.684 -11.196   4.542  0.00  0.00    +0.226 C 
ATOM     29  O   UNL     1      -1.806 -10.792   4.766  0.00  0.00    -0.275 OA
ATOM     30  N   UNL     1      -0.413 -12.514   4.628  0.00  0.00    -0.301 N 
ATOM     31  C   UNL     1       0.942 -13.017   4.365  0.00  0.00    +0.108 C 
ATOM     32  C   UNL     1       1.395 -13.861   5.561  0.00  0.00    +0.019 C 
ATOM     33  C   UNL     1       0.359 -14.955   5.830  0.00  0.00    +0.003 C 
ATOM     34  C   UNL     1      -0.986 -14.312   6.175  0.00  0.00    +0.019 C 
ATOM     35  C   UNL     1      -1.465 -13.473   4.992  0.00  0.00    +0.108 C 
ENDBRANCH  27  28
ENDBRANCH  26  27
ENDBRANCH  14  26
TORSDOF 6
