REMARK  Name = ZINC35424892
REMARK  10 active torsions:
REMARK  status: ('A' for Active; 'I' for Inactive)
REMARK    1  A    between atoms: C_1  and  C_2
REMARK    2  A    between atoms: C_2  and  C_3
REMARK    3  A    between atoms: C_6  and  O_9
REMARK    4  A    between atoms: O_9  and  C_10
REMARK    5  A    between atoms: N_13  and  C_24
REMARK    6  A    between atoms: C_24  and  C_25
REMARK    7  A    between atoms: N_27  and  C_28
REMARK    8  A    between atoms: C_33  and  O_34
REMARK    9  A    between atoms: O_34  and  C_35
REMARK   10  A    between atoms: C_35  and  C_36
REMARK                            x       y       z     vdW  Elec       q    Type
REMARK                         _______ _______ _______ _____ _____    ______ ____
ROOT
ATOM      1  C   UNL     1       3.961  -1.930  -4.599  0.00  0.00    +0.267 A 
ATOM      2  C   UNL     1       4.705  -2.281  -5.816  0.00  0.00    +0.225 A 
ATOM      3  N   UNL     1       4.330  -2.553  -7.038  0.00  0.00    -0.143 NA
ATOM      4  N   UNL     1       5.479  -2.820  -7.795  0.00  0.00    -0.203 N 
ATOM      5  C   UNL     1       6.545  -2.695  -6.977  0.00  0.00    +0.352 A 
ATOM      6  O   UNL     1       7.712  -2.853  -7.288  0.00  0.00    -0.244 OA
ATOM      7  N   UNL     1       6.088  -2.364  -5.755  0.00  0.00    -0.238 N 
ATOM      8  C   UNL     1       6.722  -2.112  -4.541  0.00  0.00    +0.079 A 
ATOM      9  C   UNL     1       8.104  -2.186  -4.445  0.00  0.00    +0.028 A 
ATOM     10  C   UNL     1       8.728  -1.935  -3.239  0.00  0.00    +0.002 A 
ATOM     11  C   UNL     1       7.981  -1.608  -2.119  0.00  0.00    +0.002 A 
ATOM     12  C   UNL     1       6.608  -1.530  -2.195  0.00  0.00    +0.030 A 
ATOM     13  C   UNL     1       5.960  -1.781  -3.410  0.00  0.00    +0.092 A 
ATOM     14  N   UNL     1       4.604  -1.697  -3.483  0.00  0.00    -0.208 NA
ENDROOT
BRANCH   1  15
ATOM     15  O   UNL     1       2.610  -1.842  -4.633  0.00  0.00    -0.435 OA
BRANCH  15  19
ATOM     16  C   UNL     1       0.669  -0.524  -1.240  0.00  0.00    -0.047 A 
ATOM     17  C   UNL     1       1.510   0.330  -1.930  0.00  0.00    +0.007 A 
ATOM     18  C   UNL     1       2.161  -0.109  -3.066  0.00  0.00    +0.046 A 
ATOM     19  C   UNL     1       1.971  -1.408  -3.515  0.00  0.00    +0.131 A 
ATOM     20  C   UNL     1       1.127  -2.263  -2.821  0.00  0.00    +0.046 A 
ATOM     21  C   UNL     1       0.482  -1.821  -1.683  0.00  0.00    +0.007 A 
BRANCH  16  23
ATOM     22  C   UNL     1       0.834  -0.316   1.226  0.00  0.00    +0.009 C 
ATOM     23  C   UNL     1      -0.040  -0.043  -0.000  0.00  0.00    +0.032 C 
ENDBRANCH  16  23
ENDBRANCH  15  19
ENDBRANCH   1  15
BRANCH   4  24
ATOM     24  C   UNL     1       5.516  -3.170  -9.217  0.00  0.00    +0.244 C 
BRANCH  24  25
ATOM     25  C   UNL     1       5.431  -4.667  -9.368  0.00  0.00    +0.239 C 
ATOM     26  O   UNL     1       5.347  -5.372  -8.384  0.00  0.00    -0.273 OA
ATOM     27  N   UNL     1       5.448  -5.223 -10.595  0.00  0.00    -0.281 N 
ATOM     28  H   UNL     1       5.596  -4.668 -11.377  0.00  0.00    +0.155 HD
BRANCH  27  29
ATOM     29  C   UNL     1       5.250  -6.602 -10.743  0.00  0.00    +0.076 A 
ATOM     30  C   UNL     1       4.552  -7.312  -9.777  0.00  0.00    +0.027 A 
ATOM     31  C   UNL     1       4.358  -8.672  -9.925  0.00  0.00    +0.002 A 
ATOM     32  C   UNL     1       4.859  -9.329 -11.034  0.00  0.00    +0.004 A 
ATOM     33  C   UNL     1       5.556  -8.628 -12.001  0.00  0.00    +0.047 A 
ATOM     34  C   UNL     1       5.749  -7.263 -11.863  0.00  0.00    +0.142 A 
BRANCH  34  35
ATOM     35  O   UNL     1       6.429  -6.571 -12.816  0.00  0.00    -0.490 OA
BRANCH  35  36
ATOM     36  C   UNL     1       6.912  -7.315 -13.937  0.00  0.00    +0.226 C 
ATOM     37  C   UNL     1       7.646  -6.374 -14.895  0.00  0.00    +0.048 C 
ENDBRANCH  35  36
ENDBRANCH  34  35
ENDBRANCH  27  29
ENDBRANCH  24  25
ENDBRANCH   4  24
TORSDOF 8
