REMARK  Name = ZINC02917505
REMARK  13 active torsions:
REMARK  status: ('A' for Active; 'I' for Inactive)
REMARK    1  A    between atoms: C_1  and  C_2
REMARK    2  A    between atoms: C_2  and  O_3
REMARK    3  A    between atoms: O_3  and  C_4
REMARK    4  A    between atoms: C_6  and  C_11
REMARK    5  A    between atoms: C_9  and  O_10
REMARK    6  A    between atoms: C_18  and  C_35
REMARK    7  A    between atoms: C_19  and  C_30
REMARK    8  A    between atoms: C_20  and  C_22
REMARK    9  A    between atoms: C_25  and  O_28
REMARK   10  A    between atoms: O_28  and  C_29
REMARK   11  A    between atoms: C_30  and  O_32
REMARK   12  A    between atoms: O_32  and  C_33
REMARK   13  A    between atoms: C_33  and  C_34
REMARK                            x       y       z     vdW  Elec       q    Type
REMARK                         _______ _______ _______ _____ _____    ______ ____
ROOT
ATOM      1  C   UNL     1       0.061   5.213   4.199  0.00  0.00    +0.028 C 
ATOM      2  C   UNL     1      -0.247   4.899   2.914  0.00  0.00    +0.081 A 
ATOM      3  C   UNL     1       0.001   3.656   2.171  0.00  0.00    +0.268 A 
ATOM      4  O   UNL     1       0.557   2.711   2.698  0.00  0.00    -0.266 OA
ATOM      5  N   UNL     1      -0.404   3.595   0.895  0.00  0.00    -0.275 N 
ATOM      6  C   UNL     1      -1.028   4.691   0.347  0.00  0.00    +0.178 A 
ATOM      7  N   UNL     1      -1.466   4.745  -0.885  0.00  0.00    -0.228 NA
ATOM      8  C   UNL     1      -1.368   3.759  -1.768  0.00  0.00    +0.053 C 
ATOM      9  C   UNL     1      -0.778   2.575  -1.424  0.00  0.00    +0.085 C 
ATOM     10  C   UNL     1      -0.245   2.428  -0.018  0.00  0.00    +0.162 C 
ATOM     11  C   UNL     1      -1.912   3.946  -3.161  0.00  0.00    +0.066 C 
ATOM     12  S   UNL     1      -1.062   5.887   1.669  0.00  0.00    -0.046 S 
ENDROOT
BRANCH   1  15
ATOM     13  C   UNL     1       2.112   3.488   6.822  0.00  0.00    +0.162 A 
ATOM     14  C   UNL     1       1.637   4.465   5.970  0.00  0.00    +0.057 A 
ATOM     15  C   UNL     1       0.574   4.178   5.104  0.00  0.00    -0.020 A 
ATOM     16  C   UNL     1       0.006   2.897   5.101  0.00  0.00    +0.012 A 
ATOM     17  C   UNL     1       0.489   1.928   5.952  0.00  0.00    +0.050 A 
ATOM     18  C   UNL     1       1.540   2.216   6.813  0.00  0.00    +0.158 A 
BRANCH  18  19
ATOM     19  O   UNL     1       2.013   1.256   7.650  0.00  0.00    -0.503 OA
ATOM     20  H   UNL     1       2.726   0.723   7.273  0.00  0.00    +0.292 HD
ENDBRANCH  18  19
BRANCH  13  21
ATOM     21  O   UNL     1       3.141   3.765   7.667  0.00  0.00    -0.489 OA
BRANCH  21  23
ATOM     22  C   UNL     1       4.819   5.209   8.636  0.00  0.00    +0.048 C 
ATOM     23  C   UNL     1       3.679   5.088   7.623  0.00  0.00    +0.226 C 
ENDBRANCH  21  23
ENDBRANCH  13  21
ENDBRANCH   1  15
BRANCH  10  24
ATOM     24  C   UNL     1       1.226   2.109  -0.110  0.00  0.00    -0.020 A 
ATOM     25  C   UNL     1       2.145   3.131  -0.263  0.00  0.00    +0.009 A 
ATOM     26  C   UNL     1       3.492   2.841  -0.354  0.00  0.00    +0.046 A 
ATOM     27  C   UNL     1       3.923   1.524  -0.291  0.00  0.00    +0.120 A 
ATOM     28  C   UNL     1       2.999   0.501  -0.138  0.00  0.00    +0.046 A 
ATOM     29  C   UNL     1       1.652   0.796  -0.047  0.00  0.00    +0.009 A 
BRANCH  27  30
ATOM     30  O   UNL     1       5.248   1.236  -0.380  0.00  0.00    -0.495 OA
ATOM     31  C   UNL     1       6.143   2.340  -0.537  0.00  0.00    +0.277 C 
ENDBRANCH  27  30
ENDBRANCH  10  24
BRANCH   9  32
ATOM     32  C   UNL     1      -0.670   1.526  -2.351  0.00  0.00    +0.339 C 
ATOM     33  O   UNL     1      -1.006   1.699  -3.509  0.00  0.00    -0.245 OA
BRANCH  32  34
ATOM     34  O   UNL     1      -0.194   0.324  -1.959  0.00  0.00    -0.462 OA
BRANCH  34  35
ATOM     35  C   UNL     1      -0.112  -0.698  -2.954  0.00  0.00    +0.229 C 
ATOM     36  C   UNL     1       0.446  -1.977  -2.327  0.00  0.00    +0.048 C 
ENDBRANCH  34  35
ENDBRANCH  32  34
ENDBRANCH   9  32
TORSDOF 9
