REMARK  Name = ZINC27103614
REMARK  13 active torsions:
REMARK  status: ('A' for Active; 'I' for Inactive)
REMARK    1  A    between atoms: C_1  and  N_2
REMARK    2  A    between atoms: N_2  and  C_3
REMARK    3  A    between atoms: C_3  and  C_4
REMARK    4  A    between atoms: C_4  and  C_5
REMARK    5  A    between atoms: C_5  and  C_7
REMARK    6  A    between atoms: C_5  and  O_12
REMARK    7  A    between atoms: O_12  and  C_13
REMARK    8  A    between atoms: C_16  and  O_23
REMARK    9  A    between atoms: O_23  and  C_24
REMARK   10  A    between atoms: C_26  and  O_40
REMARK   11  A    between atoms: C_28  and  O_39
REMARK   12  A    between atoms: C_30  and  O_38
REMARK   13  A    between atoms: C_32  and  C_35
REMARK                            x       y       z     vdW  Elec       q    Type
REMARK                         _______ _______ _______ _____ _____    ______ ____
ROOT
ATOM      1  C   UNL     1       3.679   3.328  -0.001  0.00  0.00    +0.129 A 
ATOM      2  C   UNL     1       3.577   1.984   0.220  0.00  0.00    +0.050 A 
ATOM      3  C   UNL     1       2.336   1.355   0.252  0.00  0.00    +0.050 A 
ATOM      4  C   UNL     1       1.184   2.062   0.052  0.00  0.00    +0.132 A 
ATOM      5  C   UNL     1       1.249   3.451  -0.179  0.00  0.00    +0.027 A 
ATOM      6  C   UNL     1       2.513   4.092  -0.206  0.00  0.00    +0.027 A 
ATOM      7  C   UNL     1       2.578   5.476  -0.437  0.00  0.00    +0.012 A 
ATOM      8  C   UNL     1       1.430   6.181  -0.631  0.00  0.00    +0.001 A 
ATOM      9  C   UNL     1       0.188   5.551  -0.604  0.00  0.00    +0.001 A 
ATOM     10  C   UNL     1       0.086   4.211  -0.384  0.00  0.00    +0.012 A 
ENDROOT
BRANCH   1  11
ATOM     11  O   UNL     1       4.900   3.926  -0.024  0.00  0.00    -0.483 OA
BRANCH  11  12
ATOM     12  C   UNL     1       6.042   3.073   0.071  0.00  0.00    +0.208 C 
BRANCH  12  13
ATOM     13  C   UNL     1       6.329   2.777   1.520  0.00  0.00    +0.030 A 
ATOM     14  C   UNL     1       6.800   1.637   2.082  0.00  0.00    +0.015 A 
ATOM     15  C   UNL     1       6.992   1.593   3.450  0.00  0.00    +0.008 A 
ATOM     16  C   UNL     1       6.694   2.688   4.191  0.00  0.00    +0.045 A 
ATOM     17  S   UNL     1       6.129   3.835   2.945  0.00  0.00    -0.098 S 
ENDBRANCH  12  13
BRANCH  12  18
ATOM     18  C   UNL     1       7.252   3.768  -0.557  0.00  0.00    +0.031 C 
BRANCH  18  19
ATOM     19  C   UNL     1       7.011   3.957  -2.056  0.00  0.00    -0.079 C 
BRANCH  19  21
ATOM     20  C   UNL     1       7.976   4.822  -4.101  0.00  0.00    -0.101 C 
ATOM     21  N   UNL     1       8.172   4.624  -2.659  0.00  0.00    +0.377 N 
ATOM     22  H   UNL     1       9.063   4.001  -2.492  0.00  0.00    -0.086 HD
ATOM     23  H   UNL     1       8.310   5.600  -2.170  0.00  0.00    -0.086 HD
ENDBRANCH  19  21
ENDBRANCH  18  19
ENDBRANCH  12  18
ENDBRANCH  11  12
ENDBRANCH   1  11
BRANCH   4  24
ATOM     24  O   UNL     1      -0.019   1.430   0.082  0.00  0.00    -0.460 OA
BRANCH  24  25
ATOM     25  C   UNL     1      -0.006   0.021   0.322  0.00  0.00    +0.340 C 
ATOM     26  C   UNL     1      -1.444  -0.489   0.442  0.00  0.00    +0.214 C 
ATOM     27  C   UNL     1      -2.176  -0.249  -0.882  0.00  0.00    +0.180 C 
ATOM     28  C   UNL     1      -1.406  -0.943  -2.010  0.00  0.00    +0.186 C 
ATOM     29  C   UNL     1       0.031  -0.415  -2.037  0.00  0.00    +0.266 C 
ATOM     30  O   UNL     1       0.643  -0.641  -0.765  0.00  0.00    -0.322 OA
BRANCH  29  31
ATOM     31  C   UNL     1       0.811  -1.134  -3.106  0.00  0.00    +0.387 C 
ATOM     32  O   UNL     1       1.738  -1.847  -2.801  0.00  0.00    -0.243 OA
ATOM     33  O   UNL     1       0.477  -0.983  -4.397  0.00  0.00    -0.243 OA
ENDBRANCH  29  31
BRANCH  28  34
ATOM     34  O   UNL     1      -1.392  -2.353  -1.783  0.00  0.00    -0.386 OA
ATOM     35  H   UNL     1      -0.882  -3.020  -2.494  0.00  0.00    +0.210 HD
ENDBRANCH  28  34
BRANCH  27  36
ATOM     36  O   UNL     1      -3.498  -0.787  -0.802  0.00  0.00    -0.386 OA
ATOM     37  H   UNL     1      -4.176  -0.709  -1.665  0.00  0.00    +0.210 HD
ENDBRANCH  27  36
BRANCH  26  38
ATOM     38  O   UNL     1      -2.114   0.214   1.491  0.00  0.00    -0.383 OA
ATOM     39  H   UNL     1      -3.163  -0.019   1.727  0.00  0.00    +0.210 HD
ENDBRANCH  26  38
ENDBRANCH  24  25
ENDBRANCH   4  24
TORSDOF 12
