REMARK  Name = ZINC12549924
REMARK  12 active torsions:
REMARK  status: ('A' for Active; 'I' for Inactive)
REMARK    1  A    between atoms: C_1  and  C_2
REMARK    2  A    between atoms: C_2  and  C_4
REMARK    3  A    between atoms: C_2  and  N_53
REMARK    4  A    between atoms: N_6  and  C_7
REMARK    5  A    between atoms: C_9  and  N_15
REMARK    6  A    between atoms: C_12  and  O_13
REMARK    7  A    between atoms: O_13  and  C_14
REMARK    8  A    between atoms: C_18  and  N_53
REMARK    9  A    between atoms: C_19  and  C_20
REMARK   10  A    between atoms: C_19  and  N_53
REMARK   11  A    between atoms: N_22  and  C_23
REMARK   12  A    between atoms: C_27  and  C_29
REMARK                            x       y       z     vdW  Elec       q    Type
REMARK                         _______ _______ _______ _____ _____    ______ ____
ROOT
ATOM      1  C   UNL     1      -2.996   6.099   0.897  0.00  0.00    -0.094 C 
ATOM      2  N   UNL     1      -1.832   5.412   0.298  0.00  0.00    +0.391 N 
ATOM      3  H   UNL     1      -1.003   5.596   0.875  0.00  0.00    -0.080 HD
ENDROOT
BRANCH   2   5
ATOM      4  C   UNL     1      -3.088   3.611  -0.837  0.00  0.00    -0.004 C 
ATOM      5  C   UNL     1      -2.074   3.954   0.256  0.00  0.00    +0.017 C 
BRANCH   5   6
ATOM      6  C   UNL     1      -0.770   3.255  -0.031  0.00  0.00    +0.203 C 
ATOM      7  O   UNL     1       0.192   3.894  -0.402  0.00  0.00    -0.277 OA
ATOM      8  N   UNL     1      -0.672   1.920   0.124  0.00  0.00    -0.284 N 
ATOM      9  H   UNL     1      -1.456   1.401   0.366  0.00  0.00    +0.155 HD
BRANCH   8  10
ATOM     10  C   UNL     1       0.561   1.281  -0.064  0.00  0.00    +0.078 A 
ATOM     11  C   UNL     1       1.502   1.825  -0.926  0.00  0.00    +0.059 A 
ATOM     12  C   UNL     1       2.715   1.190  -1.114  0.00  0.00    +0.128 A 
ATOM     13  C   UNL     1       2.993   0.012  -0.445  0.00  0.00    +0.036 A 
ATOM     14  C   UNL     1       2.060  -0.536   0.415  0.00  0.00    +0.050 A 
ATOM     15  C   UNL     1       0.842   0.095   0.610  0.00  0.00    +0.141 A 
BRANCH  12  16
ATOM     16  N   UNL     1       3.718   1.771  -2.034  0.00  0.00    +0.056 N 
ATOM     17  O   UNL     1       4.787   1.213  -2.201  0.00  0.00    -0.126 OA
ATOM     18  O   UNL     1       3.474   2.808  -2.624  0.00  0.00    -0.126 OA
ENDBRANCH  12  16
BRANCH  15  19
ATOM     19  O   UNL     1      -0.077  -0.444   1.455  0.00  0.00    -0.493 OA
ATOM     20  C   UNL     1       0.280  -1.662   2.111  0.00  0.00    +0.277 C 
ENDBRANCH  15  19
ENDBRANCH   8  10
ENDBRANCH   5   6
ENDBRANCH   2   5
BRANCH   2  21
ATOM     21  C   UNL     1      -1.590   5.924  -1.067  0.00  0.00    +0.020 C 
BRANCH  21  22
ATOM     22  C   UNL     1      -1.132   7.356  -0.975  0.00  0.00    +0.201 C 
ATOM     23  O   UNL     1      -1.036   7.894   0.108  0.00  0.00    -0.278 OA
ATOM     24  N   UNL     1      -0.830   8.041  -2.096  0.00  0.00    -0.287 N 
ATOM     25  H   UNL     1      -0.971   7.634  -2.965  0.00  0.00    +0.155 HD
BRANCH  24  26
ATOM     26  C   UNL     1      -0.311   9.338  -2.005  0.00  0.00    +0.034 A 
ATOM     27  C   UNL     1      -0.768  10.202  -1.019  0.00  0.00    +0.025 A 
ATOM     28  C   UNL     1      -0.252  11.480  -0.929  0.00  0.00    +0.022 A 
ATOM     29  C   UNL     1       0.712  11.903  -1.827  0.00  0.00    +0.053 A 
ATOM     30  C   UNL     1       1.165  11.045  -2.814  0.00  0.00    +0.075 A 
ATOM     31  C   UNL     1       0.656   9.765  -2.905  0.00  0.00    +0.037 A 
ATOM     32 CL   UNL     1       1.355  13.512  -1.716  0.00  0.00    -0.083 Cl
BRANCH  30  33
ATOM     33  C   UNL     1       2.215  11.509  -3.791  0.00  0.00    +0.419 C 
ATOM     34  F   UNL     1       2.509  10.475  -4.686  0.00  0.00    -0.166 F 
ATOM     35  F   UNL     1       1.737  12.617  -4.499  0.00  0.00    -0.166 F 
ATOM     36  F   UNL     1       3.374  11.866  -3.094  0.00  0.00    -0.166 F 
ENDBRANCH  30  33
ENDBRANCH  24  26
ENDBRANCH  21  22
ENDBRANCH   2  21
TORSDOF 9
