REMARK  Name = ZINC24950561
REMARK  7 active torsions:
REMARK  status: ('A' for Active; 'I' for Inactive)
REMARK    1  A    between atoms: C_4  and  C_7
REMARK    2  A    between atoms: C_10  and  O_13
REMARK    3  A    between atoms: O_13  and  C_14
REMARK    4  A    between atoms: C_14  and  C_15
REMARK    5  A    between atoms: C_15  and  C_17
REMARK    6  A    between atoms: C_15  and  O_35
REMARK    7  A    between atoms: C_17  and  N_18
REMARK                            x       y       z     vdW  Elec       q    Type
REMARK                         _______ _______ _______ _____ _____    ______ ____
ROOT
ATOM      1  C   UNL     1      -3.816   0.198   2.727  0.00  0.00    +0.152 C 
ENDROOT
BRANCH   1   2
ATOM      2  N   UNL     1      -2.461   0.589   2.333  0.00  0.00    -0.221 N 
ATOM      3  C   UNL     1      -2.179   1.374   1.266  0.00  0.00    +0.251 C 
ATOM      4  O   UNL     1      -3.000   1.800   0.482  0.00  0.00    -0.272 OA
ATOM      5  C   UNL     1      -0.692   1.571   1.285  0.00  0.00    +0.138 C 
ATOM      6  C   UNL     1      -0.013   1.090   0.008  0.00  0.00    +0.040 C 
ATOM      7  C   UNL     1      -0.714   1.582  -1.241  0.00  0.00    +0.003 C 
ATOM      8  C   UNL     1      -0.541   3.065  -1.509  0.00  0.00    +0.005 C 
ATOM      9  C   UNL     1      -1.370   3.895  -0.530  0.00  0.00    +0.035 C 
ATOM     10  C   UNL     1      -0.605   4.050   0.767  0.00  0.00    -0.042 A 
ATOM     11  C   UNL     1      -0.307   3.000   1.587  0.00  0.00    -0.012 A 
ATOM     12  C   UNL     1       0.391   3.229   2.770  0.00  0.00    +0.006 A 
ATOM     13  C   UNL     1       0.790   4.506   3.111  0.00  0.00    +0.000 A 
ATOM     14  C   UNL     1       0.494   5.565   2.275  0.00  0.00    +0.000 A 
ATOM     15  C   UNL     1      -0.202   5.338   1.105  0.00  0.00    +0.004 A 
ATOM     16  N   UNL     1      -0.240   0.720   2.406  0.00  0.00    -0.281 N 
ATOM     17  C   UNL     1      -1.349   0.219   2.977  0.00  0.00    +0.310 C 
ATOM     18  O   UNL     1      -1.343  -0.489   3.966  0.00  0.00    -0.252 OA
ATOM     19  H   UNL     1       0.835   0.611   2.616  0.00  0.00    +0.152 HD
ENDBRANCH   1   2
BRANCH   1  20
ATOM     20  C   UNL     1      -4.194  -1.109   2.027  0.00  0.00    +0.170 C 
BRANCH  20  21
ATOM     21  O   UNL     1      -4.144  -0.923   0.611  0.00  0.00    -0.387 OA
ATOM     22  H   UNL     1      -3.202  -0.626   0.128  0.00  0.00    +0.210 HD
ENDBRANCH  20  21
BRANCH  20  23
ATOM     23  C   UNL     1      -5.610  -1.518   2.439  0.00  0.00    +0.261 C 
BRANCH  23  24
ATOM     24  O   UNL     1      -5.919  -2.795   1.878  0.00  0.00    -0.489 OA
BRANCH  24  28
ATOM     25  C   UNL     1      -9.653  -4.350   2.704  0.00  0.00    -0.018 A 
ATOM     26  C   UNL     1      -8.759  -5.066   1.911  0.00  0.00    +0.012 A 
ATOM     27  C   UNL     1      -7.512  -4.544   1.636  0.00  0.00    +0.046 A 
ATOM     28  C   UNL     1      -7.148  -3.307   2.150  0.00  0.00    +0.121 A 
ATOM     29  C   UNL     1      -8.035  -2.594   2.945  0.00  0.00    +0.046 A 
ATOM     30  C   UNL     1      -9.285  -3.108   3.218  0.00  0.00    +0.012 A 
BRANCH  25  34
ATOM     31  C   UNL     1     -13.500  -5.951   3.554  0.00  0.00    +0.000 A 
ATOM     32  C   UNL     1     -13.138  -4.718   4.066  0.00  0.00    +0.001 A 
ATOM     33  C   UNL     1     -11.891  -4.194   3.794  0.00  0.00    +0.008 A 
ATOM     34  C   UNL     1     -10.995  -4.909   3.001  0.00  0.00    -0.018 A 
ATOM     35  C   UNL     1     -11.367  -6.148   2.482  0.00  0.00    +0.008 A 
ATOM     36  C   UNL     1     -12.615  -6.665   2.766  0.00  0.00    +0.001 A 
ENDBRANCH  25  34
ENDBRANCH  24  28
ENDBRANCH  23  24
ENDBRANCH  20  23
ENDBRANCH   1  20
TORSDOF 7
