REMARK  Name = ZINC09283180
REMARK  12 active torsions:
REMARK  status: ('A' for Active; 'I' for Inactive)
REMARK    1  A    between atoms: C_1  and  C_2
REMARK    2  A    between atoms: C_2  and  C_3
REMARK    3  A    between atoms: C_3  and  N_4
REMARK    4  A    between atoms: C_14  and  C_25
REMARK    5  A    between atoms: C_15  and  O_24
REMARK    6  A    between atoms: N_18  and  C_19
REMARK    7  A    between atoms: C_19  and  C_20
REMARK    8  A    between atoms: C_20  and  C_21
REMARK    9  A    between atoms: C_21  and  N_62
REMARK   10  A    between atoms: C_22  and  N_62
REMARK   11  A    between atoms: C_23  and  N_62
REMARK   12  A    between atoms: C_25  and  C_27
REMARK                            x       y       z     vdW  Elec       q    Type
REMARK                         _______ _______ _______ _____ _____    ______ ____
ROOT
ATOM      1  N   UNL     1      -1.482  -1.965   2.367  0.00  0.00    -0.269 N 
ATOM      2  C   UNL     1      -2.362  -1.284   3.210  0.00  0.00    +0.042 A 
ATOM      3  C   UNL     1      -3.687  -1.551   3.550  0.00  0.00    +0.024 A 
ATOM      4  C   UNL     1      -4.361  -0.718   4.419  0.00  0.00    +0.002 A 
ATOM      5  C   UNL     1      -3.729   0.387   4.959  0.00  0.00    +0.000 A 
ATOM      6  C   UNL     1      -2.414   0.660   4.626  0.00  0.00    +0.008 A 
ATOM      7  C   UNL     1      -1.738  -0.168   3.758  0.00  0.00    +0.011 A 
ATOM      8  C   UNL     1      -0.339  -0.160   3.201  0.00  0.00    +0.174 C 
ATOM      9  C   UNL     1      -0.275  -1.372   2.308  0.00  0.00    +0.253 C 
ATOM     10  O   UNL     1       0.682  -1.743   1.660  0.00  0.00    -0.272 OA
ATOM     11  C   UNL     1       0.689  -0.239   4.296  0.00  0.00    +0.083 C 
ATOM     12  C   UNL     1       1.468   0.864   4.173  0.00  0.00    +0.189 C 
ATOM     13  C   UNL     1       0.991   1.668   3.026  0.00  0.00    +0.283 C 
ATOM     14  O   UNL     1       1.482   2.716   2.657  0.00  0.00    -0.267 OA
ATOM     15  N   UNL     1      -0.070   1.066   2.453  0.00  0.00    -0.273 N 
ENDROOT
BRANCH  12  16
ATOM     16  O   UNL     1       2.514   1.179   4.970  0.00  0.00    -0.502 OA
ATOM     17  H   UNL     1       2.917   2.042   4.665  0.00  0.00    +0.292 HD
ENDBRANCH  12  16
BRANCH  11  18
ATOM     18  C   UNL     1       0.820  -1.298   5.302  0.00  0.00    +0.196 C 
ATOM     19  O   UNL     1       0.049  -1.342   6.242  0.00  0.00    -0.287 OA
BRANCH  18  20
ATOM     20  C   UNL     1       1.889  -2.309   5.175  0.00  0.00    +0.022 A 
ATOM     21  C   UNL     1       2.845  -2.196   4.162  0.00  0.00    +0.014 A 
ATOM     22  C   UNL     1       3.843  -3.140   4.052  0.00  0.00    +0.039 A 
ATOM     23  C   UNL     1       3.893  -4.207   4.937  0.00  0.00    +0.123 A 
ATOM     24  C   UNL     1       2.944  -4.327   5.941  0.00  0.00    +0.039 A 
ATOM     25  C   UNL     1       1.944  -3.386   6.064  0.00  0.00    +0.014 A 
ATOM     26  F   UNL     1       4.870  -5.133   4.820  0.00  0.00    -0.205 F 
ENDBRANCH  18  20
ENDBRANCH  11  18
BRANCH   1  27
ATOM     27  C   UNL     1      -1.831  -3.183   1.633  0.00  0.00    +0.113 C 
BRANCH  27  29
ATOM     28  C   UNL     1      -2.099  -5.661   1.812  0.00  0.00    +0.005 C 
ATOM     29  C   UNL     1      -1.618  -4.401   2.535  0.00  0.00    +0.016 C 
ENDBRANCH  27  29
ENDBRANCH   1  27
BRANCH  15  30
ATOM     30  C   UNL     1      -0.820   1.554   1.293  0.00  0.00    +0.108 C 
BRANCH  30  31
ATOM     31  C   UNL     1      -0.195   1.000   0.011  0.00  0.00    +0.000 C 
BRANCH  31  32
ATOM     32  C   UNL     1      -0.979   1.510  -1.200  0.00  0.00    -0.078 C 
BRANCH  32  35
ATOM     33  C   UNL     1      -1.235   1.248  -3.593  0.00  0.00    -0.097 C 
ATOM     34  C   UNL     1       0.972   1.519  -2.635  0.00  0.00    -0.097 C 
ATOM     35  N   UNL     1      -0.377   0.949  -2.428  0.00  0.00    +0.376 N 
ATOM     36  H   UNL     1      -0.296  -0.069  -2.325  0.00  0.00    -0.083 HD
ENDBRANCH  32  35
ENDBRANCH  31  32
ENDBRANCH  30  31
ENDBRANCH  15  30
TORSDOF 9
