REMARK  Name = ZINC23468955
REMARK  5 active torsions:
REMARK  status: ('A' for Active; 'I' for Inactive)
REMARK    1  A    between atoms: C_4  and  C_7
REMARK    2  A    between atoms: C_7  and  N_8
REMARK    3  A    between atoms: N_11  and  C_14
REMARK    4  A    between atoms: C_14  and  N_15
REMARK    5  A    between atoms: N_23  and  C_24
REMARK                            x       y       z     vdW  Elec       q    Type
REMARK                         _______ _______ _______ _____ _____    ______ ____
ROOT
ATOM      1  N   UNL     1      -0.786  -4.220  -2.448  0.00  0.00    -0.252 N 
ATOM      2  C   UNL     1       0.264  -4.072  -3.349  0.00  0.00    +0.047 A 
ATOM      3  C   UNL     1       1.538  -3.536  -3.201  0.00  0.00    +0.024 A 
ATOM      4  C   UNL     1       2.406  -3.506  -4.274  0.00  0.00    +0.002 A 
ATOM      5  C   UNL     1       2.023  -4.008  -5.507  0.00  0.00    +0.001 A 
ATOM      6  C   UNL     1       0.762  -4.544  -5.674  0.00  0.00    +0.012 A 
ATOM      7  C   UNL     1      -0.121  -4.579  -4.599  0.00  0.00    +0.027 A 
ATOM      8  C   UNL     1      -1.507  -5.071  -4.443  0.00  0.00    +0.135 C 
ATOM      9  N   UNL     1      -2.265  -5.626  -5.358  0.00  0.00    -0.242 NA
ATOM     10  C   UNL     1      -1.850  -4.803  -3.024  0.00  0.00    +0.271 C 
ATOM     11  O   UNL     1      -2.907  -5.062  -2.482  0.00  0.00    -0.268 OA
ENDROOT
BRANCH   9  12
ATOM     12  C   UNL     1      -1.748  -5.929  -6.576  0.00  0.00    +0.068 A 
ATOM     13  C   UNL     1      -2.220  -5.266  -7.721  0.00  0.00    +0.028 A 
ATOM     14  C   UNL     1      -1.700  -5.564  -8.946  0.00  0.00    +0.014 A 
ATOM     15  C   UNL     1      -0.705  -6.534  -9.067  0.00  0.00    +0.028 A 
ATOM     16  C   UNL     1       0.048  -7.086 -10.207  0.00  0.00    +0.028 A 
ATOM     17  C   UNL     1       0.042  -6.842 -11.578  0.00  0.00    +0.012 A 
ATOM     18  C   UNL     1       0.893  -7.548 -12.401  0.00  0.00    +0.001 A 
ATOM     19  C   UNL     1       1.750  -8.497 -11.866  0.00  0.00    +0.004 A 
ATOM     20  C   UNL     1       1.765  -8.747 -10.510  0.00  0.00    +0.047 A 
ATOM     21  C   UNL     1       0.914  -8.046  -9.663  0.00  0.00    +0.136 A 
ATOM     22  O   UNL     1       0.724  -8.088  -8.326  0.00  0.00    -0.455 OA
ATOM     23  C   UNL     1      -0.225  -7.210  -7.933  0.00  0.00    +0.138 A 
ATOM     24  C   UNL     1      -0.751  -6.903  -6.689  0.00  0.00    +0.074 A 
ENDBRANCH   9  12
BRANCH   1  25
ATOM     25  C   UNL     1      -0.734  -3.799  -1.045  0.00  0.00    +0.200 C 
BRANCH  25  29
ATOM     26  N   UNL     1      -1.199   0.236   0.117  0.00  0.00    +0.384 N 
ATOM     27  C   UNL     1      -0.674  -0.037  -1.229  0.00  0.00    -0.063 C 
ATOM     28  C   UNL     1      -0.128  -1.466  -1.280  0.00  0.00    +0.067 C 
ATOM     29  N   UNL     1      -1.200  -2.410  -0.934  0.00  0.00    -0.290 NA
ATOM     30  C   UNL     1      -1.724  -2.136   0.411  0.00  0.00    +0.067 C 
ATOM     31  C   UNL     1      -2.270  -0.708   0.463  0.00  0.00    -0.063 C 
ATOM     32  H   UNL     1      -0.378   0.097   0.836  0.00  0.00    -0.081 HD
BRANCH  26  33
ATOM     33  C   UNL     1      -1.664   1.625   0.228  0.00  0.00    -0.043 C 
BRANCH  33  37
ATOM     34  C   UNL     1       1.668   4.276  -0.111  0.00  0.00    +0.000 A 
ATOM     35  C   UNL     1       0.974   3.890  -1.242  0.00  0.00    +0.000 A 
ATOM     36  C   UNL     1      -0.104   3.032  -1.133  0.00  0.00    +0.002 A 
ATOM     37  C   UNL     1      -0.488   2.560   0.108  0.00  0.00    -0.064 A 
ATOM     38  C   UNL     1       0.203   2.950   1.240  0.00  0.00    +0.002 A 
ATOM     39  C   UNL     1       1.284   3.804   1.130  0.00  0.00    +0.000 A 
ENDBRANCH  33  37
ENDBRANCH  26  33
ENDBRANCH  25  29
ENDBRANCH   1  25
TORSDOF 5
