REMARK  Name = ZINC36044790
REMARK  5 active torsions:
REMARK  status: ('A' for Active; 'I' for Inactive)
REMARK    1  A    between atoms: C_4  and  C_7
REMARK    2  A    between atoms: C_7  and  N_8
REMARK    3  A    between atoms: C_9  and  C_16
REMARK    4  A    between atoms: C_23  and  C_30
REMARK    5  A    between atoms: C_25  and  O_26
REMARK                            x       y       z     vdW  Elec       q    Type
REMARK                         _______ _______ _______ _____ _____    ______ ____
ROOT
ATOM      1  C   UNL     1       5.315   1.228   1.483  0.00  0.00    +0.266 C 
ATOM      2  O   UNL     1       5.877   1.983   2.262  0.00  0.00    -0.268 OA
ATOM      3  N   UNL     1       4.961   1.660   0.278  0.00  0.00    -0.280 N 
ATOM      4  C   UNL     1       5.897   2.178  -0.559  0.00  0.00    +0.037 A 
ATOM      5  C   UNL     1       7.258   2.124  -0.206  0.00  0.00    +0.024 A 
ATOM      6  C   UNL     1       8.203   2.638  -1.036  0.00  0.00    +0.014 A 
ATOM      7  C   UNL     1       7.822   3.228  -2.254  0.00  0.00    +0.029 A 
ATOM      8  C   UNL     1       8.789   3.767  -3.129  0.00  0.00    +0.072 A 
ATOM      9  C   UNL     1       8.363   4.335  -4.313  0.00  0.00    +0.100 A 
ATOM     10  C   UNL     1       7.010   4.365  -4.619  0.00  0.00    +0.285 A 
ATOM     11  O   UNL     1       6.097   3.853  -3.787  0.00  0.00    -0.425 OA
ATOM     12  C   UNL     1       6.458   3.287  -2.617  0.00  0.00    +0.141 A 
ATOM     13  C   UNL     1       5.503   2.756  -1.768  0.00  0.00    +0.070 A 
ATOM     14  H   UNL     1       4.035   1.605  -0.004  0.00  0.00    +0.155 HD
ENDROOT
BRANCH   1  16
ATOM     15  N   UNL     1       4.313  -1.082   1.167  0.00  0.00    -0.253 N 
ATOM     16  C   UNL     1       5.028  -0.165   1.882  0.00  0.00    +0.126 A 
ATOM     17  C   UNL     1       5.433  -0.783   3.045  0.00  0.00    +0.087 A 
ATOM     18  C   UNL     1       4.949  -2.090   3.020  0.00  0.00    +0.236 A 
ATOM     19  N   UNL     1       4.280  -2.269   1.909  0.00  0.00    -0.146 NA
ATOM     20  N   UNL     1       5.154  -3.106   4.077  0.00  0.00    +0.077 N 
ATOM     21  O   UNL     1       5.788  -2.828   5.068  0.00  0.00    -0.125 OA
ATOM     22  O   UNL     1       4.687  -4.214   3.949  0.00  0.00    -0.125 OA
BRANCH  15  23
ATOM     23  C   UNL     1       3.688  -0.862  -0.139  0.00  0.00    +0.179 C 
BRANCH  23  27
ATOM     24  C   UNL     1      -0.442   0.089   0.399  0.00  0.00    +0.000 A 
ATOM     25  C   UNL     1       0.517   1.077   0.520  0.00  0.00    +0.000 A 
ATOM     26  C   UNL     1       1.853   0.770   0.346  0.00  0.00    +0.005 A 
ATOM     27  C   UNL     1       2.231  -0.527   0.051  0.00  0.00    -0.026 A 
ATOM     28  C   UNL     1       1.273  -1.516  -0.069  0.00  0.00    +0.005 A 
ATOM     29  C   UNL     1      -0.064  -1.208   0.104  0.00  0.00    +0.000 A 
ENDBRANCH  23  27
ENDBRANCH  15  23
ENDBRANCH   1  16
BRANCH   8  30
ATOM     30  C   UNL     1      10.254   3.724  -2.778  0.00  0.00    +0.418 C 
ATOM     31  F   UNL     1      10.671   2.392  -2.681  0.00  0.00    -0.166 F 
ATOM     32  F   UNL     1      10.991   4.372  -3.775  0.00  0.00    -0.166 F 
ATOM     33  F   UNL     1      10.459   4.367  -1.553  0.00  0.00    -0.166 F 
ENDBRANCH   8  30
BRANCH  10  34
ATOM     34  O   UNL     1       6.609   4.922  -5.777  0.00  0.00    -0.480 OA
ATOM     35  H   UNL     1       5.651   4.902  -5.912  0.00  0.00    +0.295 HD
ENDBRANCH  10  34
TORSDOF 5
