REMARK  Name = ZINC43328831
REMARK  5 active torsions:
REMARK  status: ('A' for Active; 'I' for Inactive)
REMARK    1  A    between atoms: C_4  and  N_7
REMARK    2  A    between atoms: N_9  and  S_31
REMARK    3  A    between atoms: C_10  and  S_27
REMARK    4  A    between atoms: N_12  and  C_21
REMARK    5  A    between atoms: C_13  and  C_15
REMARK                            x       y       z     vdW  Elec       q    Type
REMARK                         _______ _______ _______ _____ _____    ______ ____
ROOT
ATOM      1  N   UNL     1       3.537  -0.921   0.453  0.00  0.00    -0.291 N 
ATOM      2  C   UNL     1       4.599   0.086   0.303  0.00  0.00    +0.223 C 
ATOM      3  N   UNL     1       5.235  -0.112  -1.010  0.00  0.00    -0.094 NA
ATOM      4  C   UNL     1       5.667  -1.470  -1.377  0.00  0.00    +0.348 C 
ATOM      5  N   UNL     1       4.544  -2.389  -1.131  0.00  0.00    -0.269 N 
ATOM      6  C   UNL     1       3.868  -2.329   0.180  0.00  0.00    +0.215 C 
ENDROOT
BRANCH   1  10
ATOM      7  C   UNL     1      -0.301   0.180   1.635  0.00  0.00    +0.000 A 
ATOM      8  C   UNL     1       0.492  -0.573   2.481  0.00  0.00    +0.002 A 
ATOM      9  C   UNL     1       1.766  -0.940   2.092  0.00  0.00    +0.023 A 
ATOM     10  C   UNL     1       2.249  -0.552   0.849  0.00  0.00    +0.032 A 
ATOM     11  C   UNL     1       1.450   0.205   0.002  0.00  0.00    +0.023 A 
ATOM     12  C   UNL     1       0.178   0.569   0.397  0.00  0.00    +0.002 A 
ENDBRANCH   1  10
BRANCH   6  13
ATOM     13  C   UNL     1       2.606  -3.151   0.142  0.00  0.00    +0.080 A 
ATOM     14  C   UNL     1       2.520  -4.307   0.894  0.00  0.00    +0.027 A 
ATOM     15  C   UNL     1       1.354  -5.056   0.852  0.00  0.00    +0.003 A 
ATOM     16  C   UNL     1       0.314  -4.612   0.050  0.00  0.00    +0.020 A 
ATOM     17  C   UNL     1       0.472  -3.446  -0.675  0.00  0.00    +0.111 A 
ATOM     18  N   UNL     1       1.594  -2.756  -0.606  0.00  0.00    -0.256 NA
ENDBRANCH   6  13
BRANCH   5  19
ATOM     19  C   UNL     1       4.133  -3.295  -2.111  0.00  0.00    +0.034 A 
ATOM     20  C   UNL     1       2.959  -3.069  -2.819  0.00  0.00    +0.023 A 
ATOM     21  C   UNL     1       2.555  -3.966  -3.788  0.00  0.00    +0.002 A 
ATOM     22  C   UNL     1       3.317  -5.090  -4.052  0.00  0.00    +0.000 A 
ATOM     23  C   UNL     1       4.485  -5.319  -3.348  0.00  0.00    +0.002 A 
ATOM     24  C   UNL     1       4.898  -4.422  -2.382  0.00  0.00    +0.023 A 
ENDBRANCH   5  19
BRANCH   4  25
ATOM     25  S   UNL     1       6.124  -1.514  -3.132  0.00  0.00    +0.145 S 
ATOM     26  O   UNL     1       6.677  -2.830  -3.412  0.00  0.00    -0.142 OA
ATOM     27  O   UNL     1       4.958  -1.269  -3.966  0.00  0.00    -0.142 OA
ATOM     28  O   UNL     1       7.129  -0.486  -3.354  0.00  0.00    -0.044 OA
ENDBRANCH   4  25
BRANCH   3  29
ATOM     29  S   UNL     1       5.458   1.160  -2.046  0.00  0.00    +0.186 S 
ATOM     30  O   UNL     1       4.959   0.739  -3.346  0.00  0.00    -0.127 OA
ATOM     31  O   UNL     1       4.700   2.280  -1.510  0.00  0.00    -0.127 OA
ATOM     32  O   UNL     1       6.886   1.435  -2.076  0.00  0.00    -0.032 OA
ENDBRANCH   3  29
TORSDOF 5
