REMARK  Name = ZINC20114655
REMARK  11 active torsions:
REMARK  status: ('A' for Active; 'I' for Inactive)
REMARK    1  A    between atoms: C_1  and  C_2
REMARK    2  A    between atoms: C_2  and  S_3
REMARK    3  A    between atoms: S_3  and  C_4
REMARK    4  A    between atoms: C_12  and  C_13
REMARK    5  A    between atoms: C_15  and  O_30
REMARK    6  A    between atoms: C_16  and  O_20
REMARK    7  A    between atoms: O_20  and  C_21
REMARK    8  A    between atoms: C_21  and  C_22
REMARK    9  A    between atoms: C_22  and  O_23
REMARK   10  A    between atoms: O_23  and  C_24
REMARK   11  A    between atoms: O_30  and  C_31
REMARK                            x       y       z     vdW  Elec       q    Type
REMARK                         _______ _______ _______ _____ _____    ______ ____
ROOT
ATOM      1  C   UNL     1       4.877  -4.419  -5.279  0.00  0.00    -0.019 A 
ATOM      2  C   UNL     1       6.072  -4.090  -5.935  0.00  0.00    +0.057 A 
ATOM      3  C   UNL     1       6.922  -5.092  -6.355  0.00  0.00    +0.164 A 
ATOM      4  C   UNL     1       6.593  -6.429  -6.128  0.00  0.00    +0.180 A 
ATOM      5  C   UNL     1       5.410  -6.757  -5.478  0.00  0.00    +0.087 A 
ATOM      6  C   UNL     1       4.556  -5.764  -5.049  0.00  0.00    +0.032 A 
ATOM      7 CL   UNL     1       5.008  -8.423  -5.200  0.00  0.00    -0.080 Cl
ENDROOT
BRANCH   1  16
ATOM      8  C   UNL     1      -0.361  -2.712  -2.820  0.00  0.00    +0.175 C 
ATOM      9  N   UNL     1      -1.443  -3.389  -2.548  0.00  0.00    -0.185 NA
ATOM     10  S   UNL     1      -1.352  -4.732  -3.546  0.00  0.00    +0.048 S 
ATOM     11  C   UNL     1       0.117  -4.434  -4.275  0.00  0.00    +0.183 C 
ATOM     12  N   UNL     1       0.795  -5.154  -5.141  0.00  0.00    -0.152 NA
ATOM     13  C   UNL     1       2.007  -4.736  -5.547  0.00  0.00    +0.273 C 
ATOM     14  O   UNL     1       2.600  -5.312  -6.444  0.00  0.00    -0.268 OA
ATOM     15  C   UNL     1       2.608  -3.555  -4.876  0.00  0.00    +0.079 C 
ATOM     16  C   UNL     1       3.969  -3.360  -4.830  0.00  0.00    +0.024 C 
ATOM     17  C   UNL     1       1.653  -2.592  -4.255  0.00  0.00    +0.137 C 
ATOM     18  N   UNL     1       1.873  -1.308  -4.182  0.00  0.00    -0.284 NA
ATOM     19  N   UNL     1       0.485  -3.206  -3.760  0.00  0.00    -0.211 N 
ATOM     20  H   UNL     1       2.693  -0.936  -4.542  0.00  0.00    +0.188 HD
BRANCH   8  21
ATOM     21  S   UNL     1      -0.009  -1.196  -1.994  0.00  0.00    -0.089 S 
BRANCH  21  23
ATOM     22  C   UNL     1      -1.229   0.318  -0.070  0.00  0.00    +0.016 C 
ATOM     23  C   UNL     1      -1.409  -0.979  -0.861  0.00  0.00    +0.074 C 
ENDBRANCH  21  23
ENDBRANCH   8  21
ENDBRANCH   1  16
BRANCH   3  24
ATOM     24  O   UNL     1       8.082  -4.776  -6.992  0.00  0.00    -0.491 OA
ATOM     25  C   UNL     1       8.355  -3.388  -7.191  0.00  0.00    +0.277 C 
ENDBRANCH   3  24
BRANCH   4  26
ATOM     26  O   UNL     1       7.433  -7.412  -6.543  0.00  0.00    -0.483 OA
BRANCH  26  27
ATOM     27  C   UNL     1       8.437  -7.840  -5.622  0.00  0.00    +0.270 C 
BRANCH  27  28
ATOM     28  C   UNL     1       9.280  -8.945  -6.263  0.00  0.00    +0.270 C 
BRANCH  28  29
ATOM     29  O   UNL     1       9.994  -8.412  -7.380  0.00  0.00    -0.489 OA
BRANCH  29  30
ATOM     30  C   UNL     1      10.795  -9.270  -8.066  0.00  0.00    +0.121 A 
ATOM     31  C   UNL     1      10.888 -10.597  -7.674  0.00  0.00    +0.045 A 
ATOM     32  C   UNL     1      11.703 -11.467  -8.373  0.00  0.00    +0.004 A 
ATOM     33  C   UNL     1      12.426 -11.015  -9.461  0.00  0.00    +0.000 A 
ATOM     34  C   UNL     1      12.336  -9.692  -9.853  0.00  0.00    +0.004 A 
ATOM     35  C   UNL     1      11.517  -8.820  -9.161  0.00  0.00    +0.045 A 
ENDBRANCH  29  30
ENDBRANCH  28  29
ENDBRANCH  27  28
ENDBRANCH  26  27
ENDBRANCH   4  26
TORSDOF 9
