REMARK  Name = ZINC02949938
REMARK  9 active torsions:
REMARK  status: ('A' for Active; 'I' for Inactive)
REMARK    1  A    between atoms: C_3  and  N_18
REMARK    2  A    between atoms: C_5  and  O_7
REMARK    3  A    between atoms: O_7  and  C_8
REMARK    4  A    between atoms: C_11  and  C_16
REMARK    5  A    between atoms: C_12  and  C_14
REMARK    6  A    between atoms: C_19  and  C_21
REMARK    7  A    between atoms: C_21  and  O_22
REMARK    8  A    between atoms: O_22  and  C_23
REMARK    9  A    between atoms: C_27  and  N_29
REMARK                            x       y       z     vdW  Elec       q    Type
REMARK                         _______ _______ _______ _____ _____    ______ ____
ROOT
ATOM      1  C   UNL     1       0.175  11.402   0.649  0.00  0.00    +0.005 A 
ATOM      2  C   UNL     1       0.412  10.042   0.689  0.00  0.00    +0.023 A 
ATOM      3  C   UNL     1       1.715   9.562   0.654  0.00  0.00    +0.037 A 
ATOM      4  C   UNL     1       2.778  10.450   0.568  0.00  0.00    +0.069 A 
ATOM      5  C   UNL     1       2.536  11.814   0.523  0.00  0.00    +0.130 A 
ATOM      6  C   UNL     1       1.232  12.288   0.564  0.00  0.00    +0.046 A 
ENDROOT
BRANCH   3   7
ATOM      7  N   UNL     1       1.955   8.184   0.699  0.00  0.00    -0.283 N 
ATOM      8  C   UNL     1       3.040   7.710   1.343  0.00  0.00    +0.255 C 
ATOM      9  O   UNL     1       3.844   8.479   1.825  0.00  0.00    -0.272 OA
ATOM     10  H   UNL     1       1.341   7.570   0.267  0.00  0.00    +0.155 HD
BRANCH   8  11
ATOM     11  C   UNL     1       3.254   6.223   1.466  0.00  0.00    +0.324 C 
BRANCH  11  12
ATOM     12  O   UNL     1       4.463   5.973   2.185  0.00  0.00    -0.483 OA
BRANCH  12  13
ATOM     13  C   UNL     1       4.805   4.673   2.385  0.00  0.00    +0.123 A 
ATOM     14  C   UNL     1       3.993   3.658   1.898  0.00  0.00    +0.046 A 
ATOM     15  C   UNL     1       4.342   2.338   2.102  0.00  0.00    +0.006 A 
ATOM     16  C   UNL     1       5.500   2.026   2.791  0.00  0.00    +0.033 A 
ATOM     17  C   UNL     1       6.308   3.035   3.282  0.00  0.00    +0.130 A 
ATOM     18  C   UNL     1       5.965   4.358   3.075  0.00  0.00    +0.078 A 
BRANCH  17  19
ATOM     19  N   UNL     1       7.543   2.698   4.025  0.00  0.00    +0.057 N 
ATOM     20  O   UNL     1       7.847   1.533   4.204  0.00  0.00    -0.126 OA
ATOM     21  O   UNL     1       8.255   3.587   4.458  0.00  0.00    -0.126 OA
ENDBRANCH  17  19
ENDBRANCH  12  13
ENDBRANCH  11  12
ENDBRANCH   8  11
ENDBRANCH   3   7
BRANCH   5  22
ATOM     22  O   UNL     1       3.575  12.686   0.438  0.00  0.00    -0.456 OA
BRANCH  22  23
ATOM     23  C   UNL     1       3.301  14.012   0.522  0.00  0.00    +0.129 A 
ATOM     24  C   UNL     1       3.494  14.831  -0.585  0.00  0.00    +0.047 A 
ATOM     25  C   UNL     1       3.213  16.179  -0.512  0.00  0.00    +0.019 A 
ATOM     26  C   UNL     1       2.745  16.732   0.679  0.00  0.00    +0.077 A 
ATOM     27  C   UNL     1       2.555  15.907   1.805  0.00  0.00    +0.081 A 
ATOM     28  C   UNL     1       2.836  14.548   1.717  0.00  0.00    +0.062 A 
BRANCH  27  29
ATOM     29  C   UNL     1       2.059  16.482   3.073  0.00  0.00    +0.387 C 
ATOM     30  O   UNL     1       1.754  17.656   3.129  0.00  0.00    -0.241 OA
ATOM     31  O   UNL     1       1.945  15.704   4.167  0.00  0.00    -0.241 OA
ENDBRANCH  27  29
BRANCH  26  32
ATOM     32  C   UNL     1       2.450  18.176   0.760  0.00  0.00    +0.387 C 
ATOM     33  O   UNL     1       1.343  18.552   1.088  0.00  0.00    -0.241 OA
ATOM     34  O   UNL     1       3.409  19.077   0.471  0.00  0.00    -0.241 OA
ENDBRANCH  26  32
ENDBRANCH  22  23
ENDBRANCH   5  22
TORSDOF 9
