REMARK  Name = ZINC62495458
REMARK  8 active torsions:
REMARK  status: ('A' for Active; 'I' for Inactive)
REMARK    1  A    between atoms: C_1  and  C_2
REMARK    2  A    between atoms: C_2  and  N_3
REMARK    3  A    between atoms: N_3  and  C_4
REMARK    4  A    between atoms: N_3  and  C_6
REMARK    5  A    between atoms: C_4  and  C_5
REMARK    6  A    between atoms: C_9  and  C_12
REMARK    7  A    between atoms: C_12  and  C_13
REMARK    8  A    between atoms: C_20  and  O_25
REMARK                            x       y       z     vdW  Elec       q    Type
REMARK                         _______ _______ _______ _____ _____    ______ ____
ROOT
ATOM      1  C   UNL     1      -0.065  -6.515   1.858  0.00  0.00    +0.263 C 
ATOM      2  C   UNL     1       0.023  -8.011   2.021  0.00  0.00    +0.258 C 
ATOM      3  O   UNL     1       0.703  -8.668   1.262  0.00  0.00    -0.271 OA
ATOM      4  N   UNL     1      -0.658  -8.617   3.017  0.00  0.00    -0.279 N 
ATOM      5  C   UNL     1      -1.335  -7.830   3.959  0.00  0.00    +0.079 A 
ATOM      6  C   UNL     1      -2.223  -8.410   4.851  0.00  0.00    +0.072 A 
ATOM      7  C   UNL     1      -2.895  -7.617   5.769  0.00  0.00    +0.119 A 
ATOM      8  C   UNL     1      -2.679  -6.247   5.793  0.00  0.00    +0.049 A 
ATOM      9  C   UNL     1      -1.789  -5.668   4.908  0.00  0.00    +0.051 A 
ATOM     10  C   UNL     1      -1.111  -6.456   3.994  0.00  0.00    +0.143 A 
ATOM     11  O   UNL     1      -0.210  -5.899   3.139  0.00  0.00    -0.477 OA
ATOM     12  H   UNL     1      -0.679  -9.585   3.080  0.00  0.00    +0.155 HD
ENDROOT
BRANCH   7  13
ATOM     13  O   UNL     1      -3.766  -8.182   6.646  0.00  0.00    -0.507 OA
ATOM     14  H   UNL     1      -3.361  -8.460   7.479  0.00  0.00    +0.292 HD
ENDBRANCH   7  13
BRANCH   1  15
ATOM     15  C   UNL     1      -1.273  -6.168   0.986  0.00  0.00    +0.089 C 
BRANCH  15  19
ATOM     16  C   UNL     1      -1.323  -1.965   0.226  0.00  0.00    +0.013 A 
ATOM     17  C   UNL     1      -0.653  -2.814  -0.634  0.00  0.00    +0.022 A 
ATOM     18  C   UNL     1      -0.637  -4.175  -0.388  0.00  0.00    +0.005 A 
ATOM     19  C   UNL     1      -1.290  -4.685   0.718  0.00  0.00    -0.043 A 
ATOM     20  C   UNL     1      -1.959  -3.835   1.579  0.00  0.00    +0.005 A 
ATOM     21  C   UNL     1      -1.972  -2.475   1.335  0.00  0.00    +0.022 A 
BRANCH  16  22
ATOM     22  N   UNL     1      -1.340  -0.589  -0.022  0.00  0.00    -0.394 NA
ATOM     23  H   UNL     1      -1.866  -0.123   0.702  0.00  0.00    +0.126 HD
BRANCH  22  25
ATOM     24  C   UNL     1       0.642  -0.208   1.365  0.00  0.00    +0.022 C 
ATOM     25  C   UNL     1       0.037  -0.077  -0.034  0.00  0.00    +0.081 C 
ENDBRANCH  22  25
BRANCH  22  26
ATOM     26  C   UNL     1      -1.968  -0.335  -1.325  0.00  0.00    +0.081 C 
ATOM     27  C   UNL     1      -3.440  -0.751  -1.272  0.00  0.00    +0.022 C 
ENDBRANCH  22  26
ENDBRANCH  16  22
ENDBRANCH  15  19
ENDBRANCH   1  15
TORSDOF 6
