REMARK  Name = ZINC58267229
REMARK  5 active torsions:
REMARK  status: ('A' for Active; 'I' for Inactive)
REMARK    1  A    between atoms: C_1  and  C_2
REMARK    2  A    between atoms: C_5  and  C_20
REMARK    3  A    between atoms: C_10  and  C_12
REMARK    4  A    between atoms: C_15  and  N_19
REMARK    5  A    between atoms: C_16  and  N_18
REMARK                            x       y       z     vdW  Elec       q    Type
REMARK                         _______ _______ _______ _____ _____    ______ ____
ROOT
ATOM      1  C   UNL     1       3.080  -2.112   1.357  0.00  0.00    +0.039 A 
ATOM      2  C   UNL     1       3.277  -0.852   1.928  0.00  0.00    +0.015 A 
ATOM      3  C   UNL     1       4.524  -0.266   1.893  0.00  0.00    +0.025 A 
ATOM      4  C   UNL     1       5.588  -0.924   1.289  0.00  0.00    +0.046 A 
ATOM      5  C   UNL     1       5.397  -2.184   0.715  0.00  0.00    +0.046 A 
ATOM      6  C   UNL     1       4.151  -2.779   0.754  0.00  0.00    +0.037 A 
ENDROOT
BRANCH   1  14
ATOM      7  C   UNL     1       0.181   0.986  -1.231  0.00  0.00    +0.009 C 
ATOM      8  C   UNL     1       0.186  -0.492  -0.837  0.00  0.00    +0.004 C 
ATOM      9  C   UNL     1      -1.248  -1.025  -0.834  0.00  0.00    +0.009 C 
ATOM     10  C   UNL     1      -1.242  -2.512  -0.472  0.00  0.00    +0.004 C 
ATOM     11  C   UNL     1      -0.658  -2.688   0.933  0.00  0.00    +0.111 C 
ATOM     12  N   UNL     1       0.665  -2.050   0.979  0.00  0.00    -0.297 N 
ATOM     13  C   UNL     1       0.787  -0.646   0.564  0.00  0.00    +0.111 C 
ATOM     14  C   UNL     1       1.746  -2.740   1.395  0.00  0.00    +0.247 C 
ATOM     15  O   UNL     1       1.621  -3.879   1.801  0.00  0.00    -0.270 OA
ATOM     16  C   UNL     1      -2.673  -3.051  -0.503  0.00  0.00    +0.009 C 
ENDBRANCH   1  14
BRANCH   5  17
ATOM     17  N   UNL     1       6.471  -2.847   0.106  0.00  0.00    -0.357 N 
ATOM     18  H   UNL     1       7.347  -2.431   0.083  0.00  0.00    +0.142 HD
ATOM     19  H   UNL     1       6.338  -3.721  -0.292  0.00  0.00    +0.142 HD
ENDBRANCH   5  17
BRANCH   4  20
ATOM     20  N   UNL     1       6.846  -0.327   1.255  0.00  0.00    -0.357 N 
ATOM     21  H   UNL     1       6.979   0.547   1.652  0.00  0.00    +0.142 HD
ATOM     22  H   UNL     1       7.590  -0.786   0.833  0.00  0.00    +0.142 HD
ENDBRANCH   4  20
TORSDOF 3
