REMARK  Name = ZINC06785260
REMARK  11 active torsions:
REMARK  status: ('A' for Active; 'I' for Inactive)
REMARK    1  A    between atoms: C_1  and  C_2
REMARK    2  A    between atoms: C_2  and  N_57
REMARK    3  A    between atoms: C_3  and  C_4
REMARK    4  A    between atoms: C_3  and  N_57
REMARK    5  A    between atoms: C_5  and  C_6
REMARK    6  A    between atoms: C_5  and  N_57
REMARK    7  A    between atoms: C_6  and  N_7
REMARK    8  A    between atoms: C_8  and  C_26
REMARK    9  A    between atoms: C_11  and  C_12
REMARK   10  A    between atoms: C_11  and  O_21
REMARK   11  A    between atoms: C_29  and  C_31
REMARK                            x       y       z     vdW  Elec       q    Type
REMARK                         _______ _______ _______ _____ _____    ______ ____
ROOT
ATOM      1  N   UNL     1       1.044  -0.421   0.773  0.00  0.00    -0.282 N 
ATOM      2  C   UNL     1       1.628   0.815   0.244  0.00  0.00    +0.180 C 
ATOM      3  C   UNL     1       0.615   1.909   0.489  0.00  0.00    +0.077 C 
ATOM      4  C   UNL     1       0.739   3.248   0.154  0.00  0.00    +0.168 C 
ATOM      5  C   UNL     1      -0.475   1.298   1.123  0.00  0.00    +0.249 C 
ATOM      6  O   UNL     1      -1.498   1.855   1.479  0.00  0.00    -0.282 OA
ATOM      7  C   UNL     1      -0.169  -0.148   1.281  0.00  0.00    +0.288 C 
ATOM      8  O   UNL     1      -0.908  -0.963   1.795  0.00  0.00    -0.266 OA
ENDROOT
BRANCH   4   9
ATOM      9  C   UNL     1      -0.395   4.155   0.334  0.00  0.00    +0.171 A 
ATOM     10  C   UNL     1      -0.344   5.364   0.961  0.00  0.00    +0.061 A 
ATOM     11  C   UNL     1      -1.652   5.907   0.912  0.00  0.00    +0.021 A 
ATOM     12  C   UNL     1      -2.223   7.098   1.375  0.00  0.00    +0.011 A 
ATOM     13  C   UNL     1      -3.551   7.338   1.167  0.00  0.00    +0.001 A 
ATOM     14  C   UNL     1      -4.339   6.410   0.500  0.00  0.00    +0.004 A 
ATOM     15  C   UNL     1      -3.796   5.231   0.035  0.00  0.00    +0.047 A 
ATOM     16  C   UNL     1      -2.448   4.964   0.235  0.00  0.00    +0.136 A 
ATOM     17  O   UNL     1      -1.653   3.927  -0.100  0.00  0.00    -0.452 OA
ENDBRANCH   4   9
BRANCH   2  18
ATOM     18  C   UNL     1       1.887   0.673  -1.233  0.00  0.00    +0.130 A 
ATOM     19  C   UNL     1       2.967   1.133  -1.890  0.00  0.00    +0.047 A 
ATOM     20  C   UNL     1       2.801   0.782  -3.249  0.00  0.00    +0.045 A 
ATOM     21  C   UNL     1       1.629   0.129  -3.342  0.00  0.00    +0.102 A 
ATOM     22  O   UNL     1       1.083   0.060  -2.117  0.00  0.00    -0.463 OA
ATOM     23  C   UNL     1       1.033  -0.437  -4.605  0.00  0.00    +0.086 C 
ENDBRANCH   2  18
BRANCH   4  24
ATOM     24  O   UNL     1       1.906   3.716  -0.340  0.00  0.00    -0.503 OA
ATOM     25  H   UNL     1       1.821   4.694  -0.527  0.00  0.00    +0.292 HD
ENDBRANCH   4  24
BRANCH   1  26
ATOM     26  C   UNL     1       1.680  -1.741   0.750  0.00  0.00    +0.091 C 
BRANCH  26  27
ATOM     27  C   UNL     1       1.303  -2.467  -0.543  0.00  0.00    -0.060 C 
BRANCH  27  28
ATOM     28  N   UNL     1       1.953  -3.794  -0.549  0.00  0.00    +0.380 N 
ATOM     29  H   UNL     1       2.922  -3.692  -0.227  0.00  0.00    -0.082 HD
BRANCH  28  31
ATOM     30  C   UNL     1       2.054  -5.997   0.512  0.00  0.00    -0.017 C 
ATOM     31  C   UNL     1       1.238  -4.711   0.364  0.00  0.00    -0.082 C 
ENDBRANCH  28  31
BRANCH  28  32
ATOM     32  C   UNL     1       1.958  -4.349  -1.919  0.00  0.00    -0.082 C 
ATOM     33  C   UNL     1       3.016  -3.612  -2.743  0.00  0.00    -0.017 C 
ENDBRANCH  28  32
ENDBRANCH  27  28
ENDBRANCH  26  27
ENDBRANCH   1  26
TORSDOF 8
