REMARK  Name = ZINC41005056
REMARK  5 active torsions:
REMARK  status: ('A' for Active; 'I' for Inactive)
REMARK    1  A    between atoms: C_10  and  C_11
REMARK    2  A    between atoms: C_11  and  N_12
REMARK    3  A    between atoms: N_12  and  C_13
REMARK    4  A    between atoms: C_21  and  C_23
REMARK    5  A    between atoms: C_23  and  C_24
REMARK                            x       y       z     vdW  Elec       q    Type
REMARK                         _______ _______ _______ _____ _____    ______ ____
ROOT
ATOM      1  N   UNL     1       5.028   0.578   1.282  0.00  0.00    -0.292 N 
ATOM      2  C   UNL     1       4.738   1.761   1.857  0.00  0.00    +0.220 C 
ATOM      3  O   UNL     1       4.266   2.659   1.193  0.00  0.00    -0.275 OA
ENDROOT
BRANCH   1   4
ATOM      4  C   UNL     1       5.518  -0.535   2.100  0.00  0.00    +0.099 C 
ATOM      5  C   UNL     1       6.817  -0.114   2.807  0.00  0.00    +0.046 C 
ATOM      6  C   UNL     1       7.141  -1.177   3.896  0.00  0.00    +0.168 C 
ATOM      7  S   UNL     1       5.456  -1.494   4.570  0.00  0.00    -0.029 S 
ATOM      8  O   UNL     1       5.233  -0.632   5.679  0.00  0.00    -0.174 OA
ATOM      9  O   UNL     1       5.276  -2.894   4.726  0.00  0.00    -0.174 OA
ATOM     10  C   UNL     1       4.445  -0.912   3.149  0.00  0.00    +0.188 C 
ENDBRANCH   1   4
BRANCH   1  11
ATOM     11  C   UNL     1       4.853   0.403  -0.162  0.00  0.00    +0.143 C 
BRANCH  11  21
ATOM     12  C   UNL     1       0.071   1.985  -1.072  0.00  0.00    +0.001 A 
ATOM     13  C   UNL     1       1.285   2.624  -0.824  0.00  0.00    +0.001 A 
ATOM     14  C   UNL     1       2.423   1.909  -0.613  0.00  0.00    +0.009 A 
ATOM     15  C   UNL     1       2.377   0.504  -0.644  0.00  0.00    -0.013 A 
ATOM     16  C   UNL     1       1.143  -0.145  -0.896  0.00  0.00    -0.018 A 
ATOM     17  C   UNL     1      -0.012   0.627  -1.109  0.00  0.00    +0.008 A 
ATOM     18  C   UNL     1       1.097  -1.549  -0.926  0.00  0.00    +0.008 A 
ATOM     19  C   UNL     1       2.235  -2.265  -0.715  0.00  0.00    +0.001 A 
ATOM     20  C   UNL     1       3.449  -1.627  -0.468  0.00  0.00    +0.006 A 
ATOM     21  C   UNL     1       3.531  -0.268  -0.431  0.00  0.00    -0.022 A 
ENDBRANCH  11  21
ENDBRANCH   1  11
BRANCH   2  22
ATOM     22  C   UNL     1       5.002   1.969   3.327  0.00  0.00    +0.131 C 
BRANCH  22  23
ATOM     23  C   UNL     1       4.265   3.195   3.801  0.00  0.00    -0.035 A 
ATOM     24  C   UNL     1       4.880   4.432   3.746  0.00  0.00    +0.008 A 
ATOM     25  C   UNL     1       4.210   5.562   4.179  0.00  0.00    +0.050 A 
ATOM     26  C   UNL     1       2.919   5.450   4.668  0.00  0.00    +0.162 A 
ATOM     27  C   UNL     1       2.302   4.208   4.723  0.00  0.00    +0.162 A 
ATOM     28  C   UNL     1       2.974   3.080   4.284  0.00  0.00    +0.053 A 
ATOM     29  O   UNL     1       1.030   4.108   5.205  0.00  0.00    -0.488 OA
ATOM     30  C   UNL     1       0.869   4.367   6.602  0.00  0.00    +0.232 C 
ATOM     31  C   UNL     1       0.731   5.859   6.861  0.00  0.00    +0.082 C 
ATOM     32  C   UNL     1       1.992   6.628   6.501  0.00  0.00    +0.232 C 
ATOM     33  O   UNL     1       2.246   6.557   5.097  0.00  0.00    -0.488 OA
ENDBRANCH  22  23
ENDBRANCH   2  22
TORSDOF 5
