REMARK  Name = ZINC39673766
REMARK  9 active torsions:
REMARK  status: ('A' for Active; 'I' for Inactive)
REMARK    1  A    between atoms: C_1  and  C_2
REMARK    2  A    between atoms: C_2  and  C_3
REMARK    3  A    between atoms: C_3  and  C_4
REMARK    4  A    between atoms: C_4  and  C_6
REMARK    5  A    between atoms: C_4  and  N_7
REMARK    6  A    between atoms: C_8  and  C_10
REMARK    7  A    between atoms: C_21  and  C_23
REMARK    8  A    between atoms: C_28  and  O_29
REMARK    9  A    between atoms: O_29  and  C_30
REMARK                            x       y       z     vdW  Elec       q    Type
REMARK                         _______ _______ _______ _____ _____    ______ ____
ROOT
ATOM      1  C   UNL     1       0.811  -4.060  -2.868  0.00  0.00    +0.100 C 
ATOM      2  C   UNL     1      -0.433  -4.337  -3.741  0.00  0.00    +0.121 C 
ATOM      3  N   UNL     1      -0.132  -5.616  -4.427  0.00  0.00    -0.296 N 
ATOM      4  C   UNL     1       0.546  -6.437  -3.396  0.00  0.00    +0.115 C 
ATOM      5  C   UNL     1       1.451  -5.441  -2.643  0.00  0.00    -0.004 C 
ATOM      6  C   UNL     1       1.477  -5.774  -1.155  0.00  0.00    -0.010 C 
ATOM      7  C   UNL     1       2.170  -7.125  -0.951  0.00  0.00    -0.082 C 
ATOM      8  N   UNL     1       3.537  -7.061  -1.483  0.00  0.00    +0.379 N 
ATOM      9  C   UNL     1       3.499  -6.832  -2.932  0.00  0.00    -0.082 C 
ATOM     10  C   UNL     1       2.863  -5.469  -3.220  0.00  0.00    -0.010 C 
ATOM     11  C   UNL     1      -0.412  -5.955  -5.701  0.00  0.00    +0.252 C 
ATOM     12  O   UNL     1      -0.184  -7.083  -6.094  0.00  0.00    -0.270 OA
ATOM     13  H   UNL     1       4.035  -6.305  -1.037  0.00  0.00    -0.086 HD
ATOM     14  H   UNL     1       4.011  -7.931  -1.293  0.00  0.00    -0.086 HD
ENDROOT
BRANCH  11  15
ATOM     15  C   UNL     1      -0.994  -4.959  -6.620  0.00  0.00    +0.099 A 
ATOM     16  C   UNL     1      -1.896  -3.997  -6.149  0.00  0.00    +0.020 A 
ATOM     17  C   UNL     1      -2.413  -3.084  -7.050  0.00  0.00    +0.021 A 
ATOM     18  C   UNL     1      -2.030  -3.147  -8.378  0.00  0.00    +0.114 A 
ATOM     19  N   UNL     1      -1.179  -4.062  -8.801  0.00  0.00    -0.220 NA
ATOM     20  C   UNL     1      -0.650  -4.954  -7.980  0.00  0.00    +0.233 A 
BRANCH  20  21
ATOM     21  O   UNL     1       0.224  -5.872  -8.456  0.00  0.00    -0.437 OA
BRANCH  21  22
ATOM     22  C   UNL     1       0.457  -5.896  -9.795  0.00  0.00    +0.130 A 
ATOM     23  C   UNL     1       1.303  -4.959 -10.370  0.00  0.00    +0.048 A 
ATOM     24  C   UNL     1       1.539  -4.986 -11.731  0.00  0.00    +0.023 A 
ATOM     25  C   UNL     1       0.932  -5.947 -12.521  0.00  0.00    +0.041 A 
ATOM     26  C   UNL     1       0.087  -6.882 -11.949  0.00  0.00    +0.023 A 
ATOM     27  C   UNL     1      -0.146  -6.862 -10.588  0.00  0.00    +0.048 A 
ATOM     28 CL   UNL     1       1.230  -5.978 -14.230  0.00  0.00    -0.084 Cl
ENDBRANCH  21  22
ENDBRANCH  20  21
ENDBRANCH  11  15
BRANCH   1  30
ATOM     29  N   UNL     1       1.248  -2.628  -0.900  0.00  0.00    -0.312 N 
ATOM     30  C   UNL     1       0.403  -3.450  -1.552  0.00  0.00    +0.218 C 
ATOM     31  O   UNL     1      -0.686  -3.699  -1.080  0.00  0.00    -0.275 OA
ATOM     32  H   UNL     1       2.119  -2.429  -1.277  0.00  0.00    +0.149 HD
BRANCH  29  33
ATOM     33  C   UNL     1       0.852  -2.034   0.380  0.00  0.00    +0.070 C 
ATOM     34  C   UNL     1       0.044  -0.761   0.123  0.00  0.00    +0.028 C 
BRANCH  33  35
ATOM     35  C   UNL     1       2.102  -1.690   1.192  0.00  0.00    +0.022 C 
BRANCH  35  37
ATOM     36  C   UNL     1       4.095  -2.633   2.367  0.00  0.00    +0.004 C 
ATOM     37  C   UNL     1       2.845  -2.978   1.555  0.00  0.00    -0.002 C 
ENDBRANCH  35  37
ENDBRANCH  33  35
ENDBRANCH  29  33
ENDBRANCH   1  30
TORSDOF 7
