REMARK  Name = ZINC40072792
REMARK  9 active torsions:
REMARK  status: ('A' for Active; 'I' for Inactive)
REMARK    1  A    between atoms: C_1  and  C_2
REMARK    2  A    between atoms: C_5  and  C_8
REMARK    3  A    between atoms: C_10  and  C_13
REMARK    4  A    between atoms: C_13  and  C_15
REMARK    5  A    between atoms: C_13  and  N_16
REMARK    6  A    between atoms: N_19  and  C_22
REMARK    7  A    between atoms: C_22  and  N_23
REMARK    8  A    between atoms: C_27  and  C_35
REMARK    9  A    between atoms: C_32  and  C_34
REMARK                            x       y       z     vdW  Elec       q    Type
REMARK                         _______ _______ _______ _____ _____    ______ ____
ROOT
ATOM      1  N   UNL     1       1.093  -8.460   1.175  0.00  0.00    +0.389 N 
ATOM      2  C   UNL     1       2.422  -7.836   1.151  0.00  0.00    -0.062 C 
ATOM      3  C   UNL     1       3.453  -8.849   0.647  0.00  0.00    +0.067 C 
ATOM      4  N   UNL     1       3.459 -10.020   1.535  0.00  0.00    -0.290 NA
ATOM      5  C   UNL     1       2.128 -10.641   1.589  0.00  0.00    +0.067 C 
ATOM      6  C   UNL     1       1.109  -9.613   2.085  0.00  0.00    -0.062 C 
ATOM      7  H   UNL     1       0.850  -8.769   0.246  0.00  0.00    -0.081 HD
ENDROOT
BRANCH   1   8
ATOM      8  C   UNL     1       0.102  -7.482   1.642  0.00  0.00    +0.019 C 
ATOM      9  C   UNL     1      -1.284  -8.131   1.666  0.00  0.00    -0.003 C 
BRANCH   8  12
ATOM     10  C   UNL     1       0.059  -4.256  -0.021  0.00  0.00    +0.202 A 
ATOM     11  N   UNL     1       0.070  -5.047   1.067  0.00  0.00    -0.193 NA
ATOM     12  C   UNL     1       0.086  -6.299   0.708  0.00  0.00    +0.214 A 
ATOM     13  O   UNL     1       0.086  -6.357  -0.630  0.00  0.00    -0.339 OA
ATOM     14  N   UNL     1       0.064  -5.015  -1.090  0.00  0.00    -0.056 NA
BRANCH  10  19
ATOM     15  C   UNL     1      -0.018   1.503   0.010  0.00  0.00    +0.044 C 
ATOM     16  C   UNL     1       0.002  -0.004   0.002  0.00  0.00    -0.050 A 
ATOM     17  C   UNL     1       0.006  -0.686  -1.201  0.00  0.00    +0.004 A 
ATOM     18  C   UNL     1       0.024  -2.067  -1.214  0.00  0.00    +0.012 A 
ATOM     19  C   UNL     1       0.040  -2.772  -0.013  0.00  0.00    +0.022 A 
ATOM     20  C   UNL     1       0.036  -2.080   1.196  0.00  0.00    +0.012 A 
ATOM     21  C   UNL     1       0.023  -0.700   1.198  0.00  0.00    +0.004 A 
ENDBRANCH  10  19
ENDBRANCH   8  12
ENDBRANCH   1   8
BRANCH   4  22
ATOM     22  C   UNL     1       4.477 -10.993   1.116  0.00  0.00    +0.204 C 
BRANCH  22  23
ATOM     23  N   UNL     1       4.880 -11.804   2.268  0.00  0.00    -0.211 N 
ATOM     24  C   UNL     1       5.888 -11.483   3.106  0.00  0.00    +0.248 C 
ATOM     25  O   UNL     1       6.605 -10.507   3.051  0.00  0.00    -0.273 OA
ATOM     26  C   UNL     1       5.935 -12.597   4.126  0.00  0.00    +0.118 C 
ATOM     27  C   UNL     1       7.280 -13.312   4.072  0.00  0.00    +0.019 C 
ATOM     28  C   UNL     1       7.295 -14.454   5.091  0.00  0.00    +0.006 C 
ATOM     29  C   UNL     1       7.055 -13.889   6.492  0.00  0.00    +0.001 C 
ATOM     30  C   UNL     1       5.692 -13.195   6.538  0.00  0.00    +0.006 C 
ATOM     31  C   UNL     1       5.671 -12.048   5.524  0.00  0.00    +0.019 C 
ATOM     32  C   UNL     1       4.301 -11.367   5.554  0.00  0.00    +0.010 C 
ATOM     33  C   UNL     1       7.499 -13.879   2.668  0.00  0.00    +0.010 C 
ATOM     34  N   UNL     1       4.854 -13.502   3.716  0.00  0.00    -0.284 N 
ATOM     35  C   UNL     1       4.291 -12.952   2.623  0.00  0.00    +0.310 C 
ATOM     36  O   UNL     1       3.355 -13.444   2.024  0.00  0.00    -0.252 OA
ATOM     37  H   UNL     1       4.594 -14.330   4.149  0.00  0.00    +0.151 HD
ENDBRANCH  22  23
ENDBRANCH   4  22
TORSDOF 5
