REMARK  Name = ZINC59500493
REMARK  9 active torsions:
REMARK  status: ('A' for Active; 'I' for Inactive)
REMARK    1  A    between atoms: C_1  and  C_2
REMARK    2  A    between atoms: C_5  and  C_8
REMARK    3  A    between atoms: C_8  and  O_10
REMARK    4  A    between atoms: O_10  and  C_11
REMARK    5  A    between atoms: C_16  and  C_17
REMARK    6  A    between atoms: N_18  and  N_19
REMARK    7  A    between atoms: C_20  and  C_22
REMARK    8  A    between atoms: C_25  and  N_28
REMARK    9  A    between atoms: C_29  and  C_31
REMARK                            x       y       z     vdW  Elec       q    Type
REMARK                         _______ _______ _______ _____ _____    ______ ____
ROOT
ATOM      1  C   UNL     1       1.407  -6.176   1.353  0.00  0.00    +0.141 A 
ATOM      2  C   UNL     1       1.486  -6.868   0.155  0.00  0.00    +0.048 A 
ATOM      3  C   UNL     1       0.976  -8.149   0.060  0.00  0.00    +0.019 A 
ATOM      4  C   UNL     1       0.384  -8.750   1.159  0.00  0.00    +0.019 A 
ATOM      5  C   UNL     1       0.297  -8.075   2.359  0.00  0.00    +0.028 A 
ATOM      6  C   UNL     1       0.815  -6.782   2.469  0.00  0.00    +0.038 A 
ATOM      7 BR   UNL     1      -0.310 -10.503   1.012  0.00  0.00    -0.050 Br
ENDROOT
BRANCH   6   8
ATOM      8  C   UNL     1       0.731  -6.058   3.749  0.00  0.00    +0.142 C 
ATOM      9  N   UNL     1       0.661  -6.717   4.865  0.00  0.00    -0.187 NA
BRANCH   9  10
ATOM     10  N   UNL     1       0.859  -8.104   4.873  0.00  0.00    -0.203 N 
ATOM     11  C   UNL     1       0.672  -8.805   6.008  0.00  0.00    +0.263 C 
ATOM     12  O   UNL     1       0.239  -8.251   7.001  0.00  0.00    -0.268 OA
ATOM     13  H   UNL     1       1.131  -8.559   4.061  0.00  0.00    +0.178 HD
BRANCH  11  14
ATOM     14  C   UNL     1       0.991 -10.245   6.047  0.00  0.00    +0.038 A 
ATOM     15  C   UNL     1       1.597 -10.858   4.947  0.00  0.00    +0.015 A 
ATOM     16  C   UNL     1       1.894 -12.202   4.987  0.00  0.00    +0.024 A 
ATOM     17  C   UNL     1       1.591 -12.950   6.121  0.00  0.00    +0.033 A 
ATOM     18  C   UNL     1       0.988 -12.343   7.218  0.00  0.00    +0.024 A 
ATOM     19  C   UNL     1       0.694 -10.998   7.187  0.00  0.00    +0.015 A 
BRANCH  17  20
ATOM     20  N   UNL     1       1.893 -14.311   6.158  0.00  0.00    -0.286 N 
ATOM     21  C   UNL     1       1.750 -15.063   5.048  0.00  0.00    +0.214 C 
ATOM     22  O   UNL     1       1.436 -14.542   3.999  0.00  0.00    -0.276 OA
ATOM     23  C   UNL     1       1.979 -16.551   5.113  0.00  0.00    +0.109 C 
ATOM     24  H   UNL     1       2.206 -14.716   6.981  0.00  0.00    +0.155 HD
ENDBRANCH  17  20
ENDBRANCH  11  14
ENDBRANCH   9  10
ENDBRANCH   6   8
BRANCH   1  25
ATOM     25  O   UNL     1       1.908  -4.917   1.447  0.00  0.00    -0.422 OA
BRANCH  25  26
ATOM     26  C   UNL     1       3.139  -4.763   1.972  0.00  0.00    +0.344 C 
ATOM     27  O   UNL     1       3.803  -5.739   2.259  0.00  0.00    -0.245 OA
BRANCH  26  32
ATOM     28  C   UNL     1       5.253   0.515   2.853  0.00  0.00    +0.044 C 
ATOM     29  C   UNL     1       4.699  -0.868   2.623  0.00  0.00    -0.050 A 
ATOM     30  C   UNL     1       5.497  -1.975   2.850  0.00  0.00    +0.004 A 
ATOM     31  C   UNL     1       4.996  -3.244   2.641  0.00  0.00    +0.015 A 
ATOM     32  C   UNL     1       3.682  -3.408   2.199  0.00  0.00    +0.059 A 
ATOM     33  C   UNL     1       2.883  -2.286   1.971  0.00  0.00    +0.015 A 
ATOM     34  C   UNL     1       3.394  -1.023   2.190  0.00  0.00    +0.004 A 
ENDBRANCH  26  32
ENDBRANCH  25  26
ENDBRANCH   1  25
TORSDOF 7
