REMARK  Name = ZINC05882559
REMARK  7 active torsions:
REMARK  status: ('A' for Active; 'I' for Inactive)
REMARK    1  A    between atoms: C_1  and  C_2
REMARK    2  A    between atoms: C_2  and  O_24
REMARK    3  A    between atoms: C_6  and  O_19
REMARK    4  A    between atoms: C_9  and  O_10
REMARK    5  A    between atoms: C_13  and  O_17
REMARK    6  A    between atoms: O_17  and  C_18
REMARK    7  A    between atoms: C_20  and  O_23
REMARK                            x       y       z     vdW  Elec       q    Type
REMARK                         _______ _______ _______ _____ _____    ______ ____
ROOT
ATOM      1  C   UNL     1       1.143   1.629   4.963  0.00  0.00    +0.042 C 
ATOM      2  C   UNL     1       1.737   2.188   3.669  0.00  0.00    +0.070 C 
ATOM      3  C   UNL     1       1.139   1.455   2.470  0.00  0.00    +0.073 C 
ATOM      4  C   UNL     1       1.864   1.833   1.203  0.00  0.00    +0.007 A 
ATOM      5  C   UNL     1       3.108   2.407   1.207  0.00  0.00    +0.030 A 
ATOM      6  C   UNL     1       3.744   2.719  -0.006  0.00  0.00    +0.134 A 
ATOM      7  C   UNL     1       3.122   2.446  -1.219  0.00  0.00    +0.078 A 
ATOM      8  C   UNL     1       1.842   1.855  -1.224  0.00  0.00    +0.081 A 
ATOM      9  C   UNL     1       1.223   1.551  -0.015  0.00  0.00    +0.132 A 
ATOM     10  C   UNL     1       1.183   1.570  -2.510  0.00  0.00    +0.232 C 
ATOM     11  O   UNL     1       0.079   1.063  -2.532  0.00  0.00    -0.283 OA
ATOM     12  C   UNL     1       1.873   1.906  -3.777  0.00  0.00    +0.171 C 
ATOM     13  C   UNL     1       3.099   2.470  -3.765  0.00  0.00    +0.101 C 
ATOM     14  C   UNL     1       3.778   2.767  -2.501  0.00  0.00    +0.194 C 
ATOM     15  O   UNL     1       4.883   3.276  -2.509  0.00  0.00    -0.287 OA
ATOM     16  C   UNL     1       3.843   2.740   2.480  0.00  0.00    +0.151 C 
ATOM     17  C   UNL     1       3.254   1.970   3.660  0.00  0.00    +0.071 C 
ENDROOT
BRANCH   9  18
ATOM     18  O   UNL     1      -0.008   0.984  -0.012  0.00  0.00    -0.506 OA
ATOM     19  H   UNL     1       0.004   0.017  -0.025  0.00  0.00    +0.292 HD
ENDBRANCH   9  18
BRANCH  12  20
ATOM     20  O   UNL     1       1.268   1.644  -4.959  0.00  0.00    -0.491 OA
ATOM     21  C   UNL     1       1.985   1.991  -6.146  0.00  0.00    +0.277 C 
ENDBRANCH  12  20
BRANCH   6  22
ATOM     22  O   UNL     1       4.974   3.290   0.006  0.00  0.00    -0.506 OA
ATOM     23  H   UNL     1       4.958   4.256   0.021  0.00  0.00    +0.292 HD
ENDBRANCH   6  22
BRANCH  16  24
ATOM     24  O   UNL     1       5.221   2.392   2.332  0.00  0.00    -0.387 OA
ATOM     25  H   UNL     1       5.775   2.653   3.080  0.00  0.00    +0.210 HD
ENDBRANCH  16  24
BRANCH   2  26
ATOM     26  O   UNL     1       1.450   3.585   3.572  0.00  0.00    -0.388 OA
ATOM     27  H   UNL     1       0.506   3.794   3.572  0.00  0.00    +0.210 HD
ENDBRANCH   2  26
TORSDOF 5
