REMARK  Name = ZINC39943461
REMARK  10 active torsions:
REMARK  status: ('A' for Active; 'I' for Inactive)
REMARK    1  A    between atoms: C_1  and  C_2
REMARK    2  A    between atoms: C_2  and  C_3
REMARK    3  A    between atoms: C_5  and  C_34
REMARK    4  A    between atoms: C_6  and  C_11
REMARK    5  A    between atoms: C_11  and  N_12
REMARK    6  A    between atoms: N_15  and  C_18
REMARK    7  A    between atoms: C_18  and  C_19
REMARK    8  A    between atoms: C_34  and  O_36
REMARK    9  A    between atoms: O_36  and  C_37
REMARK   10  A    between atoms: C_37  and  C_38
REMARK                            x       y       z     vdW  Elec       q    Type
REMARK                         _______ _______ _______ _____ _____    ______ ____
ROOT
ATOM      1  N   UNL     1      -3.418  -4.762  -0.380  0.00  0.00    -0.295 NA
ATOM      2  C   UNL     1      -4.067  -4.230   0.826  0.00  0.00    +0.100 C 
ATOM      3  C   UNL     1      -5.536  -4.660   0.844  0.00  0.00    +0.100 C 
ATOM      4  N   UNL     1      -5.614  -6.127   0.812  0.00  0.00    -0.293 NA
ATOM      5  C   UNL     1      -4.965  -6.660  -0.394  0.00  0.00    +0.100 C 
ATOM      6  C   UNL     1      -3.496  -6.229  -0.412  0.00  0.00    +0.100 C 
ENDROOT
BRANCH   1   7
ATOM      7  C   UNL     1      -2.024  -4.307  -0.472  0.00  0.00    +0.136 C 
BRANCH   7  10
ATOM      8  C   UNL     1      -1.443  -0.527   0.011  0.00  0.00    +0.113 C 
ATOM      9  C   UNL     1      -1.451  -2.021   0.264  0.00  0.00    +0.075 C 
ATOM     10  C   UNL     1      -1.996  -2.816  -0.683  0.00  0.00    +0.038 C 
ATOM     11  N   UNL     1      -2.520  -2.289  -1.829  0.00  0.00    -0.271 N 
ATOM     12  C   UNL     1      -2.539  -0.978  -2.103  0.00  0.00    +0.304 C 
ATOM     13  O   UNL     1      -3.029  -0.604  -3.150  0.00  0.00    -0.253 OA
ATOM     14  N   UNL     1      -2.033  -0.062  -1.255  0.00  0.00    -0.292 N 
ATOM     15  H   UNL     1      -2.900  -2.898  -2.480  0.00  0.00    +0.156 HD
ATOM     16  H   UNL     1      -2.057   0.883  -1.474  0.00  0.00    +0.151 HD
BRANCH   8  18
ATOM     17  C   UNL     1       0.045   1.480   0.023  0.00  0.00    +0.006 C 
ATOM     18  C   UNL     1       0.010  -0.049   0.059  0.00  0.00    +0.024 C 
ENDBRANCH   8  18
BRANCH   9  19
ATOM     19  C   UNL     1      -0.907  -2.565   1.451  0.00  0.00    +0.338 C 
ATOM     20  O   UNL     1      -1.543  -2.522   2.487  0.00  0.00    -0.245 OA
BRANCH  19  21
ATOM     21  O   UNL     1       0.317  -3.133   1.433  0.00  0.00    -0.462 OA
BRANCH  21  22
ATOM     22  C   UNL     1       0.804  -3.662   2.668  0.00  0.00    +0.229 C 
ATOM     23  C   UNL     1       2.196  -4.260   2.453  0.00  0.00    +0.048 C 
ENDBRANCH  21  22
ENDBRANCH  19  21
ENDBRANCH   9  19
ENDBRANCH   7  10
ENDBRANCH   1   7
BRANCH   4  24
ATOM     24  C   UNL     1      -7.008  -6.582   0.904  0.00  0.00    +0.158 C 
BRANCH  24  25
ATOM     25  C   UNL     1      -7.036  -8.074   1.115  0.00  0.00    +0.138 C 
ATOM     26  N   UNL     1      -5.894  -8.713   1.187  0.00  0.00    -0.160 NA
ATOM     27  C   UNL     1      -5.814 -10.036   1.369  0.00  0.00    +0.271 C 
ATOM     28  O   UNL     1      -4.734 -10.598   1.437  0.00  0.00    -0.268 OA
ATOM     29  C   UNL     1      -7.094 -10.804   1.489  0.00  0.00    +0.071 C 
ATOM     30  C   UNL     1      -7.252 -12.135   1.610  0.00  0.00    -0.042 C 
ATOM     31  C   UNL     1      -6.113 -13.143   1.479  0.00  0.00    +0.033 C 
ATOM     32  C   UNL     1      -6.533 -14.145   0.395  0.00  0.00    +0.004 C 
ATOM     33  C   UNL     1      -7.909 -14.724   0.715  0.00  0.00    +0.002 C 
ATOM     34  C   UNL     1      -8.978 -13.627   0.699  0.00  0.00    +0.019 C 
ATOM     35  C   UNL     1      -8.676 -12.635   1.825  0.00  0.00    +0.079 C 
ATOM     36  S   UNL     1      -9.657 -11.104   1.592  0.00  0.00    -0.097 S 
ATOM     37  C   UNL     1      -8.308  -9.967   1.400  0.00  0.00    +0.112 C 
ATOM     38  N   UNL     1      -8.213  -8.670   1.222  0.00  0.00    -0.226 NA
ENDBRANCH  24  25
ENDBRANCH   4  24
TORSDOF 8
