REMARK  Name = ZINC39926721
REMARK  5 active torsions:
REMARK  status: ('A' for Active; 'I' for Inactive)
REMARK    1  A    between atoms: C_7  and  C_10
REMARK    2  A    between atoms: N_11  and  N_12
REMARK    3  A    between atoms: C_15  and  C_18
REMARK    4  A    between atoms: C_21  and  C_23
REMARK    5  A    between atoms: C_26  and  N_29
REMARK                            x       y       z     vdW  Elec       q    Type
REMARK                         _______ _______ _______ _____ _____    ______ ____
ROOT
ATOM      1  N   UNL     1       0.335  -5.357  -0.031  0.00  0.00    -0.215 N 
ATOM      2  C   UNL     1       0.821  -6.634  -0.042  0.00  0.00    +0.178 A 
ATOM      3  N   UNL     1       0.151  -7.775  -0.048  0.00  0.00    -0.220 NA
ATOM      4  C   UNL     1       0.823  -8.911  -0.059  0.00  0.00    +0.115 A 
ATOM      5  C   UNL     1       2.242  -8.841  -0.066  0.00  0.00    +0.080 A 
ATOM      6  S   UNL     1       2.518  -7.181  -0.062  0.00  0.00    -0.059 S 
ATOM      7  H   UNL     1      -0.623  -5.204  -0.021  0.00  0.00    +0.176 HD
ENDROOT
BRANCH   4   8
ATOM      8  C   UNL     1       0.156 -10.151  -0.065  0.00  0.00    +0.154 A 
ATOM      9  C   UNL     1      -1.239 -10.337  -0.065  0.00  0.00    +0.052 A 
ATOM     10  C   UNL     1      -1.460 -11.699  -0.072  0.00  0.00    +0.050 A 
ATOM     11  C   UNL     1      -0.206 -12.319  -0.076  0.00  0.00    +0.136 A 
ATOM     12  O   UNL     1       0.743 -11.365  -0.077  0.00  0.00    -0.453 OA
BRANCH  11  13
ATOM     13  C   UNL     1       0.034 -13.767  -0.084  0.00  0.00    +0.017 A 
ATOM     14  C   UNL     1      -1.046 -14.662  -0.094  0.00  0.00    +0.014 A 
ATOM     15  C   UNL     1      -0.811 -16.018  -0.101  0.00  0.00    +0.033 A 
ATOM     16  C   UNL     1       0.488 -16.501  -0.099  0.00  0.00    +0.126 A 
ATOM     17  C   UNL     1       1.562 -15.625  -0.089  0.00  0.00    +0.033 A 
ATOM     18  C   UNL     1       1.346 -14.265  -0.087  0.00  0.00    +0.014 A 
BRANCH  16  19
ATOM     19  N   UNL     1       0.730 -17.961  -0.106  0.00  0.00    +0.056 N 
ATOM     20  O   UNL     1      -0.287 -18.797  -0.115  0.00  0.00    -0.126 OA
ATOM     21  O   UNL     1       1.963 -18.424  -0.104  0.00  0.00    -0.126 OA
ENDBRANCH  16  19
ENDBRANCH  11  13
ENDBRANCH   4   8
BRANCH   1  23
ATOM     22  C   UNL     1       0.681  -3.128  -0.022  0.00  0.00    +0.136 C 
ATOM     23  N   UNL     1       1.149  -4.357  -0.033  0.00  0.00    -0.189 NA
BRANCH  22  30
ATOM     24  C   UNL     1      -0.016   1.355   0.009  0.00  0.00    +0.001 A 
ATOM     25  C   UNL     1       1.164   2.105   0.002  0.00  0.00    +0.002 A 
ATOM     26  C   UNL     1       2.384   1.518  -0.013  0.00  0.00    +0.026 A 
ATOM     27  C   UNL     1       2.484   0.097  -0.021  0.00  0.00    +0.043 A 
ATOM     28  N   UNL     1       3.526  -0.700  -0.036  0.00  0.00    -0.380 N 
ATOM     29  C   UNL     1       3.074  -2.095  -0.039  0.00  0.00    +0.150 C 
ATOM     30  C   UNL     1       1.562  -2.045  -0.024  0.00  0.00    +0.000 C 
ATOM     31  C   UNL     1       1.234  -0.687  -0.013  0.00  0.00    +0.004 A 
ATOM     32  C   UNL     1       0.002  -0.004   0.002  0.00  0.00    +0.010 A 
ATOM     33  H   UNL     1       4.452  -0.411  -0.043  0.00  0.00    +0.160 HD
ENDBRANCH  22  30
ENDBRANCH   1  23
TORSDOF 5
