REMARK  Name = ZINC39664738
REMARK  9 active torsions:
REMARK  status: ('A' for Active; 'I' for Inactive)
REMARK    1  A    between atoms: C_1  and  C_2
REMARK    2  A    between atoms: C_4  and  C_9
REMARK    3  A    between atoms: C_13  and  C_22
REMARK    4  A    between atoms: N_24  and  C_25
REMARK    5  A    between atoms: C_25  and  C_27
REMARK    6  A    between atoms: C_25  and  C_31
REMARK    7  A    between atoms: C_27  and  N_28
REMARK    8  A    between atoms: N_28  and  C_29
REMARK    9  A    between atoms: N_28  and  C_30
REMARK                            x       y       z     vdW  Elec       q    Type
REMARK                         _______ _______ _______ _____ _____    ______ ____
ROOT
ATOM      1  C   UNL     1      -0.603  -2.909  -3.602  0.00  0.00    +0.247 C 
ATOM      2  O   UNL     1      -0.838  -2.570  -4.745  0.00  0.00    -0.270 OA
ATOM      3  N   UNL     1      -0.320  -4.197  -3.326  0.00  0.00    -0.296 N 
ATOM      4  C   UNL     1      -0.135  -4.822  -1.995  0.00  0.00    +0.121 C 
ATOM      5  C   UNL     1      -0.817  -6.203  -2.113  0.00  0.00    +0.100 C 
ATOM      6  C   UNL     1      -0.805  -6.519  -3.618  0.00  0.00    -0.004 C 
ATOM      7  C   UNL     1      -0.130  -5.311  -4.285  0.00  0.00    +0.115 C 
ATOM      8  C   UNL     1      -2.231  -6.672  -4.138  0.00  0.00    -0.010 C 
ATOM      9  C   UNL     1      -2.192  -7.041  -5.623  0.00  0.00    -0.082 C 
ATOM     10  N   UNL     1      -1.449  -8.296  -5.797  0.00  0.00    +0.379 N 
ATOM     11  C   UNL     1      -0.053  -8.113  -5.382  0.00  0.00    -0.082 C 
ATOM     12  C   UNL     1      -0.002  -7.788  -3.886  0.00  0.00    -0.010 C 
ATOM     13  H   UNL     1      -1.874  -9.018  -5.235  0.00  0.00    -0.086 HD
ATOM     14  H   UNL     1      -1.476  -8.569  -6.768  0.00  0.00    -0.086 HD
ENDROOT
BRANCH   1  18
ATOM     15  C   UNL     1       0.750  -1.489   0.985  0.00  0.00    +0.047 C 
ATOM     16  C   UNL     1       0.023  -1.221  -0.307  0.00  0.00    -0.015 A 
ATOM     17  C   UNL     1       0.048  -2.158  -1.318  0.00  0.00    +0.019 A 
ATOM     18  C   UNL     1      -0.627  -1.909  -2.515  0.00  0.00    +0.037 A 
ATOM     19  C   UNL     1      -1.325  -0.710  -2.681  0.00  0.00    +0.016 A 
ATOM     20  C   UNL     1      -1.344   0.220  -1.663  0.00  0.00    +0.039 A 
ATOM     21  C   UNL     1      -0.676  -0.035  -0.475  0.00  0.00    +0.126 A 
ATOM     22  F   UNL     1      -0.702   0.877   0.521  0.00  0.00    -0.205 F 
ENDBRANCH   1  18
BRANCH   5  23
ATOM     23  C   UNL     1      -2.232  -6.135  -1.600  0.00  0.00    +0.219 C 
ATOM     24  O   UNL     1      -2.879  -5.119  -1.739  0.00  0.00    -0.275 OA
ATOM     25  N   UNL     1      -2.778  -7.204  -0.987  0.00  0.00    -0.310 N 
ATOM     26  H   UNL     1      -2.283  -8.036  -0.929  0.00  0.00    +0.149 HD
BRANCH  25  27
ATOM     27  C   UNL     1      -4.121  -7.109  -0.408  0.00  0.00    +0.087 C 
BRANCH  27  28
ATOM     28  C   UNL     1      -4.822  -8.436  -0.546  0.00  0.00    -0.029 A 
ATOM     29  C   UNL     1      -4.126  -9.611  -0.335  0.00  0.00    +0.005 A 
ATOM     30  C   UNL     1      -4.769 -10.828  -0.462  0.00  0.00    +0.000 A 
ATOM     31  C   UNL     1      -6.109 -10.869  -0.800  0.00  0.00    +0.000 A 
ATOM     32  C   UNL     1      -6.806  -9.694  -1.010  0.00  0.00    +0.000 A 
ATOM     33  C   UNL     1      -6.163  -8.477  -0.879  0.00  0.00    +0.005 A 
ENDBRANCH  27  28
BRANCH  27  34
ATOM     34  C   UNL     1      -4.013  -6.741   1.073  0.00  0.00    -0.052 C 
BRANCH  34  35
ATOM     35  N   UNL     1      -3.313  -5.457   1.209  0.00  0.00    +0.377 N 
ATOM     36  C   UNL     1      -4.157  -4.380   0.674  0.00  0.00    -0.097 C 
ATOM     37  C   UNL     1      -3.032  -5.200   2.628  0.00  0.00    -0.097 C 
ATOM     38  H   UNL     1      -2.445  -5.490   0.695  0.00  0.00    -0.083 HD
ENDBRANCH  34  35
ENDBRANCH  27  34
ENDBRANCH  25  27
ENDBRANCH   5  23
TORSDOF 6
