REMARK  Name = ZINC51494432
REMARK  4 active torsions:
REMARK  status: ('A' for Active; 'I' for Inactive)
REMARK    1  A    between atoms: C_3  and  N_10
REMARK    2  A    between atoms: C_5  and  C_8
REMARK    3  A    between atoms: C_8  and  N_9
REMARK    4  A    between atoms: C_13  and  C_15
REMARK                            x       y       z     vdW  Elec       q    Type
REMARK                         _______ _______ _______ _____ _____    ______ ____
ROOT
ATOM      1  C   UNL     1      -0.017   1.384   0.010  0.00  0.00    +0.025 A 
ATOM      2  C   UNL     1       1.191   2.061   0.002  0.00  0.00    +0.049 A 
ATOM      3  C   UNL     1       2.374   1.333  -0.013  0.00  0.00    +0.154 A 
ATOM      4  N   UNL     1       2.351   0.009  -0.020  0.00  0.00    -0.233 NA
ATOM      5  C   UNL     1       1.217  -0.664  -0.013  0.00  0.00    +0.045 A 
ATOM      6  C   UNL     1       0.002  -0.004   0.002  0.00  0.00    +0.060 A 
ATOM      7 CL   UNL     1      -1.484  -0.902   0.012  0.00  0.00    -0.082 Cl
ENDROOT
BRANCH   3   8
ATOM      8  N   UNL     1       3.600   2.004  -0.022  0.00  0.00    -0.221 N 
ATOM      9  C   UNL     1       4.829   1.426  -0.042  0.00  0.00    +0.117 A 
ATOM     10  C   UNL     1       5.749   2.418  -0.045  0.00  0.00    +0.054 A 
ATOM     11  C   UNL     1       5.066   3.640  -0.026  0.00  0.00    +0.166 A 
ATOM     12  N   UNL     1       3.781   3.393  -0.017  0.00  0.00    -0.161 NA
BRANCH  11  13
ATOM     13  C   UNL     1       5.702   5.006  -0.021  0.00  0.00    +0.436 C 
ATOM     14  F   UNL     1       5.883   5.441  -1.338  0.00  0.00    -0.164 F 
ATOM     15  F   UNL     1       4.871   5.905   0.657  0.00  0.00    -0.164 F 
ATOM     16  F   UNL     1       6.942   4.941   0.623  0.00  0.00    -0.164 F 
ENDBRANCH  11  13
ENDBRANCH   3   8
BRANCH   5  17
ATOM     17  C   UNL     1       1.246  -2.170  -0.022  0.00  0.00    -0.028 C 
BRANCH  17  18
ATOM     18  N   UNL     1       1.269  -2.668   1.360  0.00  0.00    +0.382 N 
ATOM     19  H   UNL     1       2.091  -2.318   1.830  0.00  0.00    -0.090 HD
ATOM     20  H   UNL     1       0.444  -2.350   1.845  0.00  0.00    -0.090 HD
ATOM     21  H   UNL     1       1.289  -3.676   1.354  0.00  0.00    -0.090 HD
ENDBRANCH  17  18
ENDBRANCH   5  17
TORSDOF 4
