REMARK  Name = ZINC15956716
REMARK  4 active torsions:
REMARK  status: ('A' for Active; 'I' for Inactive)
REMARK    1  A    between atoms: C_10  and  N_11
REMARK    2  A    between atoms: C_16  and  C_33
REMARK    3  A    between atoms: C_33  and  C_34
REMARK    4  A    between atoms: C_37  and  O_40
REMARK                            x       y       z     vdW  Elec       q    Type
REMARK                         _______ _______ _______ _____ _____    ______ ____
ROOT
ATOM      1  N   UNL     1       4.873   0.100  -0.044  0.00  0.00    -0.209 N 
ATOM      2  C   UNL     1       5.508   0.461   1.077  0.00  0.00    +0.232 C 
ATOM      3  O   UNL     1       5.130   0.222   2.204  0.00  0.00    -0.274 OA
ATOM      4  C   UNL     1       6.770   1.212   0.720  0.00  0.00    +0.108 C 
ATOM      5  C   UNL     1       6.629   2.685   1.159  0.00  0.00    +0.072 C 
ATOM      6  N   UNL     1       5.960   3.362   0.016  0.00  0.00    -0.295 NA
ATOM      7  C   UNL     1       6.564   2.738  -1.177  0.00  0.00    +0.136 C 
ATOM      8  C   UNL     1       6.746   1.238  -0.833  0.00  0.00    +0.123 C 
ATOM      9  C   UNL     1       5.484   0.476  -1.173  0.00  0.00    +0.233 C 
ATOM     10  O   UNL     1       5.086   0.245  -2.295  0.00  0.00    -0.274 OA
ATOM     11  C   UNL     1       7.875   3.379  -1.531  0.00  0.00    +0.003 A 
ATOM     12  C   UNL     1       9.064   3.543  -0.856  0.00  0.00    +0.008 A 
ATOM     13  C   UNL     1      10.121   4.196  -1.464  0.00  0.00    +0.000 A 
ATOM     14  C   UNL     1       9.981   4.682  -2.751  0.00  0.00    +0.002 A 
ATOM     15  C   UNL     1       8.793   4.521  -3.431  0.00  0.00    +0.023 A 
ATOM     16  C   UNL     1       7.723   3.865  -2.826  0.00  0.00    +0.039 A 
ATOM     17  N   UNL     1       6.440   3.582  -3.301  0.00  0.00    -0.283 N 
ATOM     18  C   UNL     1       5.696   2.922  -2.392  0.00  0.00    +0.243 C 
ATOM     19  O   UNL     1       4.550   2.549  -2.527  0.00  0.00    -0.273 OA
ATOM     20  H   UNL     1       4.963   3.209   0.038  0.00  0.00    +0.124 HD
ATOM     21  H   UNL     1       6.121   3.831  -4.182  0.00  0.00    +0.155 HD
ENDROOT
BRANCH   1  31
ATOM     22  C   UNL     1      -0.016   1.357   0.009  0.00  0.00    +0.001 A 
ATOM     23  C   UNL     1       1.169   2.090   0.002  0.00  0.00    +0.001 A 
ATOM     24  C   UNL     1       2.378   1.466  -0.013  0.00  0.00    +0.010 A 
ATOM     25  C   UNL     1       2.437   0.064  -0.021  0.00  0.00    +0.004 A 
ATOM     26  C   UNL     1       1.233  -0.683  -0.013  0.00  0.00    -0.016 A 
ATOM     27  C   UNL     1       0.002  -0.004   0.002  0.00  0.00    +0.008 A 
ATOM     28  C   UNL     1       1.290  -2.087  -0.021  0.00  0.00    +0.008 A 
ATOM     29  C   UNL     1       2.496  -2.718  -0.035  0.00  0.00    +0.002 A 
ATOM     30  C   UNL     1       3.685  -1.995  -0.042  0.00  0.00    +0.024 A 
ATOM     31  C   UNL     1       3.672  -0.617  -0.036  0.00  0.00    +0.052 A 
ENDBRANCH   1  31
BRANCH   5  32
ATOM     32  C   UNL     1       5.766   2.785   2.418  0.00  0.00    +0.054 C 
BRANCH  32  33
ATOM     33  C   UNL     1       5.742   4.213   2.898  0.00  0.00    -0.046 A 
ATOM     34  C   UNL     1       6.699   4.657   3.792  0.00  0.00    +0.007 A 
ATOM     35  C   UNL     1       6.678   5.966   4.235  0.00  0.00    +0.045 A 
ATOM     36  C   UNL     1       5.697   6.835   3.781  0.00  0.00    +0.117 A 
ATOM     37  C   UNL     1       4.738   6.388   2.884  0.00  0.00    +0.045 A 
ATOM     38  C   UNL     1       4.766   5.079   2.440  0.00  0.00    +0.007 A 
BRANCH  36  39
ATOM     39  O   UNL     1       5.675   8.123   4.215  0.00  0.00    -0.507 OA
ATOM     40  H   UNL     1       6.189   8.731   3.667  0.00  0.00    +0.292 HD
ENDBRANCH  36  39
ENDBRANCH  32  33
ENDBRANCH   5  32
TORSDOF 4
