REMARK  Name = ZINC09266125
REMARK  7 active torsions:
REMARK  status: ('A' for Active; 'I' for Inactive)
REMARK    1  A    between atoms: C_1  and  C_2
REMARK    2  A    between atoms: C_2  and  O_3
REMARK    3  A    between atoms: O_3  and  C_4
REMARK    4  A    between atoms: C_9  and  C_10
REMARK    5  A    between atoms: C_10  and  C_12
REMARK    6  A    between atoms: C_32  and  C_40
REMARK    7  A    between atoms: C_34  and  C_39
REMARK                            x       y       z     vdW  Elec       q    Type
REMARK                         _______ _______ _______ _____ _____    ______ ____
ROOT
ATOM      1  C   UNL     1       2.883   4.510  -1.221  0.00  0.00    +0.066 C 
ATOM      2  C   UNL     1       3.914   5.516  -0.678  0.00  0.00    -0.055 C 
ATOM      3  C   UNL     1       5.322   5.113  -1.161  0.00  0.00    -0.016 C 
ATOM      4  C   UNL     1       6.205   5.375   0.087  0.00  0.00    -0.020 C 
ATOM      5  C   UNL     1       5.251   4.969   1.237  0.00  0.00    -0.076 C 
ATOM      6  C   UNL     1       2.877   4.452   1.200  0.00  0.00    +0.060 C 
ATOM      7  C   UNL     1       2.567   3.600  -0.026  0.00  0.00    +0.085 C 
ATOM      8  C   UNL     1       1.140   3.135  -0.046  0.00  0.00    -0.011 A 
ATOM      9  C   UNL     1      -0.072   3.790  -0.032  0.00  0.00    +0.006 A 
ATOM     10  C   UNL     1      -1.251   3.067  -0.056  0.00  0.00    +0.000 A 
ATOM     11  C   UNL     1      -1.210   1.685  -0.101  0.00  0.00    +0.002 A 
ATOM     12  C   UNL     1       0.001   1.024  -0.110  0.00  0.00    +0.023 A 
ATOM     13  C   UNL     1       1.193   1.745  -0.085  0.00  0.00    +0.038 A 
ATOM     14  N   UNL     1       2.521   1.313  -0.094  0.00  0.00    -0.285 N 
ATOM     15  C   UNL     1       3.390   2.341  -0.060  0.00  0.00    +0.228 C 
ATOM     16  O   UNL     1       4.601   2.267  -0.059  0.00  0.00    -0.275 OA
ATOM     17  C   UNL     1       3.346   3.607   2.353  0.00  0.00    -0.026 A 
ATOM     18  C   UNL     1       4.409   2.748   2.524  0.00  0.00    +0.008 A 
ATOM     19  C   UNL     1       4.584   2.095   3.731  0.00  0.00    -0.050 A 
ATOM     20  C   UNL     1       3.689   2.307   4.764  0.00  0.00    +0.008 A 
ATOM     21  C   UNL     1       2.624   3.168   4.598  0.00  0.00    -0.029 A 
ATOM     22  C   UNL     1       2.441   3.829   3.385  0.00  0.00    +0.039 A 
ATOM     23  N   UNL     1       1.457   4.733   2.979  0.00  0.00    -0.286 N 
ATOM     24  C   UNL     1       1.640   5.146   1.711  0.00  0.00    +0.212 C 
ATOM     25  O   UNL     1       0.944   5.927   1.098  0.00  0.00    -0.277 OA
ATOM     26  C   UNL     1       1.656   3.393   5.731  0.00  0.00    +0.045 C 
ATOM     27  C   UNL     1       5.746   1.155   3.920  0.00  0.00    +0.044 C 
ATOM     28  H   UNL     1       2.787   0.380  -0.121  0.00  0.00    +0.155 HD
ATOM     29  H   UNL     1       0.727   5.028   3.544  0.00  0.00    +0.155 HD
ATOM     30  N   UNL     1       3.905   5.420   0.786  0.00  0.00    +0.395 N 
ATOM     31  H   UNL     1       3.695   6.339   1.194  0.00  0.00    -0.079 HD
ENDROOT
BRANCH   1  32
ATOM     32  C   UNL     1       1.639   5.226  -1.679  0.00  0.00    +0.169 C 
ATOM     33  O   UNL     1       1.367   6.319  -1.226  0.00  0.00    -0.292 OA
BRANCH  32  39
ATOM     34  C   UNL     1      -0.404   5.267  -3.103  0.00  0.00    +0.131 A 
ATOM     35  C   UNL     1      -1.229   4.668  -4.043  0.00  0.00    +0.046 A 
ATOM     36  C   UNL     1      -0.910   3.425  -4.552  0.00  0.00    +0.004 A 
ATOM     37  C   UNL     1       0.234   2.765  -4.130  0.00  0.00    +0.001 A 
ATOM     38  C   UNL     1       1.069   3.346  -3.202  0.00  0.00    +0.015 A 
ATOM     39  C   UNL     1       0.757   4.603  -2.672  0.00  0.00    +0.059 A 
BRANCH  34  40
ATOM     40  O   UNL     1      -0.715   6.488  -2.602  0.00  0.00    -0.492 OA
BRANCH  40  42
ATOM     41  C   UNL     1      -2.095   8.463  -2.413  0.00  0.00    +0.048 C 
ATOM     42  C   UNL     1      -1.911   7.102  -3.087  0.00  0.00    +0.226 C 
ENDBRANCH  40  42
ENDBRANCH  34  40
ENDBRANCH  32  39
ENDBRANCH   1  32
TORSDOF 4
