REMARK  Name = ZINC40102510
REMARK  13 active torsions:
REMARK  status: ('A' for Active; 'I' for Inactive)
REMARK    1  A    between atoms: C_4  and  C_7
REMARK    2  A    between atoms: C_7  and  O_8
REMARK    3  A    between atoms: O_8  and  C_9
REMARK    4  A    between atoms: C_13  and  C_15
REMARK    5  A    between atoms: C_15  and  C_17
REMARK    6  A    between atoms: N_21  and  C_31
REMARK    7  A    between atoms: C_22  and  C_24
REMARK    8  A    between atoms: C_27  and  O_30
REMARK    9  A    between atoms: C_31  and  C_32
REMARK   10  A    between atoms: C_32  and  O_33
REMARK   11  A    between atoms: O_33  and  C_34
REMARK   12  A    between atoms: C_34  and  C_35
REMARK   13  A    between atoms: C_35  and  O_36
REMARK                            x       y       z     vdW  Elec       q    Type
REMARK                         _______ _______ _______ _____ _____    ______ ____
ROOT
ATOM      1  C   UNL     1       8.765  -3.593   4.540  0.00  0.00    +0.076 C 
ATOM      2  C   UNL     1       9.259  -3.975   5.742  0.00  0.00    +0.249 C 
ATOM      3  C   UNL     1      10.512  -4.730   5.533  0.00  0.00    +0.288 C 
ATOM      4  O   UNL     1      11.195  -5.207   6.418  0.00  0.00    -0.266 OA
ATOM      5  N   UNL     1      10.786  -4.811   4.218  0.00  0.00    -0.281 N 
ATOM      6  C   UNL     1       9.718  -4.115   3.491  0.00  0.00    +0.145 C 
ATOM      7  O   UNL     1       8.695  -3.708   6.942  0.00  0.00    -0.282 OA
ENDROOT
BRANCH   6   8
ATOM      8  C   UNL     1      10.295  -2.970   2.699  0.00  0.00    -0.022 A 
ATOM      9  C   UNL     1      11.375  -2.263   3.195  0.00  0.00    +0.009 A 
ATOM     10  C   UNL     1      11.905  -1.213   2.471  0.00  0.00    +0.046 A 
ATOM     11  C   UNL     1      11.353  -0.868   1.246  0.00  0.00    +0.117 A 
ATOM     12  C   UNL     1      10.270  -1.579   0.751  0.00  0.00    +0.046 A 
ATOM     13  C   UNL     1       9.747  -2.631   1.476  0.00  0.00    +0.009 A 
BRANCH  11  14
ATOM     14  O   UNL     1      11.873   0.166   0.532  0.00  0.00    -0.507 OA
ATOM     15  H   UNL     1      12.575  -0.093  -0.080  0.00  0.00    +0.292 HD
ENDBRANCH  11  14
ENDBRANCH   6   8
BRANCH   1  16
ATOM     16  C   UNL     1       7.538  -2.826   4.304  0.00  0.00    +0.195 C 
ATOM     17  O   UNL     1       7.466  -1.666   4.665  0.00  0.00    -0.287 OA
BRANCH  16  22
ATOM     18  C   UNL     1       4.119  -3.361   2.834  0.00  0.00    +0.122 A 
ATOM     19  C   UNL     1       4.235  -4.659   2.352  0.00  0.00    +0.046 A 
ATOM     20  C   UNL     1       5.420  -5.355   2.505  0.00  0.00    +0.004 A 
ATOM     21  C   UNL     1       6.495  -4.765   3.137  0.00  0.00    +0.012 A 
ATOM     22  C   UNL     1       6.388  -3.461   3.625  0.00  0.00    +0.026 A 
ATOM     23  C   UNL     1       5.193  -2.758   3.465  0.00  0.00    +0.057 A 
BRANCH  18  24
ATOM     24  O   UNL     1       2.952  -2.682   2.682  0.00  0.00    -0.487 OA
BRANCH  24  25
ATOM     25  C   UNL     1       1.885  -3.366   2.022  0.00  0.00    +0.264 C 
BRANCH  25  29
ATOM     26  C   UNL     1      -1.530  -0.809   1.804  0.00  0.00    +0.000 A 
ATOM     27  C   UNL     1      -0.595  -0.801   0.786  0.00  0.00    +0.000 A 
ATOM     28  C   UNL     1       0.510  -1.629   0.857  0.00  0.00    +0.007 A 
ATOM     29  C   UNL     1       0.680  -2.463   1.945  0.00  0.00    -0.010 A 
ATOM     30  C   UNL     1      -0.254  -2.470   2.963  0.00  0.00    +0.007 A 
ATOM     31  C   UNL     1      -1.360  -1.644   2.892  0.00  0.00    +0.000 A 
ENDBRANCH  25  29
ENDBRANCH  24  25
ENDBRANCH  18  24
ENDBRANCH  16  22
ENDBRANCH   1  16
BRANCH   5  32
ATOM     32  C   UNL     1      11.943  -5.480   3.618  0.00  0.00    +0.137 C 
BRANCH  32  33
ATOM     33  C   UNL     1      11.594  -6.941   3.328  0.00  0.00    +0.179 C 
BRANCH  33  34
ATOM     34  O   UNL     1      10.567  -6.997   2.335  0.00  0.00    -0.376 OA
BRANCH  34  35
ATOM     35  C   UNL     1      10.165  -8.324   1.989  0.00  0.00    +0.187 C 
BRANCH  35  36
ATOM     36  C   UNL     1       9.069  -8.263   0.924  0.00  0.00    +0.184 C 
BRANCH  36  37
ATOM     37  O   UNL     1       9.603  -7.704  -0.278  0.00  0.00    -0.393 OA
ATOM     38  H   UNL     1       8.961  -7.635  -0.999  0.00  0.00    +0.209 HD
ENDBRANCH  36  37
ENDBRANCH  35  36
ENDBRANCH  34  35
ENDBRANCH  33  34
ENDBRANCH  32  33
ENDBRANCH   5  32
TORSDOF 13
