REMARK  Name = ZINC33380576
REMARK  7 active torsions:
REMARK  status: ('A' for Active; 'I' for Inactive)
REMARK    1  A    between atoms: C_1  and  C_2
REMARK    2  A    between atoms: C_2  and  C_3
REMARK    3  A    between atoms: C_2  and  N_4
REMARK    4  A    between atoms: N_4  and  C_5
REMARK    5  A    between atoms: C_5  and  C_6
REMARK    6  A    between atoms: C_20  and  C_22
REMARK    7  A    between atoms: N_31  and  C_32
REMARK                            x       y       z     vdW  Elec       q    Type
REMARK                         _______ _______ _______ _____ _____    ______ ____
ROOT
ATOM      1  C   UNL     1      -2.565   5.040   0.645  0.00  0.00    +0.238 C 
ATOM      2  O   UNL     1      -1.600   5.503   1.216  0.00  0.00    -0.273 OA
ATOM      3  N   UNL     1      -2.484   3.830   0.057  0.00  0.00    -0.255 N 
ATOM      4  C   UNL     1      -1.254   3.160   0.002  0.00  0.00    +0.061 A 
ATOM      5  C   UNL     1      -0.065   3.872  -0.029  0.00  0.00    +0.025 A 
ATOM      6  C   UNL     1       1.141   3.198  -0.069  0.00  0.00    +0.002 A 
ATOM      7  C   UNL     1       1.172   1.815  -0.076  0.00  0.00    +0.002 A 
ATOM      8  C   UNL     1      -0.009   1.095  -0.047  0.00  0.00    +0.028 A 
ATOM      9  C   UNL     1      -1.218   1.762  -0.018  0.00  0.00    +0.068 A 
ATOM     10  N   UNL     1      -2.442   1.076  -0.006  0.00  0.00    -0.316 N 
ATOM     11  C   UNL     1      -2.707  -0.234   0.211  0.00  0.00    +0.092 A 
ATOM     12  C   UNL     1      -4.044  -0.414   0.125  0.00  0.00    +0.020 A 
ATOM     13  C   UNL     1      -4.625   0.842  -0.160  0.00  0.00    +0.025 A 
ATOM     14  C   UNL     1      -3.631   1.733  -0.239  0.00  0.00    +0.049 A 
ATOM     15  C   UNL     1      -3.687   3.214  -0.526  0.00  0.00    +0.159 C 
ENDROOT
BRANCH  15  16
ATOM     16  C   UNL     1      -3.709   3.445  -2.015  0.00  0.00    -0.020 A 
ATOM     17  C   UNL     1      -4.899   3.748  -2.651  0.00  0.00    +0.006 A 
ATOM     18  C   UNL     1      -4.919   3.960  -4.016  0.00  0.00    +0.002 A 
ATOM     19  C   UNL     1      -3.750   3.869  -4.748  0.00  0.00    +0.020 A 
ATOM     20  C   UNL     1      -2.559   3.566  -4.113  0.00  0.00    +0.041 A 
ATOM     21  C   UNL     1      -2.538   3.359  -2.745  0.00  0.00    +0.025 A 
ATOM     22 CL   UNL     1      -1.090   3.451  -5.031  0.00  0.00    -0.084 Cl
ENDBRANCH  15  16
BRANCH   1  23
ATOM     23  C   UNL     1      -3.855   5.817   0.594  0.00  0.00    +0.205 C 
BRANCH  23  24
ATOM     24  N   UNL     1      -3.652   7.140   1.190  0.00  0.00    -0.274 N 
ATOM     25  C   UNL     1      -3.857   7.322   2.510  0.00  0.00    +0.307 C 
ATOM     26  O   UNL     1      -3.604   8.396   3.022  0.00  0.00    -0.252 OA
ATOM     27  N   UNL     1      -4.343   6.315   3.262  0.00  0.00    -0.267 N 
ATOM     28  H   UNL     1      -4.488   5.319   2.819  0.00  0.00    +0.156 HD
BRANCH  27  29
ATOM     29  C   UNL     1      -4.665   6.537   4.607  0.00  0.00    +0.070 A 
ATOM     30  C   UNL     1      -5.174   7.765   5.007  0.00  0.00    +0.026 A 
ATOM     31  C   UNL     1      -5.491   7.981   6.334  0.00  0.00    +0.002 A 
ATOM     32  C   UNL     1      -5.301   6.977   7.265  0.00  0.00    +0.003 A 
ATOM     33  C   UNL     1      -4.793   5.752   6.872  0.00  0.00    +0.040 A 
ATOM     34  C   UNL     1      -4.479   5.527   5.544  0.00  0.00    +0.145 A 
ATOM     35  F   UNL     1      -3.989   4.329   5.159  0.00  0.00    -0.204 F 
ENDBRANCH  27  29
BRANCH  24  37
ATOM     36  C   UNL     1      -1.942   7.890  -0.389  0.00  0.00    +0.028 C 
ATOM     37  C   UNL     1      -3.227   8.264   0.353  0.00  0.00    +0.072 C 
ATOM     38  C   UNL     1      -4.325   8.588  -0.662  0.00  0.00    +0.028 C 
ENDBRANCH  24  37
ENDBRANCH  23  24
ENDBRANCH   1  23
TORSDOF 5
