REMARK  Name = ZINC12007860
REMARK  7 active torsions:
REMARK  status: ('A' for Active; 'I' for Inactive)
REMARK    1  A    between atoms: C_1  and  C_2
REMARK    2  A    between atoms: C_2  and  C_3
REMARK    3  A    between atoms: C_2  and  C_4
REMARK    4  A    between atoms: C_13  and  N_22
REMARK    5  A    between atoms: C_15  and  C_17
REMARK    6  A    between atoms: C_23  and  C_25
REMARK    7  A    between atoms: C_25  and  C_26
REMARK                            x       y       z     vdW  Elec       q    Type
REMARK                         _______ _______ _______ _____ _____    ______ ____
ROOT
ATOM      1  C   UNL     1       3.403  -3.315  -0.055  0.00  0.00    +0.053 A 
ATOM      2  C   UNL     1       2.510  -4.337   0.076  0.00  0.00    +0.093 A 
ATOM      3  C   UNL     1       1.141  -4.031   0.192  0.00  0.00    +0.253 A 
ATOM      4  O   UNL     1       0.313  -4.919   0.311  0.00  0.00    -0.268 OA
ATOM      5  N   UNL     1       0.762  -2.735   0.174  0.00  0.00    -0.291 N 
ATOM      6  H   UNL     1      -0.176  -2.501   0.257  0.00  0.00    +0.172 HD
ATOM      7  C   UNL     1       1.699  -1.760   0.036  0.00  0.00    +0.234 A 
ATOM      8  N   UNL     1       2.977  -2.053  -0.072  0.00  0.00    -0.217 NA
ATOM      9  N   UNL     1       1.303  -0.437   0.014  0.00  0.00    -0.184 N 
ATOM     10  C   UNL     1       2.131   0.649  -0.011  0.00  0.00    +0.132 A 
ATOM     11  C   UNL     1       1.353   1.761  -0.026  0.00  0.00    +0.077 A 
ATOM     12  C   UNL     1       0.005   1.344  -0.009  0.00  0.00    +0.130 A 
ATOM     13  N   UNL     1      -0.019   0.027   0.015  0.00  0.00    -0.159 NA
ENDROOT
BRANCH  12  14
ATOM     14  C   UNL     1      -1.177   2.232  -0.023  0.00  0.00    +0.155 A 
ATOM     15  C   UNL     1      -2.476   1.831  -0.018  0.00  0.00    +0.051 A 
ATOM     16  C   UNL     1      -3.262   3.001  -0.033  0.00  0.00    +0.042 A 
ATOM     17  C   UNL     1      -2.412   4.047  -0.055  0.00  0.00    +0.196 A 
ATOM     18  O   UNL     1      -1.153   3.578  -0.049  0.00  0.00    -0.461 OA
ENDBRANCH  12  14
BRANCH  10  19
ATOM     19  N   UNL     1       3.524   0.621  -0.019  0.00  0.00    -0.270 N 
ATOM     20  C   UNL     1       4.222   1.769   0.086  0.00  0.00    +0.223 C 
ATOM     21  O   UNL     1       3.638   2.827   0.187  0.00  0.00    -0.275 OA
ATOM     22  H   UNL     1       3.991  -0.225  -0.100  0.00  0.00    +0.156 HD
BRANCH  20  23
ATOM     23  C   UNL     1       5.729   1.738   0.076  0.00  0.00    +0.131 C 
BRANCH  23  24
ATOM     24  C   UNL     1       6.261   3.143   0.206  0.00  0.00    -0.039 A 
ATOM     25  C   UNL     1       6.505   3.896  -0.927  0.00  0.00    +0.005 A 
ATOM     26  C   UNL     1       6.987   5.186  -0.809  0.00  0.00    +0.020 A 
ATOM     27  C   UNL     1       7.236   5.719   0.443  0.00  0.00    +0.041 A 
ATOM     28  C   UNL     1       6.997   4.963   1.576  0.00  0.00    +0.020 A 
ATOM     29  C   UNL     1       6.509   3.675   1.457  0.00  0.00    +0.005 A 
ATOM     30 CL   UNL     1       7.848   7.337   0.591  0.00  0.00    -0.084 Cl
ENDBRANCH  23  24
ENDBRANCH  20  23
ENDBRANCH  10  19
BRANCH   1  32
ATOM     31  C   UNL     1       5.395  -3.065  -1.511  0.00  0.00    +0.014 C 
ATOM     32  C   UNL     1       4.875  -3.614  -0.181  0.00  0.00    +0.032 C 
ATOM     33  C   UNL     1       5.630  -2.953   0.974  0.00  0.00    +0.014 C 
ENDBRANCH   1  32
TORSDOF 5
