REMARK  Name = ZINC13120436
REMARK  3 active torsions:
REMARK  status: ('A' for Active; 'I' for Inactive)
REMARK    1  A    between atoms: C_1  and  C_2
REMARK    2  A    between atoms: C_9  and  C_11
REMARK    3  A    between atoms: N_13  and  N_14
REMARK                            x       y       z     vdW  Elec       q    Type
REMARK                         _______ _______ _______ _____ _____    ______ ____
ROOT
ATOM      1  C   UNL     1       2.002  -5.272   2.640  0.00  0.00    +0.270 C 
ATOM      2  O   UNL     1       3.088  -5.043   3.139  0.00  0.00    -0.268 OA
ATOM      3  N   UNL     1       1.498  -6.523   2.666  0.00  0.00    -0.202 N 
ATOM      4  H   UNL     1       0.633  -6.705   2.268  0.00  0.00    +0.178 HD
ENDROOT
BRANCH   3   5
ATOM      5  N   UNL     1       2.226  -7.558   3.267  0.00  0.00    -0.174 NA
ATOM      6  C   UNL     1       1.788  -8.793   3.197  0.00  0.00    +0.153 C 
ATOM      7  C   UNL     1       0.662  -9.306   2.384  0.00  0.00    +0.028 A 
ATOM      8  C   UNL     1      -0.228  -8.704   1.502  0.00  0.00    +0.012 A 
ATOM      9  C   UNL     1      -1.196  -9.466   0.879  0.00  0.00    +0.001 A 
ATOM     10  C   UNL     1      -1.280 -10.824   1.134  0.00  0.00    +0.002 A 
ATOM     11  C   UNL     1      -0.402 -11.431   2.008  0.00  0.00    +0.024 A 
ATOM     12  C   UNL     1       0.581 -10.681   2.644  0.00  0.00    +0.043 A 
ATOM     13  N   UNL     1       1.572 -11.036   3.552  0.00  0.00    -0.280 N 
ATOM     14  C   UNL     1       2.315  -9.974   3.909  0.00  0.00    +0.269 C 
ATOM     15  O   UNL     1       3.254  -9.985   4.683  0.00  0.00    -0.268 OA
ATOM     16  H   UNL     1       1.712 -11.937   3.883  0.00  0.00    +0.155 HD
ENDBRANCH   3   5
BRANCH   1  24
ATOM     17  C   UNL     1       0.045   1.463  -0.201  0.00  0.00    +0.008 C 
ATOM     18  C   UNL     1      -0.047  -0.061  -0.093  0.00  0.00    -0.009 C 
ATOM     19  C   UNL     1      -1.489  -0.462   0.229  0.00  0.00    +0.009 C 
ATOM     20  C   UNL     1      -1.626  -1.982   0.067  0.00  0.00    +0.043 C 
ATOM     21  C   UNL     1      -0.488  -2.642   0.789  0.00  0.00    -0.006 A 
ATOM     22  C   UNL     1       0.654  -2.042   1.232  0.00  0.00    -0.036 A 
ATOM     23  C   UNL     1       1.573  -2.853   1.880  0.00  0.00    +0.024 A 
ATOM     24  C   UNL     1       1.241  -4.190   2.012  0.00  0.00    +0.076 A 
ATOM     25  S   UNL     1      -0.354  -4.250   1.217  0.00  0.00    -0.088 S 
ATOM     26  C   UNL     1       0.887  -0.549   1.015  0.00  0.00    +0.039 C 
ENDBRANCH   1  24
TORSDOF 2
