REMARK  Name = ZINC36697614
REMARK  11 active torsions:
REMARK  status: ('A' for Active; 'I' for Inactive)
REMARK    1  A    between atoms: C_1  and  N_2
REMARK    2  A    between atoms: N_2  and  C_3
REMARK    3  A    between atoms: N_2  and  C_22
REMARK    4  A    between atoms: C_3  and  C_4
REMARK    5  A    between atoms: C_4  and  C_5
REMARK    6  A    between atoms: C_5  and  N_6
REMARK    7  A    between atoms: C_7  and  C_9
REMARK    8  A    between atoms: C_9  and  C_10
REMARK    9  A    between atoms: C_10  and  C_12
REMARK   10  A    between atoms: C_10  and  N_18
REMARK   11  A    between atoms: C_22  and  C_23
REMARK                            x       y       z     vdW  Elec       q    Type
REMARK                         _______ _______ _______ _____ _____    ______ ____
ROOT
ATOM      1  N   UNL     1       0.347  -0.287   4.853  0.00  0.00    -0.315 N 
ATOM      2  C   UNL     1       0.669  -0.609   6.121  0.00  0.00    +0.215 C 
ATOM      3  O   UNL     1       1.700  -1.204   6.353  0.00  0.00    -0.276 OA
ATOM      4  H   UNL     1      -0.477   0.189   4.668  0.00  0.00    +0.149 HD
ENDROOT
BRANCH   1   5
ATOM      5  C   UNL     1       1.242  -0.656   3.754  0.00  0.00    +0.102 C 
BRANCH   5   6
ATOM      6  C   UNL     1       0.647  -0.178   2.428  0.00  0.00    +0.000 C 
BRANCH   6   7
ATOM      7  C   UNL     1       1.582  -0.564   1.280  0.00  0.00    -0.077 C 
BRANCH   7   9
ATOM      8  C   UNL     1       0.963   1.364  -0.006  0.00  0.00    -0.096 C 
ATOM      9  N   UNL     1       1.010  -0.104   0.007  0.00  0.00    +0.381 N 
ATOM     10  H   UNL     1       0.076  -0.471  -0.094  0.00  0.00    -0.082 HD
BRANCH   9  11
ATOM     11  C   UNL     1       1.845  -0.578  -1.104  0.00  0.00    -0.043 C 
BRANCH  11  12
ATOM     12  C   UNL     1       1.194  -0.212  -2.413  0.00  0.00    -0.064 A 
ATOM     13  C   UNL     1       0.303  -1.084  -3.009  0.00  0.00    +0.002 A 
ATOM     14  C   UNL     1      -0.294  -0.748  -4.210  0.00  0.00    +0.000 A 
ATOM     15  C   UNL     1      -0.000   0.459  -4.814  0.00  0.00    +0.000 A 
ATOM     16  C   UNL     1       0.891   1.332  -4.218  0.00  0.00    +0.000 A 
ATOM     17  C   UNL     1       1.485   0.998  -3.015  0.00  0.00    +0.002 A 
ENDBRANCH  11  12
ENDBRANCH   9  11
ENDBRANCH   7   9
ENDBRANCH   6   7
ENDBRANCH   5   6
ENDBRANCH   1   5
BRANCH   2  18
ATOM     18  C   UNL     1      -0.251  -0.229   7.252  0.00  0.00    +0.122 C 
BRANCH  18  19
ATOM     19  C   UNL     1       0.344  -0.707   8.578  0.00  0.00    +0.113 C 
BRANCH  19  20
ATOM     20  N   UNL     1       0.391  -2.171   8.591  0.00  0.00    -0.292 N 
ATOM     21  C   UNL     1       1.304  -2.809   9.351  0.00  0.00    +0.298 C 
ATOM     22  O   UNL     1       2.028  -2.174  10.093  0.00  0.00    -0.253 OA
ATOM     23  N   UNL     1       1.414  -4.151   9.287  0.00  0.00    -0.313 N 
ATOM     24  H   UNL     1      -0.235  -2.682   8.054  0.00  0.00    +0.151 HD
ATOM     25  H   UNL     1       0.836  -4.658   8.695  0.00  0.00    +0.146 HD
ATOM     26  H   UNL     1       2.071  -4.610   9.833  0.00  0.00    +0.146 HD
ENDBRANCH  19  20
BRANCH  19  27
ATOM     27  C   UNL     1      -0.513  -0.221   9.718  0.00  0.00    -0.027 A 
ATOM     28  C   UNL     1      -1.735  -0.818   9.967  0.00  0.00    +0.005 A 
ATOM     29  C   UNL     1      -2.521  -0.372  11.013  0.00  0.00    +0.000 A 
ATOM     30  C   UNL     1      -2.085   0.670  11.810  0.00  0.00    +0.000 A 
ATOM     31  C   UNL     1      -0.863   1.265  11.562  0.00  0.00    +0.000 A 
ATOM     32  C   UNL     1      -0.074   0.817  10.519  0.00  0.00    +0.005 A 
ENDBRANCH  19  27
ENDBRANCH  18  19
ENDBRANCH   2  18
TORSDOF 10
