REMARK  Name = ZINC09320672
REMARK  8 active torsions:
REMARK  status: ('A' for Active; 'I' for Inactive)
REMARK    1  A    between atoms: C_1  and  O_2
REMARK    2  A    between atoms: O_2  and  C_3
REMARK    3  A    between atoms: C_6  and  C_9
REMARK    4  A    between atoms: C_11  and  C_15
REMARK    5  A    between atoms: C_18  and  S_21
REMARK    6  A    between atoms: N_19  and  N_20
REMARK    7  A    between atoms: S_21  and  C_22
REMARK    8  A    between atoms: C_22  and  C_23
REMARK                            x       y       z     vdW  Elec       q    Type
REMARK                         _______ _______ _______ _____ _____    ______ ____
ROOT
ATOM      1  C   UNL     1      -7.166  -5.560   0.058  0.00  0.00    +0.199 A 
ATOM      2  N   UNL     1      -6.603  -6.716  -0.210  0.00  0.00    -0.125 NA
ATOM      3  N   UNL     1      -7.469  -7.660  -0.110  0.00  0.00    -0.120 NA
ATOM      4  C   UNL     1      -8.639  -7.166   0.229  0.00  0.00    +0.209 A 
ATOM      5  N   UNL     1      -8.487  -5.814   0.352  0.00  0.00    -0.223 N 
ENDROOT
BRANCH   1   8
ATOM      6  C   UNL     1      -4.964  -2.620   0.036  0.00  0.00    +0.093 A 
ATOM      7  C   UNL     1      -5.160  -4.011   0.041  0.00  0.00    +0.061 A 
ATOM      8  C   UNL     1      -6.508  -4.242   0.050  0.00  0.00    +0.105 A 
ATOM      9  N   UNL     1      -7.132  -3.027   0.050  0.00  0.00    -0.273 N 
ATOM     10  H   UNL     1      -8.090  -2.878   0.055  0.00  0.00    +0.189 HD
ATOM     11  N   UNL     1      -6.144  -2.034   0.046  0.00  0.00    -0.173 NA
BRANCH   6  15
ATOM     12  C   UNL     1      -1.200  -0.637   0.010  0.00  0.00    +0.120 A 
ATOM     13  C   UNL     1      -2.374   0.104   0.020  0.00  0.00    +0.046 A 
ATOM     14  C   UNL     1      -3.595  -0.536   0.028  0.00  0.00    +0.013 A 
ATOM     15  C   UNL     1      -3.651  -1.928   0.027  0.00  0.00    +0.002 A 
ATOM     16  C   UNL     1      -2.471  -2.670   0.017  0.00  0.00    +0.013 A 
ATOM     17  C   UNL     1      -1.252  -2.025   0.003  0.00  0.00    +0.046 A 
BRANCH  12  19
ATOM     18  C   UNL     1      -0.017   1.425   0.010  0.00  0.00    +0.277 C 
ATOM     19  O   UNL     1       0.002  -0.004   0.002  0.00  0.00    -0.495 OA
ENDBRANCH  12  19
ENDBRANCH   6  15
ENDBRANCH   1   8
BRANCH   5  20
ATOM     20  N   UNL     1      -9.446  -4.903   0.694  0.00  0.00    -0.295 N 
ATOM     21  H   UNL     1      -9.924  -4.556  -0.124  0.00  0.00    +0.163 HD
ATOM     22  H   UNL     1     -10.100  -5.297   1.354  0.00  0.00    +0.163 HD
ENDBRANCH   5  20
BRANCH   4  23
ATOM     23  S   UNL     1     -10.125  -8.078   0.483  0.00  0.00    -0.075 S 
BRANCH  23  24
ATOM     24  C   UNL     1      -9.642  -9.798   0.171  0.00  0.00    +0.173 C 
BRANCH  24  25
ATOM     25  C   UNL     1     -10.838 -10.697   0.356  0.00  0.00    +0.229 C 
ATOM     26  O   UNL     1     -11.910 -10.223   0.668  0.00  0.00    -0.275 OA
ATOM     27  N   UNL     1     -10.716 -12.027   0.175  0.00  0.00    -0.264 N 
ATOM     28  C   UNL     1     -11.819 -12.856   0.346  0.00  0.00    +0.164 A 
ATOM     29  N   UNL     1     -13.048 -12.523   0.674  0.00  0.00    -0.233 NA
ATOM     30  C   UNL     1     -13.992 -13.437   0.798  0.00  0.00    +0.120 A 
ATOM     31  C   UNL     1     -13.636 -14.725   0.573  0.00  0.00    +0.068 A 
ATOM     32  S   UNL     1     -11.906 -14.528   0.177  0.00  0.00    -0.061 S 
ATOM     33  H   UNL     1      -9.858 -12.406  -0.074  0.00  0.00    +0.157 HD
ENDBRANCH  24  25
ENDBRANCH  23  24
ENDBRANCH   4  23
TORSDOF 7
