REMARK  Name = ZINC15672446
REMARK  7 active torsions:
REMARK  status: ('A' for Active; 'I' for Inactive)
REMARK    1  A    between atoms: C_1  and  C_2
REMARK    2  A    between atoms: C_5  and  N_9
REMARK    3  A    between atoms: C_6  and  C_8
REMARK    4  A    between atoms: C_18  and  C_19
REMARK    5  A    between atoms: C_18  and  C_20
REMARK    6  A    between atoms: N_22  and  C_23
REMARK    7  A    between atoms: C_26  and  C_29
REMARK                            x       y       z     vdW  Elec       q    Type
REMARK                         _______ _______ _______ _____ _____    ______ ____
ROOT
ATOM      1  N   UNL     1      -0.220  -6.626   1.903  0.00  0.00    -0.250 N 
ATOM      2  C   UNL     1       0.200  -6.926   3.155  0.00  0.00    +0.268 C 
ATOM      3  O   UNL     1       1.346  -7.266   3.384  0.00  0.00    -0.268 OA
ATOM      4  C   UNL     1      -0.804  -6.820   4.221  0.00  0.00    +0.107 A 
ATOM      5  C   UNL     1      -0.671  -6.883   5.577  0.00  0.00    +0.048 A 
ATOM      6  C   UNL     1      -1.939  -6.717   6.121  0.00  0.00    +0.038 A 
ATOM      7  C   UNL     1      -2.876  -6.562   5.088  0.00  0.00    +0.057 A 
ATOM      8  N   UNL     1      -2.149  -6.644   3.914  0.00  0.00    -0.333 N 
ATOM      9  C   UNL     1      -2.625  -6.579   2.530  0.00  0.00    +0.158 C 
ATOM     10  C   UNL     1      -1.515  -6.005   1.649  0.00  0.00    +0.133 C 
ATOM     11  C   UNL     1      -1.888  -6.225   0.181  0.00  0.00    +0.044 C 
ATOM     12  C   UNL     1      -4.205  -6.382   5.497  0.00  0.00    +0.034 A 
ATOM     13  C   UNL     1      -4.516  -6.369   6.811  0.00  0.00    +0.048 A 
ATOM     14  S   UNL     1      -2.929  -6.614   7.589  0.00  0.00    -0.095 S 
ENDROOT
BRANCH   1  19
ATOM     15  C   UNL     1       3.168  -7.815  -2.488  0.00  0.00    +0.044 C 
ATOM     16  C   UNL     1       2.268  -7.499  -1.321  0.00  0.00    -0.050 A 
ATOM     17  C   UNL     1       2.273  -6.231  -0.769  0.00  0.00    +0.005 A 
ATOM     18  C   UNL     1       1.450  -5.938   0.300  0.00  0.00    +0.024 A 
ATOM     19  C   UNL     1       0.615  -6.919   0.821  0.00  0.00    +0.041 A 
ATOM     20  C   UNL     1       0.616  -8.193   0.267  0.00  0.00    -0.029 A 
ATOM     21  C   UNL     1       1.438  -8.477  -0.805  0.00  0.00    +0.008 A 
ATOM     22  C   UNL     1      -0.284  -9.261   0.833  0.00  0.00    +0.045 C 
ENDBRANCH   1  19
BRANCH  10  23
ATOM     23  C   UNL     1      -1.404  -4.525   1.906  0.00  0.00    +0.239 C 
ATOM     24  O   UNL     1      -2.046  -3.743   1.236  0.00  0.00    -0.273 OA
ATOM     25  N   UNL     1      -0.593  -4.069   2.881  0.00  0.00    -0.311 N 
ATOM     26  H   UNL     1      -0.135  -4.695   3.463  0.00  0.00    +0.149 HD
BRANCH  25  27
ATOM     27  C   UNL     1      -0.403  -2.627   3.062  0.00  0.00    +0.073 C 
ATOM     28  C   UNL     1       0.003  -2.344   4.509  0.00  0.00    +0.022 C 
ATOM     29  C   UNL     1       0.202  -0.838   4.698  0.00  0.00    +0.005 C 
ATOM     30  C   UNL     1       1.302  -0.347   3.754  0.00  0.00    -0.014 C 
ATOM     31  C   UNL     1       0.896  -0.631   2.307  0.00  0.00    +0.005 C 
ATOM     32  C   UNL     1       0.698  -2.136   2.118  0.00  0.00    +0.022 C 
ATOM     33  C   UNL     1       1.500   1.158   3.943  0.00  0.00    +0.007 C 
ENDBRANCH  25  27
ENDBRANCH  10  23
TORSDOF 3
