REMARK  Name = ZINC01899303
REMARK  11 active torsions:
REMARK  status: ('A' for Active; 'I' for Inactive)
REMARK    1  A    between atoms: C_1  and  C_2
REMARK    2  A    between atoms: C_2  and  C_3
REMARK    3  A    between atoms: C_3  and  C_4
REMARK    4  A    between atoms: C_4  and  O_5
REMARK    5  A    between atoms: O_5  and  C_6
REMARK    6  A    between atoms: C_9  and  N_12
REMARK    7  A    between atoms: C_17  and  C_31
REMARK    8  A    between atoms: N_19  and  C_25
REMARK    9  A    between atoms: C_34  and  O_37
REMARK   10  A    between atoms: O_37  and  C_38
REMARK   11  A    between atoms: C_38  and  C_40
REMARK                            x       y       z     vdW  Elec       q    Type
REMARK                         _______ _______ _______ _____ _____    ______ ____
ROOT
ATOM      1  N   UNL     1       1.754  -8.063   2.876  0.00  0.00    -0.208 N 
ATOM      2  C   UNL     1       2.488  -8.609   3.852  0.00  0.00    +0.235 C 
ATOM      3  O   UNL     1       3.123  -7.991   4.680  0.00  0.00    -0.274 OA
ATOM      4  C   UNL     1       2.404 -10.116   3.762  0.00  0.00    +0.145 C 
ATOM      5  C   UNL     1       1.576 -10.644   4.957  0.00  0.00    +0.157 C 
ATOM      6  N   UNL     1       0.186 -10.591   4.443  0.00  0.00    -0.244 N 
ATOM      7  O   UNL     1       0.294 -10.990   3.075  0.00  0.00    -0.257 OA
ATOM      8  C   UNL     1       1.485 -10.350   2.532  0.00  0.00    +0.249 C 
ATOM      9  C   UNL     1       1.140  -8.949   2.082  0.00  0.00    +0.259 C 
ATOM     10  O   UNL     1       0.422  -8.671   1.145  0.00  0.00    -0.272 OA
ENDROOT
BRANCH   1  14
ATOM     11  C   UNL     1       1.391  -3.939   2.361  0.00  0.00    +0.121 A 
ATOM     12  C   UNL     1       0.274  -4.700   2.677  0.00  0.00    +0.047 A 
ATOM     13  C   UNL     1       0.394  -6.065   2.848  0.00  0.00    +0.027 A 
ATOM     14  C   UNL     1       1.631  -6.676   2.702  0.00  0.00    +0.044 A 
ATOM     15  C   UNL     1       2.748  -5.915   2.385  0.00  0.00    +0.027 A 
ATOM     16  C   UNL     1       2.627  -4.551   2.210  0.00  0.00    +0.047 A 
BRANCH  11  17
ATOM     17  O   UNL     1       1.272  -2.595   2.193  0.00  0.00    -0.492 OA
BRANCH  17  18
ATOM     18  C   UNL     1      -0.030  -2.033   2.363  0.00  0.00    +0.229 C 
BRANCH  18  19
ATOM     19  C   UNL     1       0.034  -0.521   2.136  0.00  0.00    +0.041 C 
BRANCH  19  21
ATOM     20  C   UNL     1      -1.296   1.594   2.092  0.00  0.00    +0.004 C 
ATOM     21  C   UNL     1      -1.360   0.082   2.319  0.00  0.00    -0.000 C 
ENDBRANCH  19  21
ENDBRANCH  18  19
ENDBRANCH  17  18
ENDBRANCH  11  17
ENDBRANCH   1  14
BRANCH   6  22
ATOM     22  C   UNL     1      -0.970 -10.232   5.140  0.00  0.00    +0.065 A 
ATOM     23  C   UNL     1      -0.891  -9.862   6.476  0.00  0.00    +0.028 A 
ATOM     24  C   UNL     1      -2.036  -9.508   7.162  0.00  0.00    +0.002 A 
ATOM     25  C   UNL     1      -3.261  -9.521   6.520  0.00  0.00    +0.000 A 
ATOM     26  C   UNL     1      -3.343  -9.888   5.189  0.00  0.00    +0.002 A 
ATOM     27  C   UNL     1      -2.201 -10.239   4.496  0.00  0.00    +0.028 A 
ENDBRANCH   6  22
BRANCH   5  28
ATOM     28  C   UNL     1       1.970 -12.058   5.298  0.00  0.00    -0.022 A 
ATOM     29  C   UNL     1       1.477 -13.111   4.549  0.00  0.00    +0.009 A 
ATOM     30  C   UNL     1       1.837 -14.408   4.859  0.00  0.00    +0.047 A 
ATOM     31  C   UNL     1       2.694 -14.654   5.922  0.00  0.00    +0.132 A 
ATOM     32  C   UNL     1       3.188 -13.595   6.671  0.00  0.00    +0.047 A 
ATOM     33  C   UNL     1       2.829 -12.300   6.354  0.00  0.00    +0.009 A 
BRANCH  31  34
ATOM     34  O   UNL     1       3.049 -15.929   6.229  0.00  0.00    -0.422 OA
BRANCH  34  35
ATOM     35  C   UNL     1       3.970 -16.534   5.454  0.00  0.00    +0.344 C 
ATOM     36  O   UNL     1       4.535 -15.906   4.580  0.00  0.00    -0.245 OA
BRANCH  35  37
ATOM     37  C   UNL     1       4.292 -17.960   5.665  0.00  0.00    +0.059 A 
ATOM     38  C   UNL     1       3.640 -18.686   6.664  0.00  0.00    +0.015 A 
ATOM     39  C   UNL     1       3.946 -20.017   6.856  0.00  0.00    +0.001 A 
ATOM     40  C   UNL     1       4.896 -20.633   6.061  0.00  0.00    +0.000 A 
ATOM     41  C   UNL     1       5.546 -19.920   5.069  0.00  0.00    +0.001 A 
ATOM     42  C   UNL     1       5.246 -18.590   4.862  0.00  0.00    +0.015 A 
ENDBRANCH  35  37
ENDBRANCH  34  35
ENDBRANCH  31  34
ENDBRANCH   5  28
TORSDOF 10
