REMARK  Name = ZINC35545483
REMARK  6 active torsions:
REMARK  status: ('A' for Active; 'I' for Inactive)
REMARK    1  A    between atoms: C_1  and  C_2
REMARK    2  A    between atoms: C_2  and  O_3
REMARK    3  A    between atoms: O_3  and  C_4
REMARK    4  A    between atoms: C_4  and  C_6
REMARK    5  A    between atoms: C_13  and  C_15
REMARK    6  A    between atoms: C_20  and  C_37
REMARK                            x       y       z     vdW  Elec       q    Type
REMARK                         _______ _______ _______ _____ _____    ______ ____
ROOT
ATOM      1  C   UNL     1       3.556  -5.905  -4.999  0.00  0.00    +0.101 C 
ATOM      2  C   UNL     1       4.164  -4.831  -5.899  0.00  0.00    +0.051 C 
ATOM      3  C   UNL     1       4.700  -5.490  -7.144  0.00  0.00    -0.025 A 
ATOM      4  C   UNL     1       4.741  -4.779  -8.329  0.00  0.00    +0.017 A 
ATOM      5  C   UNL     1       5.221  -5.378  -9.478  0.00  0.00    +0.055 A 
ATOM      6  C   UNL     1       5.662  -6.688  -9.446  0.00  0.00    +0.014 A 
ATOM      7  C   UNL     1       5.626  -7.400  -8.264  0.00  0.00    +0.024 A 
ATOM      8  C   UNL     1       5.148  -6.798  -7.104  0.00  0.00    +0.033 A 
ATOM      9  N   UNL     1       5.149  -7.542  -5.911  0.00  0.00    -0.323 N 
ATOM     10  C   UNL     1       4.603  -6.979  -4.688  0.00  0.00    +0.103 C 
ATOM     11  C   UNL     1       3.968  -8.018  -3.778  0.00  0.00    +0.129 C 
ATOM     12  N   UNL     1       4.619  -9.311  -3.852  0.00  0.00    -0.313 N 
ATOM     13  C   UNL     1       5.072  -9.888  -5.107  0.00  0.00    +0.125 C 
ATOM     14  C   UNL     1       5.773  -8.862  -5.967  0.00  0.00    +0.124 C 
ATOM     15  C   UNL     1       4.818 -10.027  -2.678  0.00  0.00    +0.099 A 
ATOM     16  C   UNL     1       5.556 -11.206  -2.706  0.00  0.00    +0.042 A 
ATOM     17  C   UNL     1       5.746 -11.909  -1.530  0.00  0.00    +0.005 A 
ATOM     18  C   UNL     1       5.190 -11.407  -0.360  0.00  0.00    +0.018 A 
ATOM     19  C   UNL     1       4.468 -10.231  -0.405  0.00  0.00    +0.084 A 
ATOM     20  N   UNL     1       4.308  -9.579  -1.541  0.00  0.00    -0.350 N 
ATOM     21  H   UNL     1       3.800  -8.752  -1.544  0.00  0.00    +0.166 HD
ENDROOT
BRANCH   1  28
ATOM     22  C   UNL     1      -0.219  -4.664  -4.787  0.00  0.00    +0.115 C 
ATOM     23  C   UNL     1      -0.813  -3.999  -3.543  0.00  0.00    +0.018 C 
ATOM     24  C   UNL     1      -0.042  -4.455  -2.301  0.00  0.00    +0.020 C 
ATOM     25  C   UNL     1       1.422  -4.023  -2.428  0.00  0.00    +0.108 C 
ATOM     26  N   UNL     1       1.960  -4.538  -3.694  0.00  0.00    -0.300 N 
ATOM     27  C   UNL     1       1.244  -4.235  -4.941  0.00  0.00    +0.122 C 
ATOM     28  C   UNL     1       3.088  -5.275  -3.712  0.00  0.00    +0.221 C 
ATOM     29  O   UNL     1       3.728  -5.430  -2.694  0.00  0.00    -0.275 OA
BRANCH  22  30
ATOM     30  C   UNL     1      -0.998  -4.240  -6.005  0.00  0.00    +0.312 C 
ATOM     31  O   UNL     1      -0.443  -3.656  -6.905  0.00  0.00    -0.250 OA
BRANCH  30  32
ATOM     32  O   UNL     1      -2.310  -4.510  -6.089  0.00  0.00    -0.465 OA
BRANCH  32  34
ATOM     33  C   UNL     1      -4.463  -4.474  -7.188  0.00  0.00    +0.048 C 
ATOM     34  C   UNL     1      -2.987  -4.079  -7.272  0.00  0.00    +0.229 C 
ENDBRANCH  32  34
ENDBRANCH  30  32
ENDBRANCH  22  30
ENDBRANCH   1  28
BRANCH   5  35
ATOM     35  C   UNL     1       5.266  -4.601 -10.769  0.00  0.00    +0.417 C 
ATOM     36  F   UNL     1       6.496  -3.945 -10.877  0.00  0.00    -0.166 F 
ATOM     37  F   UNL     1       5.109  -5.479 -11.847  0.00  0.00    -0.166 F 
ATOM     38  F   UNL     1       4.232  -3.658 -10.782  0.00  0.00    -0.166 F 
ENDBRANCH   5  35
TORSDOF 5
