REMARK  Name = ZINC38800084
REMARK  4 active torsions:
REMARK  status: ('A' for Active; 'I' for Inactive)
REMARK    1  A    between atoms: C_1  and  N_2
REMARK    2  A    between atoms: C_6  and  N_21
REMARK    3  A    between atoms: N_21  and  S_22
REMARK    4  A    between atoms: S_22  and  C_25
REMARK                            x       y       z     vdW  Elec       q    Type
REMARK                         _______ _______ _______ _____ _____    ______ ____
ROOT
ATOM      1  C   UNL     1      -0.018   1.461   0.010  0.00  0.00    +0.152 C 
ATOM      2  N   UNL     1       0.002  -0.004   0.002  0.00  0.00    -0.311 N 
ATOM      3  C   UNL     1      -1.192  -0.693   0.004  0.00  0.00    +0.053 A 
ATOM      4  C   UNL     1      -2.416  -0.019   0.013  0.00  0.00    +0.028 A 
ATOM      5  C   UNL     1      -3.590  -0.714   0.015  0.00  0.00    +0.029 A 
ATOM      6  C   UNL     1      -3.601  -2.112   0.008  0.00  0.00    +0.086 A 
ATOM      7  C   UNL     1      -2.389  -2.814  -0.002  0.00  0.00    +0.056 A 
ATOM      8  C   UNL     1      -1.178  -2.094  -0.004  0.00  0.00    +0.019 A 
ATOM      9  C   UNL     1       0.109  -2.800  -0.013  0.00  0.00    -0.002 A 
ATOM     10  C   UNL     1       1.267  -2.054  -0.014  0.00  0.00    +0.079 A 
ATOM     11  C   UNL     1       1.184  -0.644  -0.013  0.00  0.00    +0.252 A 
ATOM     12  O   UNL     1       2.212   0.010  -0.019  0.00  0.00    -0.268 OA
ATOM     13  C   UNL     1       0.136  -4.273  -0.021  0.00  0.00    -0.006 A 
ATOM     14  C   UNL     1       1.348  -4.960  -0.030  0.00  0.00    +0.009 A 
ATOM     15  C   UNL     1       1.358  -6.341  -0.036  0.00  0.00    +0.001 A 
ATOM     16  C   UNL     1       0.169  -7.052  -0.035  0.00  0.00    +0.001 A 
ATOM     17  C   UNL     1      -1.042  -6.390  -0.027  0.00  0.00    +0.012 A 
ATOM     18  C   UNL     1      -1.073  -4.995  -0.019  0.00  0.00    +0.030 A 
ATOM     19  C   UNL     1      -2.365  -4.282  -0.010  0.00  0.00    +0.196 C 
ATOM     20  O   UNL     1      -3.408  -4.909  -0.008  0.00  0.00    -0.287 OA
ENDROOT
BRANCH   6  21
ATOM     21  N   UNL     1      -4.804  -2.799   0.010  0.00  0.00    -0.097 NA
BRANCH  21  22
ATOM     22  S   UNL     1      -6.234  -1.964   0.022  0.00  0.00    +0.092 S 
ATOM     23  O   UNL     1      -6.301  -1.290   1.272  0.00  0.00    -0.148 OA
ATOM     24  O   UNL     1      -6.314  -1.277  -1.219  0.00  0.00    -0.148 OA
BRANCH  22  25
ATOM     25  C   UNL     1      -7.533  -3.155   0.022  0.00  0.00    +0.112 A 
ATOM     26  C   UNL     1      -8.056  -3.630  -1.252  0.00  0.00    +0.031 A 
ATOM     27  C   UNL     1      -9.050  -4.542  -1.323  0.00  0.00    +0.027 A 
ATOM     28  C   UNL     1      -9.627  -5.077  -0.091  0.00  0.00    +0.056 A 
ATOM     29  N   UNL     1     -10.569  -5.942   0.188  0.00  0.00    -0.268 N 
ATOM     30  C   UNL     1     -10.674  -6.043   1.555  0.00  0.00    +0.308 C 
ATOM     31  O   UNL     1     -11.454  -6.762   2.143  0.00  0.00    -0.252 OA
ATOM     32  N   UNL     1      -9.761  -5.208   2.156  0.00  0.00    -0.267 N 
ATOM     33  C   UNL     1      -9.089  -4.588   1.219  0.00  0.00    +0.058 A 
ATOM     34  C   UNL     1      -8.009  -3.604   1.204  0.00  0.00    +0.054 A 
ATOM     35  H   UNL     1      -9.636  -5.098   3.111  0.00  0.00    +0.156 HD
ATOM     36  H   UNL     1     -11.103  -6.428  -0.460  0.00  0.00    +0.156 HD
ENDBRANCH  22  25
ENDBRANCH  21  22
ENDBRANCH   6  21
TORSDOF 3
