REMARK  Name = ZINC36027364
REMARK  6 active torsions:
REMARK  status: ('A' for Active; 'I' for Inactive)
REMARK    1  A    between atoms: C_4  and  C_7
REMARK    2  A    between atoms: C_7  and  C_8
REMARK    3  A    between atoms: N_12  and  C_33
REMARK    4  A    between atoms: N_17  and  S_20
REMARK    5  A    between atoms: S_20  and  C_23
REMARK    6  A    between atoms: C_33  and  C_34
REMARK                            x       y       z     vdW  Elec       q    Type
REMARK                         _______ _______ _______ _____ _____    ______ ____
ROOT
ATOM      1  C   UNL     1       3.796  -1.211   1.543  0.00  0.00    +0.023 C 
ATOM      2  C   UNL     1       5.172  -1.839   1.591  0.00  0.00    +0.201 C 
ATOM      3  O   UNL     1       6.226  -1.243   1.525  0.00  0.00    -0.277 OA
ATOM      4  N   UNL     1       5.029  -3.175   1.720  0.00  0.00    -0.311 N 
ATOM      5  C   UNL     1       3.603  -3.512   1.758  0.00  0.00    +0.006 C 
ATOM      6  N   UNL     1       2.882  -2.255   2.066  0.00  0.00    +0.401 N 
ATOM      7  C   UNL     1       3.150  -4.047   0.401  0.00  0.00    +0.023 C 
ATOM      8  C   UNL     1       3.930  -5.325   0.074  0.00  0.00    +0.109 C 
ATOM      9  N   UNL     1       3.776  -6.271   1.188  0.00  0.00    -0.177 NA
ATOM     10  C   UNL     1       4.114  -5.825   2.546  0.00  0.00    +0.109 C 
ATOM     11  C   UNL     1       3.333  -4.543   2.853  0.00  0.00    +0.023 C 
ATOM     12  H   UNL     1       2.756  -2.151   3.062  0.00  0.00    -0.082 HD
ATOM     13  H   UNL     1       1.995  -2.225   1.587  0.00  0.00    -0.082 HD
ENDROOT
BRANCH   9  14
ATOM     14  S   UNL     1       3.232  -7.811   0.917  0.00  0.00    +0.063 S 
ATOM     15  O   UNL     1       2.670  -8.264   2.141  0.00  0.00    -0.153 OA
ATOM     16  O   UNL     1       2.489  -7.773  -0.293  0.00  0.00    -0.153 OA
BRANCH  14  17
ATOM     17  C   UNL     1       4.645  -8.817   0.609  0.00  0.00    +0.131 A 
ATOM     18  C   UNL     1       4.973  -9.818   1.472  0.00  0.00    +0.031 A 
ATOM     19  C   UNL     1       6.086 -10.624   1.247  0.00  0.00    +0.003 A 
ATOM     20  C   UNL     1       6.879 -10.434   0.156  0.00  0.00    +0.010 A 
ATOM     21  C   UNL     1       6.571  -9.411  -0.755  0.00  0.00    +0.002 A 
ATOM     22  C   UNL     1       5.436  -8.592  -0.531  0.00  0.00    +0.097 A 
ATOM     23  N   UNL     1       5.135  -7.620  -1.398  0.00  0.00    -0.253 NA
ATOM     24  C   UNL     1       5.869  -7.406  -2.463  0.00  0.00    +0.111 A 
ATOM     25  C   UNL     1       6.995  -8.178  -2.745  0.00  0.00    +0.020 A 
ATOM     26  C   UNL     1       7.364  -9.180  -1.895  0.00  0.00    +0.011 A 
ENDBRANCH  14  17
ENDBRANCH   9  14
BRANCH   1  27
ATOM     27  C   UNL     1       3.425  -0.851   0.103  0.00  0.00    +0.028 C 
BRANCH  27  31
ATOM     28  C   UNL     1      -0.443   0.960   0.038  0.00  0.00    +0.000 A 
ATOM     29  C   UNL     1       0.685   1.745   0.189  0.00  0.00    +0.000 A 
ATOM     30  C   UNL     1       1.937   1.159   0.210  0.00  0.00    +0.003 A 
ATOM     31  C   UNL     1       2.060  -0.212   0.081  0.00  0.00    -0.048 A 
ATOM     32  C   UNL     1       0.932  -0.997  -0.070  0.00  0.00    +0.003 A 
ATOM     33  C   UNL     1      -0.320  -0.410  -0.092  0.00  0.00    +0.000 A 
ENDBRANCH  27  31
ENDBRANCH   1  27
BRANCH   4  34
ATOM     34  C   UNL     1       6.128  -4.139   1.808  0.00  0.00    +0.137 C 
BRANCH  34  35
ATOM     35  C   UNL     1       6.535  -4.316   3.273  0.00  0.00    +0.136 C 
ATOM     36  C   UNL     1       7.679  -5.354   3.392  0.00  0.00    +0.035 C 
ATOM     37  C   UNL     1       8.339  -4.913   4.727  0.00  0.00    +0.031 C 
ATOM     38  C   UNL     1       8.157  -3.380   4.692  0.00  0.00    +0.160 C 
ATOM     39  O   UNL     1       7.081  -3.092   3.790  0.00  0.00    -0.375 OA
ENDBRANCH  34  35
ENDBRANCH   4  34
TORSDOF 6
