REMARK  Name = ZINC49487121
REMARK  8 active torsions:
REMARK  status: ('A' for Active; 'I' for Inactive)
REMARK    1  A    between atoms: C_1  and  C_2
REMARK    2  A    between atoms: C_5  and  S_8
REMARK    3  A    between atoms: S_8  and  N_11
REMARK    4  A    between atoms: C_16  and  C_18
REMARK    5  A    between atoms: C_18  and  C_19
REMARK    6  A    between atoms: C_19  and  N_20
REMARK    7  A    between atoms: C_21  and  C_23
REMARK    8  A    between atoms: N_25  and  C_26
REMARK                            x       y       z     vdW  Elec       q    Type
REMARK                         _______ _______ _______ _____ _____    ______ ____
ROOT
ATOM      1  N   UNL     1      -0.540  -5.568   3.244  0.00  0.00    -0.308 N 
ATOM      2  C   UNL     1      -1.615  -6.351   3.464  0.00  0.00    +0.299 C 
ATOM      3  O   UNL     1      -1.853  -7.278   2.717  0.00  0.00    -0.265 OA
ATOM      4  H   UNL     1      -0.349  -4.828   3.840  0.00  0.00    +0.149 HD
ENDROOT
BRANCH   2   5
ATOM      5  C   UNL     1      -2.512  -6.079   4.626  0.00  0.00    +0.303 C 
ATOM      6  O   UNL     1      -2.273  -5.152   5.372  0.00  0.00    -0.265 OA
ATOM      7  N   UNL     1      -3.586  -6.862   4.846  0.00  0.00    -0.278 N 
ATOM      8  H   UNL     1      -3.734  -7.648   4.297  0.00  0.00    +0.155 HD
BRANCH   7   9
ATOM      9  C   UNL     1      -4.488  -6.542   5.866  0.00  0.00    +0.034 A 
ATOM     10  C   UNL     1      -5.108  -7.576   6.564  0.00  0.00    +0.028 A 
ATOM     11  C   UNL     1      -6.000  -7.304   7.572  0.00  0.00    -0.024 A 
ATOM     12  C   UNL     1      -6.245  -5.959   7.851  0.00  0.00    +0.043 A 
ATOM     13  C   UNL     1      -5.630  -4.924   7.162  0.00  0.00    -0.015 A 
ATOM     14  C   UNL     1      -4.731  -5.194   6.154  0.00  0.00    +0.029 A 
ATOM     15  C   UNL     1      -6.166  -3.666   7.773  0.00  0.00    +0.133 C 
ATOM     16  C   UNL     1      -7.126  -4.150   8.852  0.00  0.00    +0.224 C 
ATOM     17  O   UNL     1      -7.779  -3.449   9.595  0.00  0.00    -0.275 OA
ATOM     18  N   UNL     1      -7.117  -5.491   8.832  0.00  0.00    -0.271 N 
ATOM     19  C   UNL     1      -7.873  -6.441   9.668  0.00  0.00    +0.114 C 
ATOM     20  C   UNL     1      -8.067  -7.737   8.872  0.00  0.00    +0.024 C 
ATOM     21  C   UNL     1      -6.731  -8.320   8.400  0.00  0.00    +0.038 C 
ENDBRANCH   7   9
ENDBRANCH   2   5
BRANCH   1  22
ATOM     22  C   UNL     1       0.340  -5.836   2.103  0.00  0.00    +0.106 C 
BRANCH  22  23
ATOM     23  C   UNL     1       1.474  -4.809   2.083  0.00  0.00    +0.039 C 
BRANCH  23  29
ATOM     24  N   UNL     1       3.612  -4.254   1.021  0.00  0.00    -0.173 NA
ATOM     25  C   UNL     1       4.747  -4.502   0.122  0.00  0.00    +0.110 C 
ATOM     26  C   UNL     1       5.195  -5.958   0.282  0.00  0.00    +0.017 C 
ATOM     27  C   UNL     1       3.998  -6.884   0.054  0.00  0.00    +0.003 C 
ATOM     28  C   UNL     1       2.918  -6.592   1.099  0.00  0.00    +0.021 C 
ATOM     29  C   UNL     1       2.447  -5.147   0.952  0.00  0.00    +0.081 C 
BRANCH  24  30
ATOM     30  S   UNL     1       3.648  -2.996   2.098  0.00  0.00    +0.061 S 
ATOM     31  O   UNL     1       2.309  -2.542   2.237  0.00  0.00    -0.153 OA
ATOM     32  O   UNL     1       4.705  -2.139   1.687  0.00  0.00    -0.153 OA
BRANCH  30  37
ATOM     33  C   UNL     1       5.261  -5.271   7.449  0.00  0.00    +0.044 C 
ATOM     34  C   UNL     1       4.858  -4.703   6.113  0.00  0.00    -0.050 A 
ATOM     35  C   UNL     1       5.824  -4.400   5.171  0.00  0.00    +0.005 A 
ATOM     36  C   UNL     1       5.454  -3.879   3.945  0.00  0.00    +0.029 A 
ATOM     37  C   UNL     1       4.119  -3.661   3.660  0.00  0.00    +0.106 A 
ATOM     38  C   UNL     1       3.153  -3.965   4.602  0.00  0.00    +0.029 A 
ATOM     39  C   UNL     1       3.522  -4.490   5.826  0.00  0.00    +0.005 A 
ENDBRANCH  30  37
ENDBRANCH  24  30
ENDBRANCH  23  29
ENDBRANCH  22  23
ENDBRANCH   1  22
TORSDOF 7
