REMARK  Name = ZINC40938029
REMARK  8 active torsions:
REMARK  status: ('A' for Active; 'I' for Inactive)
REMARK    1  A    between atoms: C_1  and  C_2
REMARK    2  A    between atoms: C_2  and  N_3
REMARK    3  A    between atoms: N_14  and  C_18
REMARK    4  A    between atoms: C_18  and  C_19
REMARK    5  A    between atoms: C_19  and  C_20
REMARK    6  A    between atoms: C_20  and  O_22
REMARK    7  A    between atoms: O_22  and  C_23
REMARK    8  A    between atoms: C_23  and  C_24
REMARK                            x       y       z     vdW  Elec       q    Type
REMARK                         _______ _______ _______ _____ _____    ______ ____
ROOT
ATOM      1  N   UNL     1       0.682  -0.510  -1.194  0.00  0.00    -0.267 N 
ATOM      2  C   UNL     1       0.061  -0.703  -2.423  0.00  0.00    +0.045 A 
ATOM      3  C   UNL     1      -1.263  -0.559  -2.822  0.00  0.00    +0.025 A 
ATOM      4  C   UNL     1      -1.626  -0.819  -4.128  0.00  0.00    +0.017 A 
ATOM      5  C   UNL     1      -0.680  -1.226  -5.057  0.00  0.00    +0.019 A 
ATOM      6  C   UNL     1       0.640  -1.374  -4.680  0.00  0.00    +0.025 A 
ATOM      7  C   UNL     1       1.016  -1.114  -3.365  0.00  0.00    +0.011 A 
ATOM      8  C   UNL     1       2.308  -1.174  -2.651  0.00  0.00    +0.065 C 
ATOM      9  C   UNL     1       3.539  -1.529  -3.169  0.00  0.00    +0.089 C 
ATOM     10  C   UNL     1       3.882  -2.083  -4.507  0.00  0.00    +0.259 C 
ATOM     11  O   UNL     1       3.033  -2.295  -5.350  0.00  0.00    -0.269 OA
ATOM     12  N   UNL     1       5.162  -2.331  -4.728  0.00  0.00    -0.255 N 
ATOM     13  C   UNL     1       6.100  -2.094  -3.789  0.00  0.00    +0.121 C 
ATOM     14  S   UNL     1       7.790  -2.350  -3.890  0.00  0.00    -0.027 S 
ATOM     15  S   UNL     1       5.159  -1.443  -2.418  0.00  0.00    -0.060 S 
ATOM     16  C   UNL     1       2.000  -0.765  -1.266  0.00  0.00    +0.253 C 
ATOM     17  O   UNL     1       2.797  -0.677  -0.351  0.00  0.00    -0.270 OA
ATOM     18 BR   UNL     1      -1.199  -1.578  -6.841  0.00  0.00    -0.050 Br
ENDROOT
BRANCH   1  20
ATOM     19  C   UNL     1      -0.004   1.450   0.098  0.00  0.00    +0.025 C 
ATOM     20  C   UNL     1      -0.011  -0.079   0.022  0.00  0.00    +0.110 C 
ENDBRANCH   1  20
BRANCH  12  21
ATOM     21  C   UNL     1       5.571  -2.878  -6.024  0.00  0.00    +0.126 C 
BRANCH  21  22
ATOM     22  C   UNL     1       5.885  -1.730  -6.985  0.00  0.00    +0.140 C 
BRANCH  22  23
ATOM     23  C   UNL     1       6.305  -2.292  -8.319  0.00  0.00    +0.309 C 
ATOM     24  O   UNL     1       6.349  -3.489  -8.483  0.00  0.00    -0.251 OA
BRANCH  23  25
ATOM     25  O   UNL     1       6.631  -1.464  -9.324  0.00  0.00    -0.465 OA
BRANCH  25  26
ATOM     26  C   UNL     1       7.020  -2.066 -10.560  0.00  0.00    +0.229 C 
ATOM     27  C   UNL     1       7.351  -0.973 -11.578  0.00  0.00    +0.048 C 
ENDBRANCH  25  26
ENDBRANCH  23  25
ENDBRANCH  22  23
ENDBRANCH  21  22
ENDBRANCH  12  21
TORSDOF 6
