REMARK  Name = ZINC01424261
REMARK  10 active torsions:
REMARK  status: ('A' for Active; 'I' for Inactive)
REMARK    1  A    between atoms: C_1  and  C_2
REMARK    2  A    between atoms: C_2  and  O_3
REMARK    3  A    between atoms: O_3  and  C_4
REMARK    4  A    between atoms: C_4  and  C_6
REMARK    5  A    between atoms: C_10  and  N_11
REMARK    6  A    between atoms: C_12  and  C_14
REMARK    7  A    between atoms: C_15  and  C_37
REMARK    8  A    between atoms: C_19  and  C_21
REMARK    9  A    between atoms: C_33  and  C_35
REMARK   10  A    between atoms: C_33  and  C_36
REMARK                            x       y       z     vdW  Elec       q    Type
REMARK                         _______ _______ _______ _____ _____    ______ ____
ROOT
ATOM      1  C   UNL     1      -3.258  -2.699   5.125  0.00  0.00    +0.043 C 
ATOM      2  C   UNL     1      -3.991  -3.308   6.073  0.00  0.00    +0.014 C 
ATOM      3  N   UNL     1      -3.643  -3.202   7.391  0.00  0.00    -0.321 N 
ATOM      4  C   UNL     1      -2.374  -2.837   7.750  0.00  0.00    +0.016 C 
ATOM      5  C   UNL     1      -1.569  -2.203   6.871  0.00  0.00    +0.024 C 
ATOM      6  C   UNL     1      -2.046  -1.888   5.478  0.00  0.00    +0.090 C 
ATOM      7  C   UNL     1      -0.264  -1.819   7.228  0.00  0.00    +0.162 C 
ATOM      8  O   UNL     1       0.440  -1.265   6.408  0.00  0.00    -0.292 OA
ATOM      9  C   UNL     1       0.276  -2.083   8.607  0.00  0.00    +0.086 C 
ATOM     10  C   UNL     1      -0.889  -2.107   9.603  0.00  0.00    -0.023 C 
ATOM     11  C   UNL     1      -1.898  -3.162   9.145  0.00  0.00    +0.058 C 
ATOM     12  C   UNL     1      -1.563  -0.733   9.638  0.00  0.00    +0.011 C 
ATOM     13  C   UNL     1      -0.368  -2.464  10.996  0.00  0.00    +0.011 C 
ATOM     14  C   UNL     1      -5.203  -4.112   5.680  0.00  0.00    +0.061 C 
ATOM     15  H   UNL     1      -4.302  -3.387   8.078  0.00  0.00    +0.152 HD
ENDROOT
BRANCH   6  16
ATOM     16  C   UNL     1      -2.391  -0.423   5.399  0.00  0.00    -0.032 A 
ATOM     17  C   UNL     1      -3.318   0.116   6.272  0.00  0.00    +0.008 A 
ATOM     18  C   UNL     1      -3.637   1.459   6.203  0.00  0.00    +0.050 A 
ATOM     19  C   UNL     1      -3.028   2.269   5.258  0.00  0.00    +0.166 A 
ATOM     20  C   UNL     1      -2.095   1.726   4.379  0.00  0.00    +0.167 A 
ATOM     21  C   UNL     1      -1.776   0.380   4.457  0.00  0.00    +0.054 A 
ATOM     22  O   UNL     1      -1.645   2.717   3.555  0.00  0.00    -0.453 OA
ATOM     23  C   UNL     1      -2.609   3.780   3.668  0.00  0.00    +0.466 C 
ATOM     24  O   UNL     1      -3.163   3.600   4.985  0.00  0.00    -0.453 OA
ENDBRANCH   6  16
BRANCH   1  26
ATOM     25  N   UNL     1      -4.593  -2.034   3.252  0.00  0.00    -0.275 N 
ATOM     26  C   UNL     1      -3.634  -2.830   3.766  0.00  0.00    +0.247 C 
ATOM     27  O   UNL     1      -3.091  -3.661   3.062  0.00  0.00    -0.270 OA
ATOM     28  H   UNL     1      -4.969  -1.319   3.789  0.00  0.00    +0.156 HD
BRANCH  25  33
ATOM     29  C   UNL     1      -5.936  -1.462   1.234  0.00  0.00    +0.091 A 
ATOM     30  C   UNL     1      -6.241  -1.893  -0.120  0.00  0.00    -0.021 A 
ATOM     31  C   UNL     1      -5.603  -3.021  -0.498  0.00  0.00    -0.004 A 
ATOM     32  S   UNL     1      -4.633  -3.482   0.908  0.00  0.00    -0.077 S 
ATOM     33  C   UNL     1      -5.043  -2.238   1.959  0.00  0.00    +0.087 A 
ATOM     34  C   UNL     1      -5.709  -3.714  -1.822  0.00  0.00    +0.043 C 
ATOM     35  C   UNL     1      -6.939  -3.163  -2.558  0.00  0.00    +0.005 C 
ATOM     36  C   UNL     1      -6.910  -1.633  -2.494  0.00  0.00    +0.005 C 
ATOM     37  C   UNL     1      -7.189  -1.166  -1.063  0.00  0.00    +0.037 C 
BRANCH  29  38
ATOM     38  C   UNL     1      -6.540  -0.258   1.806  0.00  0.00    +0.342 C 
ATOM     39  O   UNL     1      -5.947   0.803   1.754  0.00  0.00    -0.245 OA
BRANCH  38  40
ATOM     40  O   UNL     1      -7.753  -0.325   2.391  0.00  0.00    -0.461 OA
BRANCH  40  42
ATOM     41  C   UNL     1      -9.639   0.621   3.569  0.00  0.00    +0.048 C 
ATOM     42  C   UNL     1      -8.332   0.907   2.828  0.00  0.00    +0.229 C 
ENDBRANCH  40  42
ENDBRANCH  38  40
ENDBRANCH  29  38
ENDBRANCH  25  33
ENDBRANCH   1  26
TORSDOF 6
