REMARK  Name = ZINC00674585
REMARK  11 active torsions:
REMARK  status: ('A' for Active; 'I' for Inactive)
REMARK    1  A    between atoms: C_1  and  C_2
REMARK    2  A    between atoms: C_2  and  N_3
REMARK    3  A    between atoms: N_3  and  C_4
REMARK    4  A    between atoms: N_3  and  S_6
REMARK    5  A    between atoms: C_4  and  C_5
REMARK    6  A    between atoms: S_6  and  C_9
REMARK    7  A    between atoms: C_12  and  N_15
REMARK    8  A    between atoms: C_16  and  C_18
REMARK    9  A    between atoms: C_18  and  O_19
REMARK   10  A    between atoms: O_19  and  C_20
REMARK   11  A    between atoms: C_24  and  C_26
REMARK                            x       y       z     vdW  Elec       q    Type
REMARK                         _______ _______ _______ _____ _____    ______ ____
ROOT
ATOM      1  C   UNL     1      -0.941   1.900   1.430  0.00  0.00    +0.106 A 
ATOM      2  C   UNL     1      -0.607   3.065   2.096  0.00  0.00    +0.030 A 
ATOM      3  C   UNL     1      -1.317   3.450   3.217  0.00  0.00    +0.025 A 
ATOM      4  C   UNL     1      -2.360   2.659   3.682  0.00  0.00    +0.034 A 
ATOM      5  C   UNL     1      -2.689   1.487   3.014  0.00  0.00    +0.025 A 
ATOM      6  C   UNL     1      -1.979   1.110   1.891  0.00  0.00    +0.030 A 
ENDROOT
BRANCH   4   7
ATOM      7  N   UNL     1      -3.077   3.043   4.819  0.00  0.00    -0.283 N 
ATOM      8  C   UNL     1      -3.570   2.106   5.654  0.00  0.00    +0.255 C 
ATOM      9  O   UNL     1      -3.310   0.936   5.472  0.00  0.00    -0.272 OA
ATOM     10  H   UNL     1      -3.221   3.984   5.008  0.00  0.00    +0.155 HD
BRANCH   8  11
ATOM     11  C   UNL     1      -4.442   2.513   6.813  0.00  0.00    +0.324 C 
BRANCH  11  12
ATOM     12  O   UNL     1      -4.836   1.350   7.545  0.00  0.00    -0.483 OA
BRANCH  12  13
ATOM     13  C   UNL     1      -5.632   1.544   8.629  0.00  0.00    +0.122 A 
ATOM     14  C   UNL     1      -6.021   2.827   8.985  0.00  0.00    +0.047 A 
ATOM     15  C   UNL     1      -6.835   3.021  10.085  0.00  0.00    +0.019 A 
ATOM     16  C   UNL     1      -7.252   1.937  10.837  0.00  0.00    +0.021 A 
ATOM     17  C   UNL     1      -6.860   0.657  10.487  0.00  0.00    -0.033 A 
ATOM     18  C   UNL     1      -6.051   0.459   9.385  0.00  0.00    +0.050 A 
ATOM     19  C   UNL     1      -7.317  -0.521  11.308  0.00  0.00    +0.045 C 
ATOM     20 BR   UNL     1      -8.360   2.206  12.346  0.00  0.00    -0.050 Br
ENDBRANCH  12  13
ENDBRANCH  11  12
ENDBRANCH   8  11
ENDBRANCH   4   7
BRANCH   1  21
ATOM     21  S   UNL     1      -0.038   1.416  -0.003  0.00  0.00    +0.061 S 
ATOM     22  O   UNL     1      -0.187   0.008  -0.121  0.00  0.00    -0.153 OA
ATOM     23  O   UNL     1       1.234   2.043   0.088  0.00  0.00    -0.153 OA
BRANCH  21  24
ATOM     24  N   UNL     1      -0.802   2.085  -1.312  0.00  0.00    -0.177 NA
BRANCH  24  26
ATOM     25  C   UNL     1       0.609   3.281  -2.912  0.00  0.00    +0.022 C 
ATOM     26  C   UNL     1      -0.415   3.417  -1.784  0.00  0.00    +0.106 C 
ENDBRANCH  24  26
BRANCH  24  27
ATOM     27  C   UNL     1      -1.863   1.344  -1.997  0.00  0.00    +0.106 C 
ATOM     28  C   UNL     1      -3.224   1.774  -1.444  0.00  0.00    +0.022 C 
ENDBRANCH  24  27
ENDBRANCH  21  24
ENDBRANCH   1  21
TORSDOF 8
