REMARK  Name = ZINC46581295
REMARK  8 active torsions:
REMARK  status: ('A' for Active; 'I' for Inactive)
REMARK    1  A    between atoms: C_1  and  C_2
REMARK    2  A    between atoms: C_3  and  C_32
REMARK    3  A    between atoms: C_7  and  N_31
REMARK    4  A    between atoms: C_9  and  S_11
REMARK    5  A    between atoms: S_11  and  C_12
REMARK    6  A    between atoms: C_12  and  C_13
REMARK    7  A    between atoms: C_16  and  C_26
REMARK    8  A    between atoms: C_19  and  C_21
REMARK                            x       y       z     vdW  Elec       q    Type
REMARK                         _______ _______ _______ _____ _____    ______ ____
ROOT
ATOM      1  C   UNL     1       3.132  -3.096   6.624  0.00  0.00    +0.246 C 
ATOM      2  O   UNL     1       3.217  -4.304   6.538  0.00  0.00    -0.273 OA
ATOM      3  N   UNL     1       3.710  -2.451   7.657  0.00  0.00    -0.184 N 
ATOM      4  C   UNL     1       4.474  -3.086   8.742  0.00  0.00    +0.143 C 
ATOM      5  C   UNL     1       4.896  -1.900   9.631  0.00  0.00    +0.088 C 
ATOM      6  C   UNL     1       4.308  -0.694   8.933  0.00  0.00    +0.075 C 
ATOM      7  N   UNL     1       3.685  -1.074   7.868  0.00  0.00    -0.180 NA
ENDROOT
BRANCH   6   8
ATOM      8  C   UNL     1       4.432   0.693   9.392  0.00  0.00    +0.035 A 
ATOM      9  C   UNL     1       3.925   1.849   8.823  0.00  0.00    +0.017 A 
ATOM     10  C   UNL     1       4.177   3.049   9.446  0.00  0.00    +0.008 A 
ATOM     11  C   UNL     1       4.909   3.063  10.591  0.00  0.00    +0.046 A 
ATOM     12  S   UNL     1       5.269   1.332  10.834  0.00  0.00    -0.095 S 
ENDBRANCH   6   8
BRANCH   4  13
ATOM     13  C   UNL     1       3.605  -4.047   9.511  0.00  0.00    +0.013 A 
ATOM     14  C   UNL     1       3.925  -5.255  10.036  0.00  0.00    +0.013 A 
ATOM     15  C   UNL     1       2.954  -5.971  10.711  0.00  0.00    +0.008 A 
ATOM     16  C   UNL     1       1.711  -5.444  10.829  0.00  0.00    +0.045 A 
ATOM     17  S   UNL     1       1.888  -3.886   9.975  0.00  0.00    -0.100 S 
ENDBRANCH   4  13
BRANCH   1  18
ATOM     18  C   UNL     1       2.381  -2.318   5.575  0.00  0.00    +0.175 C 
BRANCH  18  19
ATOM     19  S   UNL     1       1.725  -3.460   4.328  0.00  0.00    -0.077 S 
BRANCH  19  28
ATOM     20  C   UNL     1      -1.287   1.427   0.444  0.00  0.00    +0.045 C 
ATOM     21  C   UNL     1      -1.146  -0.073   0.394  0.00  0.00    -0.028 A 
ATOM     22  C   UNL     1      -1.693  -0.773  -0.610  0.00  0.00    -0.008 A 
ATOM     23  S   UNL     1      -1.260  -2.459  -0.227  0.00  0.00    -0.073 S 
ATOM     24  C   UNL     1      -0.356  -2.179   1.272  0.00  0.00    +0.115 A 
ATOM     25  C   UNL     1      -0.410  -0.777   1.431  0.00  0.00    +0.050 A 
ATOM     26  C   UNL     1       0.255  -0.264   2.579  0.00  0.00    +0.129 A 
ATOM     27  N   UNL     1       0.869  -1.101   3.400  0.00  0.00    -0.207 NA
ATOM     28  C   UNL     1       0.886  -2.411   3.188  0.00  0.00    +0.191 A 
ATOM     29  N   UNL     1       0.274  -2.947   2.139  0.00  0.00    -0.214 NA
ATOM     30  C   UNL     1      -2.486  -0.257  -1.783  0.00  0.00    +0.052 C 
BRANCH  26  31
ATOM     31  N   UNL     1       0.261   1.095   2.835  0.00  0.00    -0.343 N 
ATOM     32  H   UNL     1       0.109   1.725   2.113  0.00  0.00    +0.144 HD
ATOM     33  H   UNL     1       0.416   1.418   3.736  0.00  0.00    +0.144 HD
ENDBRANCH  26  31
ENDBRANCH  19  28
ENDBRANCH  18  19
ENDBRANCH   1  18
TORSDOF 6
