REMARK  Name = ZINC38573237
REMARK  4 active torsions:
REMARK  status: ('A' for Active; 'I' for Inactive)
REMARK    1  A    between atoms: C_4  and  C_7
REMARK    2  A    between atoms: C_12  and  S_14
REMARK    3  A    between atoms: S_14  and  C_15
REMARK    4  A    between atoms: C_17  and  C_28
REMARK                            x       y       z     vdW  Elec       q    Type
REMARK                         _______ _______ _______ _____ _____    ______ ____
ROOT
ATOM      1  C   UNL     1       8.749  -0.804  -0.195  0.00  0.00    +0.171 C 
ATOM      2  C   UNL     1      10.134  -0.272   0.121  0.00  0.00    -0.009 C 
ATOM      3  C   UNL     1      11.157  -0.592  -0.776  0.00  0.00    +0.003 A 
ATOM      4  C   UNL     1      12.475  -0.139  -0.558  0.00  0.00    +0.030 A 
ATOM      5  C   UNL     1      13.452  -0.465  -1.447  0.00  0.00    +0.042 A 
ATOM      6  C   UNL     1      13.178  -1.241  -2.572  0.00  0.00    +0.022 A 
ATOM      7  C   UNL     1      11.926  -1.707  -2.836  0.00  0.00    +0.025 A 
ATOM      8  C   UNL     1      10.867  -1.409  -1.960  0.00  0.00    +0.041 A 
ATOM      9  N   UNL     1       9.638  -1.869  -2.220  0.00  0.00    -0.284 N 
ATOM     10  C   UNL     1       8.595  -1.633  -1.450  0.00  0.00    +0.235 C 
ATOM     11  O   UNL     1       7.505  -2.085  -1.750  0.00  0.00    -0.274 OA
ATOM     12 CL   UNL     1      15.072   0.096  -1.175  0.00  0.00    -0.084 Cl
ATOM     13  H   UNL     1       9.508  -2.405  -3.018  0.00  0.00    +0.155 HD
ENDROOT
BRANCH   2  14
ATOM     14  C   UNL     1      10.379   0.516   1.274  0.00  0.00    -0.020 A 
ATOM     15  C   UNL     1      10.787   1.853   1.143  0.00  0.00    +0.008 A 
ATOM     16  C   UNL     1      11.023   2.610   2.269  0.00  0.00    +0.001 A 
ATOM     17  C   UNL     1      10.859   2.056   3.528  0.00  0.00    +0.000 A 
ATOM     18  C   UNL     1      10.457   0.737   3.668  0.00  0.00    +0.001 A 
ATOM     19  C   UNL     1      10.211  -0.035   2.555  0.00  0.00    +0.008 A 
ENDBRANCH   2  14
BRANCH   1  20
ATOM     20  S   UNL     1       7.623   0.612  -0.322  0.00  0.00    -0.068 S 
BRANCH  20  26
ATOM     21  C   UNL     1       3.738   0.140  -0.612  0.00  0.00    +0.079 A 
ATOM     22  C   UNL     1       3.588  -1.245  -0.586  0.00  0.00    +0.100 A 
ATOM     23  C   UNL     1       4.731  -2.033  -0.476  0.00  0.00    +0.275 A 
ATOM     24  O   UNL     1       4.633  -3.384  -0.448  0.00  0.00    -0.266 OA
ATOM     25  N   UNL     1       5.918  -1.443  -0.400  0.00  0.00    -0.183 NA
ATOM     26  C   UNL     1       6.025  -0.122  -0.427  0.00  0.00    +0.193 A 
ATOM     27  N   UNL     1       4.963   0.661  -0.536  0.00  0.00    -0.222 NA
BRANCH  21  31
ATOM     28  C   UNL     1       0.337   2.670  -0.948  0.00  0.00    +0.000 A 
ATOM     29  C   UNL     1       1.602   3.224  -0.863  0.00  0.00    +0.001 A 
ATOM     30  C   UNL     1       2.710   2.408  -0.754  0.00  0.00    +0.010 A 
ATOM     31  C   UNL     1       2.552   1.023  -0.729  0.00  0.00    +0.001 A 
ATOM     32  C   UNL     1       1.275   0.471  -0.815  0.00  0.00    +0.010 A 
ATOM     33  C   UNL     1       0.175   1.297  -0.923  0.00  0.00    +0.001 A 
ENDBRANCH  21  31
ENDBRANCH  20  26
ENDBRANCH   1  20
TORSDOF 4
