REMARK  Name = ZINC50324659
REMARK  3 active torsions:
REMARK  status: ('A' for Active; 'I' for Inactive)
REMARK    1  A    between atoms: C_12  and  C_14
REMARK    2  A    between atoms: C_15  and  N_23
REMARK    3  A    between atoms: C_16  and  C_20
REMARK                            x       y       z     vdW  Elec       q    Type
REMARK                         _______ _______ _______ _____ _____    ______ ____
ROOT
ATOM      1  C   UNL     1       3.256   2.720  -3.792  0.00  0.00    +0.141 A 
ATOM      2  C   UNL     1       4.220   2.145  -4.617  0.00  0.00    +0.078 A 
ATOM      3  C   UNL     1       4.111   2.827  -5.840  0.00  0.00    +0.087 A 
ATOM      4  N   UNL     1       3.162   3.718  -5.720  0.00  0.00    -0.176 NA
ATOM      5  N   UNL     1       2.638   3.685  -4.549  0.00  0.00    -0.271 N 
ATOM      6  H   UNL     1       1.915   4.256  -4.244  0.00  0.00    +0.189 HD
ENDROOT
BRANCH   1  16
ATOM      7  C   UNL     1      -0.052   1.567  -0.020  0.00  0.00    +0.004 C 
ATOM      8  C   UNL     1       1.427   1.996  -0.017  0.00  0.00    +0.025 C 
ATOM      9  C   UNL     1       2.178   0.850  -0.725  0.00  0.00    +0.105 C 
ATOM     10  C   UNL     1       1.349  -0.405  -0.497  0.00  0.00    +0.139 C 
ATOM     11  C   UNL     1      -0.043   0.029  -0.021  0.00  0.00    +0.033 C 
ATOM     12  O   UNL     1       1.239  -1.228  -1.645  0.00  0.00    -0.373 OA
ATOM     13  C   UNL     1       0.811  -0.535  -2.824  0.00  0.00    +0.179 C 
ATOM     14  C   UNL     1       1.958   0.389  -3.249  0.00  0.00    +0.136 C 
ATOM     15  N   UNL     1       2.366   1.188  -2.121  0.00  0.00    -0.289 N 
ATOM     16  C   UNL     1       2.959   2.364  -2.403  0.00  0.00    +0.267 C 
ATOM     17  O   UNL     1       3.249   3.131  -1.503  0.00  0.00    -0.268 OA
ENDBRANCH   1  16
BRANCH   3  18
ATOM     18  C   UNL     1       4.942   2.576  -7.072  0.00  0.00    +0.041 C 
ATOM     19  C   UNL     1       4.801   3.564  -8.232  0.00  0.00    +0.010 C 
ATOM     20  C   UNL     1       4.206   2.159  -8.347  0.00  0.00    +0.010 C 
ENDBRANCH   3  18
BRANCH   2  21
ATOM     21  N   UNL     1       5.102   1.115  -4.297  0.00  0.00    -0.355 N 
ATOM     22  H   UNL     1       5.084   0.718  -3.413  0.00  0.00    +0.142 HD
ATOM     23  H   UNL     1       5.734   0.795  -4.960  0.00  0.00    +0.142 HD
ENDBRANCH   2  21
TORSDOF 3
