REMARK  Name = ZINC25062711
REMARK  11 active torsions:
REMARK  status: ('A' for Active; 'I' for Inactive)
REMARK    1  A    between atoms: C_1  and  C_2
REMARK    2  A    between atoms: C_2  and  C_3
REMARK    3  A    between atoms: C_3  and  C_4
REMARK    4  A    between atoms: C_4  and  C_5
REMARK    5  A    between atoms: C_8  and  C_11
REMARK    6  A    between atoms: C_11  and  C_13
REMARK    7  A    between atoms: C_11  and  N_16
REMARK    8  A    between atoms: C_13  and  C_14
REMARK    9  A    between atoms: C_13  and  C_15
REMARK   10  A    between atoms: C_17  and  C_19
REMARK   11  A    between atoms: C_22  and  C_26
REMARK                            x       y       z     vdW  Elec       q    Type
REMARK                         _______ _______ _______ _____ _____    ______ ____
ROOT
ATOM      1  N   UNL     1       1.217   1.759   0.022  0.00  0.00    -0.304 N 
ATOM      2  C   UNL     1      -0.014   1.212   0.009  0.00  0.00    +0.250 C 
ATOM      3  O   UNL     1      -0.143   0.003  -0.014  0.00  0.00    -0.270 OA
ATOM      4  H   UNL     1       1.335   2.850  -0.047  0.00  0.00    +0.150 HD
ENDROOT
BRANCH   2   5
ATOM      5  C   UNL     1      -1.203   2.078   0.016  0.00  0.00    +0.103 A 
ATOM      6  C   UNL     1      -2.480   1.528   0.107  0.00  0.00    +0.020 A 
ATOM      7  C   UNL     1      -3.584   2.381   0.111  0.00  0.00    +0.033 A 
ATOM      8  C   UNL     1      -3.408   3.724   0.026  0.00  0.00    +0.148 A 
ATOM      9  N   UNL     1      -2.170   4.266  -0.063  0.00  0.00    -0.204 NA
ATOM     10  C   UNL     1      -1.070   3.488  -0.065  0.00  0.00    +0.283 A 
ATOM     11  O   UNL     1       0.036   3.994  -0.140  0.00  0.00    -0.265 OA
BRANCH   8  12
ATOM     12  C   UNL     1      -4.612   4.630   0.032  0.00  0.00    +0.434 C 
ATOM     13  F   UNL     1      -5.775   3.859   0.131  0.00  0.00    -0.164 F 
ATOM     14  F   UNL     1      -4.536   5.500   1.125  0.00  0.00    -0.164 F 
ATOM     15  F   UNL     1      -4.644   5.371  -1.154  0.00  0.00    -0.164 F 
ENDBRANCH   8  12
ENDBRANCH   2   5
BRANCH   1  16
ATOM     16  C   UNL     1       2.399   0.900   0.127  0.00  0.00    +0.106 C 
BRANCH  16  20
ATOM     17  C   UNL     1       5.768   2.896  -1.579  0.00  0.00    -0.047 A 
ATOM     18  C   UNL     1       5.588   1.542  -1.789  0.00  0.00    +0.004 A 
ATOM     19  C   UNL     1       4.498   0.896  -1.236  0.00  0.00    +0.006 A 
ATOM     20  C   UNL     1       3.588   1.604  -0.474  0.00  0.00    -0.027 A 
ATOM     21  C   UNL     1       3.765   2.959  -0.269  0.00  0.00    +0.006 A 
ATOM     22  C   UNL     1       4.858   3.605  -0.817  0.00  0.00    +0.004 A 
BRANCH  17  23
ATOM     23  C   UNL     1       6.956   3.601  -2.182  0.00  0.00    +0.035 C 
BRANCH  23  24
ATOM     24  C   UNL     1       6.588   4.125  -3.571  0.00  0.00    +0.004 C 
BRANCH  24  26
ATOM     25  C   UNL     1       7.426   5.364  -5.572  0.00  0.00    +0.004 C 
ATOM     26  C   UNL     1       7.794   4.840  -4.183  0.00  0.00    -0.003 C 
ENDBRANCH  24  26
ENDBRANCH  23  24
ENDBRANCH  17  23
ENDBRANCH  16  20
BRANCH  16  27
ATOM     27  C   UNL     1       2.679   0.596   1.600  0.00  0.00    +0.008 C 
ATOM     28  C   UNL     1       1.472  -0.120   2.211  0.00  0.00    +0.009 C 
ATOM     29  C   UNL     1       3.913  -0.302   1.711  0.00  0.00    +0.009 C 
ENDBRANCH  16  27
ENDBRANCH   1  16
TORSDOF 8
