REMARK  Name = ZINC67022183
REMARK  3 active torsions:
REMARK  status: ('A' for Active; 'I' for Inactive)
REMARK    1  A    between atoms: C_3  and  C_12
REMARK    2  A    between atoms: C_12  and  O_14
REMARK    3  A    between atoms: O_14  and  C_15
REMARK                            x       y       z     vdW  Elec       q    Type
REMARK                         _______ _______ _______ _____ _____    ______ ____
ROOT
ATOM      1  C   UNL     1      -0.004   1.360   0.006  0.00  0.00    +0.003 A 
ATOM      2  C   UNL     1       1.170   2.081   0.001  0.00  0.00    +0.019 A 
ATOM      3  C   UNL     1       2.399   1.419  -0.104  0.00  0.00    +0.103 A 
ATOM      4  C   UNL     1       2.424   0.024  -0.204  0.00  0.00    +0.156 A 
ATOM      5  C   UNL     1       1.228  -0.691  -0.199  0.00  0.00    +0.077 A 
ATOM      6  C   UNL     1       0.020  -0.021  -0.094  0.00  0.00    +0.027 A 
ATOM      7  N   UNL     1       1.265  -2.089  -0.302  0.00  0.00    -0.280 N 
ATOM      8  C   UNL     1       2.435  -2.729  -0.089  0.00  0.00    +0.255 C 
ATOM      9  O   UNL     1       2.498  -3.935  -0.202  0.00  0.00    -0.272 OA
ATOM     10  C   UNL     1       3.661  -1.939   0.292  0.00  0.00    +0.325 C 
ATOM     11  O   UNL     1       3.601  -0.642  -0.307  0.00  0.00    -0.480 OA
ATOM     12  H   UNL     1       0.463  -2.588  -0.523  0.00  0.00    +0.155 HD
ENDROOT
BRANCH   3  13
ATOM     13  C   UNL     1       3.657   2.187  -0.110  0.00  0.00    +0.348 C 
ATOM     14  O   UNL     1       4.721   1.608  -0.202  0.00  0.00    -0.244 OA
BRANCH  13  15
ATOM     15  O   UNL     1       3.627   3.531  -0.014  0.00  0.00    -0.419 OA
BRANCH  15  16
ATOM     16  C   UNL     1       4.812   4.190   0.083  0.00  0.00    +0.170 A 
ATOM     17  C   UNL     1       5.324   4.520   1.329  0.00  0.00    +0.049 A 
ATOM     18  C   UNL     1       6.528   5.190   1.427  0.00  0.00    +0.007 A 
ATOM     19  C   UNL     1       7.225   5.534   0.283  0.00  0.00    +0.041 A 
ATOM     20  C   UNL     1       6.718   5.208  -0.963  0.00  0.00    +0.162 A 
ATOM     21  C   UNL     1       5.514   4.530  -1.066  0.00  0.00    +0.200 A 
ATOM     22  F   UNL     1       5.021   4.206  -2.281  0.00  0.00    -0.199 F 
ATOM     23  F   UNL     1       7.400   5.547  -2.079  0.00  0.00    -0.202 F 
ENDBRANCH  15  16
ENDBRANCH  13  15
ENDBRANCH   3  13
TORSDOF 3
