REMARK  Name = ZINC02668470
REMARK  9 active torsions:
REMARK  status: ('A' for Active; 'I' for Inactive)
REMARK    1  A    between atoms: C_1  and  C_2
REMARK    2  A    between atoms: C_3  and  C_26
REMARK    3  A    between atoms: C_4  and  C_21
REMARK    4  A    between atoms: C_10  and  C_11
REMARK    5  A    between atoms: C_26  and  O_28
REMARK    6  A    between atoms: O_28  and  C_29
REMARK    7  A    between atoms: C_29  and  C_30
REMARK    8  A    between atoms: C_30  and  C_31
REMARK    9  A    between atoms: C_30  and  C_32
REMARK                            x       y       z     vdW  Elec       q    Type
REMARK                         _______ _______ _______ _____ _____    ______ ____
ROOT
ATOM      1  C   UNL     1      -7.053   8.583  -0.441  0.00  0.00    +0.066 C 
ATOM      2  C   UNL     1      -5.560   8.391  -0.375  0.00  0.00    +0.053 C 
ATOM      3  C   UNL     1      -4.734   9.479  -0.422  0.00  0.00    +0.085 C 
ATOM      4  C   UNL     1      -3.243   9.244  -0.353  0.00  0.00    +0.168 C 
ATOM      5  N   UNL     1      -2.782   7.831  -0.239  0.00  0.00    -0.274 N 
ATOM      6  C   UNL     1      -1.508   7.424  -0.159  0.00  0.00    +0.268 A 
ATOM      7  O   UNL     1      -0.592   8.224  -0.176  0.00  0.00    -0.266 OA
ATOM      8  C   UNL     1      -1.252   5.979  -0.056  0.00  0.00    +0.081 A 
ATOM      9  C   UNL     1      -0.071   5.316   0.032  0.00  0.00    +0.028 C 
ATOM     10  S   UNL     1      -2.917   5.333  -0.069  0.00  0.00    -0.046 S 
ATOM     11  C   UNL     1      -3.781   6.886  -0.208  0.00  0.00    +0.178 A 
ATOM     12  N   UNL     1      -5.058   7.167  -0.272  0.00  0.00    -0.228 NA
ENDROOT
BRANCH   9  13
ATOM     13  C   UNL     1      -0.045   3.848  -0.037  0.00  0.00    -0.023 A 
ATOM     14  C   UNL     1       1.140   3.152   0.229  0.00  0.00    +0.008 A 
ATOM     15  C   UNL     1       1.155   1.775   0.168  0.00  0.00    +0.002 A 
ATOM     16  C   UNL     1       0.006   1.081  -0.168  0.00  0.00    +0.015 A 
ATOM     17  C   UNL     1      -1.171   1.761  -0.432  0.00  0.00    +0.018 A 
ATOM     18  C   UNL     1      -1.204   3.139  -0.369  0.00  0.00    +0.023 A 
ATOM     19 BR   UNL     1      -2.736   0.799  -0.881  0.00  0.00    -0.050 Br
ENDBRANCH   9  13
BRANCH   4  20
ATOM     20  C   UNL     1      -2.708  10.004   0.833  0.00  0.00    +0.017 A 
ATOM     21  C   UNL     1      -2.072  11.200   0.864  0.00  0.00    +0.013 A 
ATOM     22  C   UNL     1      -1.668  11.713   2.083  0.00  0.00    +0.008 A 
ATOM     23  C   UNL     1      -1.910  10.999   3.209  0.00  0.00    +0.045 A 
ATOM     24  S   UNL     1      -2.739   9.557   2.561  0.00  0.00    -0.099 S 
ENDBRANCH   4  20
BRANCH   3  25
ATOM     25  C   UNL     1      -5.256  10.778  -0.531  0.00  0.00    +0.339 C 
ATOM     26  O   UNL     1      -6.461  10.948  -0.586  0.00  0.00    -0.245 OA
BRANCH  25  27
ATOM     27  O   UNL     1      -4.422  11.840  -0.576  0.00  0.00    -0.461 OA
BRANCH  27  28
ATOM     28  C   UNL     1      -5.022  13.132  -0.688  0.00  0.00    +0.235 C 
BRANCH  28  29
ATOM     29  C   UNL     1      -3.928  14.201  -0.724  0.00  0.00    +0.020 C 
ATOM     30  C   UNL     1      -4.562  15.572  -0.968  0.00  0.00    +0.010 C 
ATOM     31  C   UNL     1      -3.183  14.214   0.613  0.00  0.00    +0.010 C 
ENDBRANCH  28  29
ENDBRANCH  27  28
ENDBRANCH  25  27
ENDBRANCH   3  25
TORSDOF 6
