REMARK  Name = ZINC39639379
REMARK  9 active torsions:
REMARK  status: ('A' for Active; 'I' for Inactive)
REMARK    1  A    between atoms: C_1  and  C_2
REMARK    2  A    between atoms: C_2  and  N_3
REMARK    3  A    between atoms: C_4  and  C_10
REMARK    4  A    between atoms: C_6  and  C_8
REMARK    5  A    between atoms: C_14  and  C_23
REMARK    6  A    between atoms: N_25  and  C_26
REMARK    7  A    between atoms: C_26  and  C_28
REMARK    8  A    between atoms: C_26  and  C_29
REMARK    9  A    between atoms: C_32  and  C_35
REMARK                            x       y       z     vdW  Elec       q    Type
REMARK                         _______ _______ _______ _____ _____    ______ ____
ROOT
ATOM      1  C   UNL     1      -1.434  -0.452  -2.906  0.00  0.00    +0.266 C 
ATOM      2  O   UNL     1      -1.784  -0.777  -4.025  0.00  0.00    -0.268 OA
ATOM      3  N   UNL     1      -2.323   0.094  -2.054  0.00  0.00    -0.295 N 
ATOM      4  C   UNL     1      -2.115   0.455  -0.632  0.00  0.00    +0.121 C 
ATOM      5  C   UNL     1      -2.872   1.790  -0.453  0.00  0.00    +0.100 C 
ATOM      6  C   UNL     1      -3.932   1.792  -1.567  0.00  0.00    -0.004 C 
ATOM      7  C   UNL     1      -3.730   0.474  -2.328  0.00  0.00    +0.115 C 
ATOM      8  C   UNL     1      -3.712   2.975  -2.505  0.00  0.00    -0.010 C 
ATOM      9  C   UNL     1      -4.812   2.988  -3.570  0.00  0.00    -0.082 C 
ATOM     10  N   UNL     1      -6.124   3.091  -2.919  0.00  0.00    +0.379 N 
ATOM     11  C   UNL     1      -6.367   1.904  -2.091  0.00  0.00    -0.082 C 
ATOM     12  C   UNL     1      -5.332   1.845  -0.963  0.00  0.00    -0.010 C 
ATOM     13  H   UNL     1      -6.146   3.916  -2.337  0.00  0.00    -0.086 HD
ATOM     14  H   UNL     1      -6.843   3.161  -3.624  0.00  0.00    -0.086 HD
ENDROOT
BRANCH   1  16
ATOM     15  N   UNL     1       0.956   0.281  -2.463  0.00  0.00    -0.258 N 
ATOM     16  C   UNL     1      -0.040  -0.655  -2.484  0.00  0.00    +0.138 A 
ATOM     17  C   UNL     1       0.528  -1.833  -2.028  0.00  0.00    +0.071 A 
ATOM     18  C   UNL     1       1.862  -1.520  -1.755  0.00  0.00    +0.075 A 
ATOM     19  N   UNL     1       2.044  -0.256  -2.040  0.00  0.00    -0.175 NA
ATOM     20  C   UNL     1       2.908  -2.470  -1.231  0.00  0.00    +0.069 C 
ATOM     21 BR   UNL     1      -0.322  -3.510  -1.818  0.00  0.00    -0.046 Br
BRANCH  15  23
ATOM     22  C   UNL     1       0.997   1.798  -4.381  0.00  0.00    +0.029 C 
ATOM     23  C   UNL     1       0.807   1.681  -2.867  0.00  0.00    +0.141 C 
ENDBRANCH  15  23
ENDBRANCH   1  16
BRANCH   5  24
ATOM     24  C   UNL     1      -3.530   1.843   0.901  0.00  0.00    +0.219 C 
ATOM     25  O   UNL     1      -3.837   0.816   1.467  0.00  0.00    -0.275 OA
ATOM     26  N   UNL     1      -3.776   3.033   1.485  0.00  0.00    -0.308 N 
ATOM     27  H   UNL     1      -3.601   3.856   1.002  0.00  0.00    +0.149 HD
BRANCH  26  28
ATOM     28  C   UNL     1      -4.310   3.084   2.848  0.00  0.00    +0.100 C 
ATOM     29  C   UNL     1      -3.158   2.998   3.850  0.00  0.00    +0.033 C 
BRANCH  28  30
ATOM     30  C   UNL     1      -5.054   4.379   3.048  0.00  0.00    -0.027 A 
ATOM     31  C   UNL     1      -4.555   5.553   2.515  0.00  0.00    +0.006 A 
ATOM     32  C   UNL     1      -5.237   6.741   2.699  0.00  0.00    +0.004 A 
ATOM     33  C   UNL     1      -6.419   6.755   3.416  0.00  0.00    -0.050 A 
ATOM     34  C   UNL     1      -6.918   5.582   3.948  0.00  0.00    +0.004 A 
ATOM     35  C   UNL     1      -6.239   4.393   3.761  0.00  0.00    +0.006 A 
ATOM     36  C   UNL     1      -7.162   8.051   3.617  0.00  0.00    +0.044 C 
ENDBRANCH  28  30
ENDBRANCH  26  28
ENDBRANCH   5  24
TORSDOF 5
