REMARK  Name = ZINC08796663
REMARK  13 active torsions:
REMARK  status: ('A' for Active; 'I' for Inactive)
REMARK    1  A    between atoms: C_1  and  C_2
REMARK    2  A    between atoms: C_4  and  C_37
REMARK    3  A    between atoms: C_6  and  O_8
REMARK    4  A    between atoms: O_8  and  C_9
REMARK    5  A    between atoms: C_9  and  C_10
REMARK    6  A    between atoms: C_14  and  O_35
REMARK    7  A    between atoms: C_15  and  O_33
REMARK    8  A    between atoms: N_20  and  C_21
REMARK    9  A    between atoms: C_21  and  N_23
REMARK   10  A    between atoms: N_23  and  C_24
REMARK   11  A    between atoms: C_27  and  N_30
REMARK   12  A    between atoms: O_33  and  C_34
REMARK   13  A    between atoms: O_35  and  C_36
REMARK                            x       y       z     vdW  Elec       q    Type
REMARK                         _______ _______ _______ _____ _____    ______ ____
ROOT
ATOM      1  C   UNL     1      -5.790   0.156   2.335  0.00  0.00    +0.143 C 
ATOM      2  C   UNL     1      -4.339   0.469   2.602  0.00  0.00    -0.017 A 
ATOM      3  C   UNL     1      -4.040   1.257   3.706  0.00  0.00    +0.055 A 
ATOM      4  C   UNL     1      -2.729   1.570   4.012  0.00  0.00    +0.162 A 
ATOM      5  C   UNL     1      -1.702   1.087   3.206  0.00  0.00    +0.162 A 
ATOM      6  C   UNL     1      -2.004   0.308   2.105  0.00  0.00    +0.053 A 
ATOM      7  C   UNL     1      -3.324  -0.004   1.800  0.00  0.00    -0.037 A 
ATOM      8  C   UNL     1      -3.575  -0.848   0.578  0.00  0.00    +0.054 C 
ATOM      9  C   UNL     1      -4.958  -1.495   0.637  0.00  0.00    +0.112 C 
ATOM     10  N   UNL     1      -5.929  -0.452   1.008  0.00  0.00    -0.302 N 
ENDROOT
BRANCH  10  11
ATOM     11  C   UNL     1      -6.906  -0.072   0.161  0.00  0.00    +0.138 C 
ATOM     12  S   UNL     1      -8.031   1.128   0.635  0.00  0.00    -0.018 S 
BRANCH  11  13
ATOM     13  N   UNL     1      -6.997  -0.636  -1.060  0.00  0.00    -0.297 N 
ATOM     14  H   UNL     1      -6.661  -0.164  -1.838  0.00  0.00    +0.154 HD
BRANCH  13  15
ATOM     15  C   UNL     1      -7.576  -1.901  -1.204  0.00  0.00    +0.033 A 
ATOM     16  C   UNL     1      -7.960  -2.623  -0.082  0.00  0.00    +0.025 A 
ATOM     17  C   UNL     1      -8.537  -3.869  -0.228  0.00  0.00    +0.034 A 
ATOM     18  C   UNL     1      -8.722  -4.403  -1.490  0.00  0.00    +0.126 A 
ATOM     19  C   UNL     1      -8.336  -3.689  -2.610  0.00  0.00    +0.034 A 
ATOM     20  C   UNL     1      -7.764  -2.440  -2.471  0.00  0.00    +0.025 A 
BRANCH  18  21
ATOM     21  N   UNL     1      -9.335  -5.742  -1.643  0.00  0.00    +0.056 N 
ATOM     22  O   UNL     1      -9.499  -6.213  -2.754  0.00  0.00    -0.126 OA
ATOM     23  O   UNL     1      -9.676  -6.372  -0.658  0.00  0.00    -0.126 OA
ENDBRANCH  18  21
ENDBRANCH  13  15
ENDBRANCH  11  13
ENDBRANCH  10  11
BRANCH   5  24
ATOM     24  O   UNL     1      -0.407   1.384   3.498  0.00  0.00    -0.491 OA
ATOM     25  C   UNL     1       0.593   0.854   2.626  0.00  0.00    +0.277 C 
ENDBRANCH   5  24
BRANCH   4  26
ATOM     26  O   UNL     1      -2.445   2.344   5.093  0.00  0.00    -0.491 OA
ATOM     27  C   UNL     1      -3.551   2.803   5.872  0.00  0.00    +0.277 C 
ENDBRANCH   4  26
BRANCH   1  28
ATOM     28  C   UNL     1      -6.608   1.448   2.391  0.00  0.00    +0.256 C 
BRANCH  28  29
ATOM     29  O   UNL     1      -7.961   1.141   2.730  0.00  0.00    -0.490 OA
BRANCH  29  35
ATOM     30  C   UNL     1      -8.644   5.966   3.002  0.00  0.00    +0.044 C 
ATOM     31  C   UNL     1      -9.162   4.555   3.106  0.00  0.00    -0.047 A 
ATOM     32  C   UNL     1     -10.484   4.327   3.438  0.00  0.00    +0.007 A 
ATOM     33  C   UNL     1     -10.963   3.033   3.534  0.00  0.00    -0.047 A 
ATOM     34  C   UNL     1     -10.120   1.965   3.298  0.00  0.00    +0.049 A 
ATOM     35  C   UNL     1      -8.793   2.191   2.963  0.00  0.00    +0.121 A 
ATOM     36  C   UNL     1      -8.314   3.489   2.873  0.00  0.00    +0.049 A 
ATOM     37  C   UNL     1     -12.405   2.789   3.898  0.00  0.00    +0.044 C 
ENDBRANCH  29  35
ENDBRANCH  28  29
ENDBRANCH   1  28
TORSDOF 9
