REMARK  Name = ZINC39664363
REMARK  7 active torsions:
REMARK  status: ('A' for Active; 'I' for Inactive)
REMARK    1  A    between atoms: C_1  and  C_2
REMARK    2  A    between atoms: C_6  and  C_9
REMARK    3  A    between atoms: C_13  and  C_22
REMARK    4  A    between atoms: N_24  and  C_25
REMARK    5  A    between atoms: C_25  and  C_26
REMARK    6  A    between atoms: C_26  and  C_28
REMARK    7  A    between atoms: C_26  and  N_34
REMARK                            x       y       z     vdW  Elec       q    Type
REMARK                         _______ _______ _______ _____ _____    ______ ____
ROOT
ATOM      1  C   UNL     1       0.304  -4.191   4.165  0.00  0.00    +0.252 C 
ATOM      2  O   UNL     1       1.207  -4.790   4.716  0.00  0.00    -0.270 OA
ATOM      3  N   UNL     1      -0.978  -4.473   4.472  0.00  0.00    -0.296 N 
ATOM      4  C   UNL     1      -2.203  -3.860   3.908  0.00  0.00    +0.121 C 
ATOM      5  C   UNL     1      -3.193  -5.036   3.754  0.00  0.00    +0.100 C 
ATOM      6  C   UNL     1      -2.715  -6.087   4.770  0.00  0.00    -0.004 C 
ATOM      7  C   UNL     1      -1.480  -5.472   5.446  0.00  0.00    +0.115 C 
ATOM      8  C   UNL     1      -3.804  -6.357   5.803  0.00  0.00    -0.010 C 
ATOM      9  C   UNL     1      -3.327  -7.447   6.768  0.00  0.00    -0.082 C 
ATOM     10  N   UNL     1      -3.024  -8.670   6.015  0.00  0.00    +0.379 N 
ATOM     11  C   UNL     1      -1.913  -8.425   5.088  0.00  0.00    -0.082 C 
ATOM     12  C   UNL     1      -2.329  -7.377   4.053  0.00  0.00    -0.010 C 
ATOM     13  H   UNL     1      -2.769  -9.404   6.658  0.00  0.00    -0.086 HD
ATOM     14  H   UNL     1      -3.840  -8.953   5.493  0.00  0.00    -0.086 HD
ENDROOT
BRANCH   1  20
ATOM     15  C   UNL     1       1.253   0.577   3.028  0.00  0.00    +0.047 C 
ATOM     16  C   UNL     1       1.069  -0.858   2.607  0.00  0.00    -0.014 A 
ATOM     17  C   UNL     1       1.188  -1.206   1.274  0.00  0.00    +0.009 A 
ATOM     18  C   UNL     1       1.022  -2.520   0.876  0.00  0.00    +0.039 A 
ATOM     19  C   UNL     1       0.734  -3.498   1.811  0.00  0.00    +0.138 A 
ATOM     20  C   UNL     1       0.611  -3.154   3.161  0.00  0.00    +0.107 A 
ATOM     21  C   UNL     1       0.788  -1.823   3.555  0.00  0.00    +0.141 A 
ATOM     22  F   UNL     1       0.677  -1.482   4.858  0.00  0.00    -0.204 F 
ATOM     23  F   UNL     1       0.570  -4.781   1.420  0.00  0.00    -0.205 F 
ENDBRANCH   1  20
BRANCH   5  24
ATOM     24  C   UNL     1      -4.595  -4.587   4.080  0.00  0.00    +0.218 C 
ATOM     25  O   UNL     1      -4.777  -3.721   4.908  0.00  0.00    -0.275 OA
ATOM     26  N   UNL     1      -5.645  -5.149   3.450  0.00  0.00    -0.313 N 
ATOM     27  H   UNL     1      -5.499  -5.842   2.787  0.00  0.00    +0.149 HD
BRANCH  26  28
ATOM     28  C   UNL     1      -7.008  -4.714   3.766  0.00  0.00    +0.127 C 
BRANCH  28  29
ATOM     29  C   UNL     1      -8.006  -5.504   2.918  0.00  0.00    +0.104 C 
BRANCH  29  30
ATOM     30  C   UNL     1      -9.396  -4.973   3.153  0.00  0.00    -0.029 A 
ATOM     31  C   UNL     1     -10.431  -5.844   3.436  0.00  0.00    +0.005 A 
ATOM     32  C   UNL     1     -11.707  -5.357   3.651  0.00  0.00    +0.000 A 
ATOM     33  C   UNL     1     -11.947  -3.997   3.584  0.00  0.00    +0.000 A 
ATOM     34  C   UNL     1     -10.912  -3.125   3.302  0.00  0.00    +0.000 A 
ATOM     35  C   UNL     1      -9.636  -3.613   3.091  0.00  0.00    +0.005 A 
ENDBRANCH  29  30
BRANCH  29  36
ATOM     36  N   UNL     1      -7.661  -5.363   1.497  0.00  0.00    -0.290 NA
ATOM     37  C   UNL     1      -7.764  -3.961   1.067  0.00  0.00    +0.113 C 
ATOM     38  C   UNL     1      -7.340  -3.851  -0.400  0.00  0.00    +0.175 C 
ATOM     39  O   UNL     1      -8.151  -4.722  -1.193  0.00  0.00    -0.377 OA
ATOM     40  C   UNL     1      -8.074  -6.095  -0.801  0.00  0.00    +0.175 C 
ATOM     41  C   UNL     1      -8.506  -6.228   0.661  0.00  0.00    +0.113 C 
ENDBRANCH  29  36
ENDBRANCH  28  29
ENDBRANCH  26  28
ENDBRANCH   5  24
TORSDOF 6
