REMARK  Name = ZINC40734880
REMARK  8 active torsions:
REMARK  status: ('A' for Active; 'I' for Inactive)
REMARK    1  A    between atoms: C_1  and  C_2
REMARK    2  A    between atoms: C_7  and  C_9
REMARK    3  A    between atoms: C_7  and  C_10
REMARK    4  A    between atoms: C_14  and  N_33
REMARK    5  A    between atoms: C_15  and  N_19
REMARK    6  A    between atoms: N_19  and  N_20
REMARK    7  A    between atoms: N_20  and  C_21
REMARK    8  A    between atoms: N_20  and  C_27
REMARK                            x       y       z     vdW  Elec       q    Type
REMARK                         _______ _______ _______ _____ _____    ______ ____
ROOT
ATOM      1  C   UNL     1      -1.083   1.366   2.994  0.00  0.00    +0.013 C 
ATOM      2  C   UNL     1      -1.060  -0.109   2.563  0.00  0.00    -0.014 C 
ATOM      3  C   UNL     1       0.134  -0.430   1.622  0.00  0.00    +0.030 C 
ATOM      4  C   UNL     1      -0.379  -1.753   0.998  0.00  0.00    +0.076 C 
ATOM      5  C   UNL     1      -0.210  -2.845   2.051  0.00  0.00    +0.029 C 
ATOM      6  C   UNL     1      -0.886  -2.536   3.374  0.00  0.00    -0.033 C 
ATOM      7  C   UNL     1      -0.974  -1.068   3.748  0.00  0.00    +0.014 C 
ATOM      8  C   UNL     1      -0.064  -3.241   4.482  0.00  0.00    +0.011 C 
ATOM      9  C   UNL     1      -2.284  -3.171   3.403  0.00  0.00    +0.011 C 
ATOM     10  N   UNL     1      -1.818  -1.528   0.761  0.00  0.00    -0.310 N 
ATOM     11  C   UNL     1      -2.278  -0.484   1.690  0.00  0.00    +0.113 C 
ATOM     12  C   UNL     1      -2.603  -2.180  -0.183  0.00  0.00    +0.147 A 
ATOM     13  C   UNL     1      -3.982  -1.966  -0.229  0.00  0.00    +0.105 A 
ATOM     14  C   UNL     1      -4.723  -2.646  -1.196  0.00  0.00    +0.139 A 
ATOM     15  N   UNL     1      -4.091  -3.467  -2.033  0.00  0.00    -0.332 N 
ATOM     16  C   UNL     1      -2.788  -3.641  -1.955  0.00  0.00    +0.200 A 
ATOM     17  N   UNL     1      -2.051  -3.014  -1.060  0.00  0.00    -0.221 NA
ATOM     18  H   UNL     1      -4.598  -3.944  -2.708  0.00  0.00    +0.168 HD
ENDROOT
BRANCH  13  19
ATOM     19  N   UNL     1      -4.606  -1.089   0.674  0.00  0.00    -0.353 N 
ATOM     20  H   UNL     1      -4.145  -0.289   0.970  0.00  0.00    +0.143 HD
ATOM     21  H   UNL     1      -5.498  -1.285   1.002  0.00  0.00    +0.143 HD
ENDBRANCH  13  19
BRANCH  14  22
ATOM     22  N   UNL     1      -6.098  -2.469  -1.286  0.00  0.00    -0.243 N 
ATOM     23  H   UNL     1      -6.551  -1.869  -0.672  0.00  0.00    +0.172 HD
BRANCH  22  24
ATOM     24  N   UNL     1      -6.832  -3.157  -2.261  0.00  0.00    -0.221 N 
BRANCH  24  25
ATOM     25  C   UNL     1      -7.096  -4.520  -2.104  0.00  0.00    +0.053 A 
ATOM     26  C   UNL     1      -7.459  -5.019  -0.860  0.00  0.00    +0.025 A 
ATOM     27  C   UNL     1      -7.720  -6.367  -0.708  0.00  0.00    +0.002 A 
ATOM     28  C   UNL     1      -7.620  -7.219  -1.793  0.00  0.00    +0.000 A 
ATOM     29  C   UNL     1      -7.258  -6.725  -3.033  0.00  0.00    +0.002 A 
ATOM     30  C   UNL     1      -7.002  -5.377  -3.193  0.00  0.00    +0.025 A 
ENDBRANCH  24  25
BRANCH  24  31
ATOM     31  C   UNL     1      -7.298  -2.480  -3.391  0.00  0.00    +0.053 A 
ATOM     32  C   UNL     1      -8.611  -2.651  -3.812  0.00  0.00    +0.025 A 
ATOM     33  C   UNL     1      -9.069  -1.981  -4.929  0.00  0.00    +0.002 A 
ATOM     34  C   UNL     1      -8.222  -1.140  -5.628  0.00  0.00    +0.000 A 
ATOM     35  C   UNL     1      -6.915  -0.968  -5.212  0.00  0.00    +0.002 A 
ATOM     36  C   UNL     1      -6.452  -1.631  -4.093  0.00  0.00    +0.025 A 
ENDBRANCH  24  31
ENDBRANCH  22  24
ENDBRANCH  14  22
TORSDOF 5
