REMARK  Name = ZINC64986054
REMARK  9 active torsions:
REMARK  status: ('A' for Active; 'I' for Inactive)
REMARK    1  A    between atoms: C_1  and  C_2
REMARK    2  A    between atoms: C_5  and  S_8
REMARK    3  A    between atoms: S_8  and  N_11
REMARK    4  A    between atoms: C_13  and  C_23
REMARK    5  A    between atoms: C_20  and  C_22
REMARK    6  A    between atoms: N_25  and  C_26
REMARK    7  A    between atoms: C_31  and  C_32
REMARK    8  A    between atoms: C_32  and  C_33
REMARK    9  A    between atoms: C_32  and  C_34
REMARK                            x       y       z     vdW  Elec       q    Type
REMARK                         _______ _______ _______ _____ _____    ______ ____
ROOT
ATOM      1  N   UNL     1       1.570  -4.905  -0.084  0.00  0.00    -0.195 N 
ATOM      2  C   UNL     1       2.260  -5.230  -1.344  0.00  0.00    +0.186 C 
ATOM      3  C   UNL     1       3.703  -4.718  -1.228  0.00  0.00    +0.278 C 
ATOM      4  O   UNL     1       4.322  -5.338  -0.098  0.00  0.00    -0.476 OA
ATOM      5  C   UNL     1       3.649  -5.318   1.083  0.00  0.00    +0.144 A 
ATOM      6  C   UNL     1       2.275  -5.101   1.115  0.00  0.00    +0.093 A 
ATOM      7  C   UNL     1       1.602  -5.083   2.326  0.00  0.00    +0.029 A 
ATOM      8  C   UNL     1       2.301  -5.274   3.505  0.00  0.00    +0.005 A 
ATOM      9  C   UNL     1       3.667  -5.482   3.474  0.00  0.00    -0.047 A 
ATOM     10  C   UNL     1       4.338  -5.513   2.269  0.00  0.00    +0.051 A 
ATOM     11  C   UNL     1       4.423  -5.688   4.761  0.00  0.00    +0.044 C 
ENDROOT
BRANCH   3  12
ATOM     12  C   UNL     1       4.465  -5.068  -2.480  0.00  0.00    +0.260 C 
ATOM     13  O   UNL     1       5.397  -5.843  -2.426  0.00  0.00    -0.271 OA
ATOM     14  N   UNL     1       4.112  -4.520  -3.659  0.00  0.00    -0.282 N 
ATOM     15  H   UNL     1       3.408  -3.854  -3.693  0.00  0.00    +0.155 HD
BRANCH  14  16
ATOM     16  C   UNL     1       4.760  -4.913  -4.835  0.00  0.00    +0.037 A 
ATOM     17  C   UNL     1       6.079  -5.347  -4.792  0.00  0.00    +0.023 A 
ATOM     18  C   UNL     1       6.716  -5.734  -5.954  0.00  0.00    +0.002 A 
ATOM     19  C   UNL     1       6.043  -5.689  -7.161  0.00  0.00    +0.000 A 
ATOM     20  C   UNL     1       4.730  -5.258  -7.208  0.00  0.00    +0.006 A 
ATOM     21  C   UNL     1       4.085  -4.876  -6.048  0.00  0.00    -0.024 A 
BRANCH  21  22
ATOM     22  C   UNL     1       2.652  -4.412  -6.099  0.00  0.00    +0.015 C 
ATOM     23  C   UNL     1       2.565  -3.112  -6.902  0.00  0.00    +0.012 C 
ATOM     24  C   UNL     1       1.793  -5.485  -6.771  0.00  0.00    +0.012 C 
ENDBRANCH  21  22
ENDBRANCH  14  16
ENDBRANCH   3  12
BRANCH   1  25
ATOM     25  S   UNL     1       0.020  -4.322  -0.081  0.00  0.00    +0.075 S 
ATOM     26  O   UNL     1      -0.230  -3.827  -1.389  0.00  0.00    -0.150 OA
ATOM     27  O   UNL     1      -0.106  -3.510   1.078  0.00  0.00    -0.150 OA
BRANCH  25  32
ATOM     28  C   UNL     1      -3.660  -9.037   0.709  0.00  0.00    +0.044 C 
ATOM     29  C   UNL     1      -2.741  -7.860   0.512  0.00  0.00    -0.050 A 
ATOM     30  C   UNL     1      -2.259  -7.168   1.607  0.00  0.00    +0.005 A 
ATOM     31  C   UNL     1      -1.416  -6.088   1.426  0.00  0.00    +0.029 A 
ATOM     32  C   UNL     1      -1.054  -5.700   0.150  0.00  0.00    +0.109 A 
ATOM     33  C   UNL     1      -1.535  -6.392  -0.946  0.00  0.00    +0.029 A 
ATOM     34  C   UNL     1      -2.375  -7.475  -0.764  0.00  0.00    +0.005 A 
ENDBRANCH  25  32
ENDBRANCH   1  25
TORSDOF 5
