REMARK  Name = ZINC35867185
REMARK  6 active torsions:
REMARK  status: ('A' for Active; 'I' for Inactive)
REMARK    1  A    between atoms: C_1  and  C_2
REMARK    2  A    between atoms: C_2  and  C_3
REMARK    3  A    between atoms: N_24  and  C_25
REMARK    4  A    between atoms: C_25  and  C_26
REMARK    5  A    between atoms: C_25  and  C_27
REMARK    6  A    between atoms: C_25  and  C_28
REMARK                            x       y       z     vdW  Elec       q    Type
REMARK                         _______ _______ _______ _____ _____    ______ ____
ROOT
ATOM      1  C   UNL     1       1.485  -1.953  -1.492  0.00  0.00    +0.132 A 
ATOM      2  N   UNL     1       0.758  -2.115  -2.583  0.00  0.00    -0.217 NA
ATOM      3  C   UNL     1       0.562  -1.136  -3.451  0.00  0.00    +0.133 A 
ATOM      4  C   UNL     1       1.151   0.135  -3.205  0.00  0.00    +0.051 A 
ATOM      5  C   UNL     1       1.074   1.353  -4.015  0.00  0.00    -0.025 A 
ATOM      6  C   UNL     1       1.730   2.436  -3.553  0.00  0.00    -0.004 A 
ATOM      7  S   UNL     1       2.479   1.911  -2.034  0.00  0.00    -0.073 S 
ATOM      8  C   UNL     1       1.910   0.232  -2.022  0.00  0.00    +0.114 A 
ATOM      9  N   UNL     1       2.051  -0.796  -1.208  0.00  0.00    -0.225 NA
ATOM     10  C   UNL     1       1.808   3.790  -4.191  0.00  0.00    +0.043 C 
ATOM     11  C   UNL     1       1.335   3.669  -5.646  0.00  0.00    +0.005 C 
ATOM     12  C   UNL     1       0.024   2.878  -5.672  0.00  0.00    +0.005 C 
ATOM     13  C   UNL     1       0.293   1.413  -5.325  0.00  0.00    +0.037 C 
ATOM     14  N   UNL     1      -0.206  -1.347  -4.582  0.00  0.00    -0.312 N 
ATOM     15  C   UNL     1       0.426  -1.713  -5.857  0.00  0.00    +0.125 C 
ATOM     16  C   UNL     1      -0.208  -3.015  -6.362  0.00  0.00    +0.128 C 
ATOM     17  N   UNL     1      -1.670  -2.877  -6.310  0.00  0.00    -0.283 N 
ATOM     18  C   UNL     1      -2.302  -2.510  -5.035  0.00  0.00    +0.128 C 
ATOM     19  C   UNL     1      -1.669  -1.213  -4.529  0.00  0.00    +0.125 C 
ATOM     20  C   UNL     1      -2.418  -3.081  -7.413  0.00  0.00    +0.303 C 
ATOM     21  O   UNL     1      -1.896  -3.477  -8.437  0.00  0.00    -0.253 OA
ATOM     22  N   UNL     1      -3.745  -2.848  -7.380  0.00  0.00    -0.294 N 
ATOM     23  H   UNL     1      -4.151  -2.463  -6.587  0.00  0.00    +0.151 HD
ENDROOT
BRANCH  22  24
ATOM     24  C   UNL     1      -4.576  -3.176  -8.541  0.00  0.00    +0.028 C 
ATOM     25  C   UNL     1      -4.471  -4.673  -8.836  0.00  0.00    +0.031 C 
ATOM     26  C   UNL     1      -6.033  -2.815  -8.244  0.00  0.00    +0.031 C 
ATOM     27  C   UNL     1      -4.091  -2.381  -9.755  0.00  0.00    +0.031 C 
ENDBRANCH  22  24
BRANCH   1  29
ATOM     28  C   UNL     1       0.545  -3.105   0.493  0.00  0.00    +0.012 C 
ATOM     29  C   UNL     1       1.667  -3.113  -0.547  0.00  0.00    +0.073 C 
ENDBRANCH   1  29
TORSDOF 2
