REMARK  Name = ZINC41586636
REMARK  9 active torsions:
REMARK  status: ('A' for Active; 'I' for Inactive)
REMARK    1  A    between atoms: C_1  and  C_2
REMARK    2  A    between atoms: C_2  and  O_3
REMARK    3  A    between atoms: O_3  and  C_4
REMARK    4  A    between atoms: C_4  and  C_6
REMARK    5  A    between atoms: N_11  and  C_13
REMARK    6  A    between atoms: C_13  and  C_14
REMARK    7  A    between atoms: C_15  and  O_33
REMARK    8  A    between atoms: C_21  and  C_32
REMARK    9  A    between atoms: C_22  and  C_25
REMARK                            x       y       z     vdW  Elec       q    Type
REMARK                         _______ _______ _______ _____ _____    ______ ____
ROOT
ATOM      1  C   UNL     1      -5.406  -6.592   0.218  0.00  0.00    +0.020 A 
ATOM      2  C   UNL     1      -5.948  -6.799   1.476  0.00  0.00    +0.122 A 
ATOM      3  C   UNL     1      -7.221  -7.346   1.620  0.00  0.00    +0.046 A 
ATOM      4  C   UNL     1      -7.955  -7.683   0.517  0.00  0.00    +0.019 A 
ATOM      5  C   UNL     1      -7.423  -7.478  -0.755  0.00  0.00    +0.065 A 
ATOM      6  C   UNL     1      -6.138  -6.927  -0.913  0.00  0.00    +0.144 A 
ATOM      7  O   UNL     1      -5.624  -6.740  -2.144  0.00  0.00    -0.459 OA
ATOM      8  C   UNL     1      -6.389  -6.769  -3.237  0.00  0.00    +0.114 A 
ATOM      9  C   UNL     1      -7.649  -7.280  -3.240  0.00  0.00    +0.067 A 
ATOM     10  C   UNL     1      -8.184  -7.820  -1.972  0.00  0.00    +0.200 A 
ATOM     11  O   UNL     1      -9.199  -8.494  -1.932  0.00  0.00    -0.286 OA
ATOM     12  C   UNL     1      -5.834  -6.211  -4.521  0.00  0.00    +0.087 C 
ENDROOT
BRANCH   9  13
ATOM     13  C   UNL     1      -8.458  -7.307  -4.482  0.00  0.00    -0.011 A 
ATOM     14  C   UNL     1      -8.852  -6.114  -5.085  0.00  0.00    +0.010 A 
ATOM     15  C   UNL     1      -9.604  -6.144  -6.242  0.00  0.00    +0.016 A 
ATOM     16  C   UNL     1      -9.967  -7.356  -6.803  0.00  0.00    +0.018 A 
ATOM     17  C   UNL     1      -9.578  -8.544  -6.208  0.00  0.00    +0.016 A 
ATOM     18  C   UNL     1      -8.821  -8.525  -5.054  0.00  0.00    +0.010 A 
ATOM     19 BR   UNL     1     -10.998  -7.390  -8.388  0.00  0.00    -0.050 Br
ENDBRANCH   9  13
BRANCH   2  20
ATOM     20  O   UNL     1      -5.231  -6.466   2.579  0.00  0.00    -0.506 OA
ATOM     21  H   UNL     1      -5.373  -5.559   2.882  0.00  0.00    +0.292 HD
ENDBRANCH   2  20
BRANCH   1  22
ATOM     22  C   UNL     1      -4.028  -6.000   0.078  0.00  0.00    -0.036 C 
BRANCH  22  27
ATOM     23  C   UNL     1      -2.881  -2.427   0.017  0.00  0.00    +0.081 C 
ATOM     24  C   UNL     1      -3.647  -1.960  -1.225  0.00  0.00    +0.011 C 
ATOM     25  C   UNL     1      -5.023  -2.632  -1.246  0.00  0.00    -0.018 C 
ATOM     26  C   UNL     1      -4.844  -4.151  -1.211  0.00  0.00    -0.078 C 
ATOM     27  N   UNL     1      -4.129  -4.535   0.011  0.00  0.00    +0.383 N 
ATOM     28  C   UNL     1      -2.781  -3.954   0.005  0.00  0.00    -0.064 C 
ATOM     29  H   UNL     1      -4.635  -4.198   0.816  0.00  0.00    -0.081 HD
BRANCH  23  30
ATOM     30  C   UNL     1      -1.496  -1.832   0.006  0.00  0.00    +0.308 C 
ATOM     31  O   UNL     1      -0.528  -2.555  -0.007  0.00  0.00    -0.251 OA
BRANCH  30  32
ATOM     32  O   UNL     1      -1.339  -0.499   0.012  0.00  0.00    -0.465 OA
BRANCH  32  34
ATOM     33  C   UNL     1      -0.019   1.526   0.010  0.00  0.00    +0.048 C 
ATOM     34  C   UNL     1       0.002  -0.004   0.002  0.00  0.00    +0.229 C 
ENDBRANCH  32  34
ENDBRANCH  30  32
ENDBRANCH  23  30
ENDBRANCH  22  27
ENDBRANCH   1  22
TORSDOF 7
