REMARK  Name = ZINC63506304
REMARK  10 active torsions:
REMARK  status: ('A' for Active; 'I' for Inactive)
REMARK    1  A    between atoms: C_1  and  C_2
REMARK    2  A    between atoms: C_4  and  C_20
REMARK    3  A    between atoms: C_7  and  O_12
REMARK    4  A    between atoms: O_12  and  C_13
REMARK    5  A    between atoms: C_13  and  C_14
REMARK    6  A    between atoms: C_20  and  C_21
REMARK    7  A    between atoms: C_21  and  N_22
REMARK    8  A    between atoms: C_23  and  C_25
REMARK    9  A    between atoms: C_25  and  O_26
REMARK   10  A    between atoms: O_26  and  C_27
REMARK                            x       y       z     vdW  Elec       q    Type
REMARK                         _______ _______ _______ _____ _____    ______ ____
ROOT
ATOM      1  C   UNL     1      -0.019   1.526   0.010  0.00  0.00    +0.035 C 
ATOM      2  C   UNL     1       0.002  -0.004   0.002  0.00  0.00    +0.103 C 
ATOM      3  C   UNL     1       0.729  -0.509  -1.224  0.00  0.00    -0.037 C 
ATOM      4  C   UNL     1       1.785  -1.220  -0.768  0.00  0.00    +0.003 A 
ATOM      5  C   UNL     1       2.858  -1.954  -1.447  0.00  0.00    +0.055 A 
ATOM      6  C   UNL     1       3.803  -2.586  -0.711  0.00  0.00    +0.122 A 
ATOM      7  C   UNL     1       3.796  -2.567   0.695  0.00  0.00    +0.048 A 
ATOM      8  C   UNL     1       2.851  -1.919   1.409  0.00  0.00    +0.029 A 
ATOM      9  C   UNL     1       1.779  -1.200   0.713  0.00  0.00    +0.043 A 
ATOM     10  N   UNL     1       0.758  -0.506   1.155  0.00  0.00    -0.378 N 
ATOM     11  H   UNL     1       0.540  -0.349   2.087  0.00  0.00    +0.160 HD
ENDROOT
BRANCH   6  12
ATOM     12  O   UNL     1       4.792  -3.263  -1.353  0.00  0.00    -0.487 OA
BRANCH  12  13
ATOM     13  C   UNL     1       5.767  -3.915  -0.537  0.00  0.00    +0.264 C 
BRANCH  13  14
ATOM     14  C   UNL     1       6.776  -4.607  -1.417  0.00  0.00    -0.010 A 
ATOM     15  C   UNL     1       6.564  -5.914  -1.815  0.00  0.00    +0.007 A 
ATOM     16  C   UNL     1       7.490  -6.549  -2.622  0.00  0.00    +0.000 A 
ATOM     17  C   UNL     1       8.626  -5.877  -3.032  0.00  0.00    +0.000 A 
ATOM     18  C   UNL     1       8.838  -4.570  -2.634  0.00  0.00    +0.000 A 
ATOM     19  C   UNL     1       7.910  -3.934  -1.831  0.00  0.00    +0.007 A 
ENDBRANCH  13  14
ENDBRANCH  12  13
ENDBRANCH   6  12
BRANCH   3  20
ATOM     20  C   UNL     1       0.352  -0.269  -2.664  0.00  0.00    +0.052 C 
BRANCH  20  21
ATOM     21  C   UNL     1       1.363  -0.963  -3.578  0.00  0.00    +0.108 C 
BRANCH  21  22
ATOM     22  N   UNL     1       0.997  -0.729  -4.977  0.00  0.00    -0.312 N 
ATOM     23  C   UNL     1       1.750  -1.249  -5.967  0.00  0.00    +0.251 C 
ATOM     24  O   UNL     1       2.731  -1.910  -5.699  0.00  0.00    -0.272 OA
ATOM     25  H   UNL     1       0.212  -0.201  -5.192  0.00  0.00    +0.149 HD
BRANCH  23  26
ATOM     26  C   UNL     1       1.373  -1.009  -7.406  0.00  0.00    +0.324 C 
BRANCH  26  27
ATOM     27  O   UNL     1       2.318  -1.657  -8.260  0.00  0.00    -0.480 OA
BRANCH  27  28
ATOM     28  C   UNL     1       2.121  -1.538  -9.601  0.00  0.00    +0.156 A 
ATOM     29  C   UNL     1       1.045  -0.808 -10.082  0.00  0.00    +0.051 A 
ATOM     30  C   UNL     1       0.847  -0.688 -11.445  0.00  0.00    +0.042 A 
ATOM     31  C   UNL     1       1.720  -1.296 -12.330  0.00  0.00    +0.126 A 
ATOM     32  C   UNL     1       2.796  -2.026 -11.852  0.00  0.00    +0.080 A 
ATOM     33  C   UNL     1       3.001  -2.143 -10.489  0.00  0.00    +0.168 A 
ATOM     34  F   UNL     1       4.053  -2.850 -10.022  0.00  0.00    -0.202 F 
ATOM     35  F   UNL     1       1.524  -1.178 -13.661  0.00  0.00    -0.205 F 
ENDBRANCH  27  28
ENDBRANCH  26  27
ENDBRANCH  23  26
ENDBRANCH  21  22
ENDBRANCH  20  21
ENDBRANCH   3  20
TORSDOF 9
