REMARK  Name = ZINC06015537
REMARK  11 active torsions:
REMARK  status: ('A' for Active; 'I' for Inactive)
REMARK    1  A    between atoms: C_1  and  C_2
REMARK    2  A    between atoms: C_3  and  C_32
REMARK    3  A    between atoms: C_4  and  C_25
REMARK    4  A    between atoms: C_10  and  C_15
REMARK    5  A    between atoms: C_18  and  O_23
REMARK    6  A    between atoms: C_19  and  O_21
REMARK    7  A    between atoms: O_21  and  C_22
REMARK    8  A    between atoms: O_23  and  C_24
REMARK    9  A    between atoms: C_29  and  O_31
REMARK   10  A    between atoms: C_32  and  O_34
REMARK   11  A    between atoms: O_34  and  C_35
REMARK                            x       y       z     vdW  Elec       q    Type
REMARK                         _______ _______ _______ _____ _____    ______ ____
ROOT
ATOM      1  C   UNL     1      -2.753   6.471  -2.458  0.00  0.00    +0.061 C 
ATOM      2  C   UNL     1      -2.062   6.146  -1.159  0.00  0.00    +0.031 C 
ATOM      3  C   UNL     1      -0.809   5.659  -1.173  0.00  0.00    +0.154 C 
ATOM      4  C   UNL     1      -0.091   5.321   0.099  0.00  0.00    +0.073 C 
ATOM      5  C   UNL     1      -0.752   5.974   1.286  0.00  0.00    +0.025 C 
ATOM      6  C   UNL     1      -2.011   6.452   1.198  0.00  0.00    +0.049 C 
ATOM      7  N   UNL     1      -2.713   6.348   0.026  0.00  0.00    -0.260 NA
ATOM      8  C   UNL     1      -2.678   7.112   2.379  0.00  0.00    +0.064 C 
ATOM      9  C   UNL     1      -2.144   6.502   3.677  0.00  0.00    +0.032 C 
ATOM     10  C   UNL     1      -0.624   6.694   3.715  0.00  0.00    +0.088 C 
ATOM     11  C   UNL     1      -0.022   6.071   2.485  0.00  0.00    +0.162 C 
ATOM     12  O   UNL     1       1.114   5.643   2.527  0.00  0.00    -0.292 OA
ENDROOT
BRANCH   9  13
ATOM     13  C   UNL     1      -2.771   7.197   4.859  0.00  0.00    -0.040 A 
ATOM     14  C   UNL     1      -2.589   8.556   5.036  0.00  0.00    +0.008 A 
ATOM     15  C   UNL     1      -3.167   9.198   6.115  0.00  0.00    +0.049 A 
ATOM     16  C   UNL     1      -3.921   8.478   7.028  0.00  0.00    +0.161 A 
ATOM     17  C   UNL     1      -4.099   7.109   6.853  0.00  0.00    +0.162 A 
ATOM     18  C   UNL     1      -3.522   6.472   5.766  0.00  0.00    +0.053 A 
BRANCH  17  19
ATOM     19  O   UNL     1      -4.838   6.399   7.745  0.00  0.00    -0.491 OA
ATOM     20  C   UNL     1      -4.979   4.997   7.502  0.00  0.00    +0.277 C 
ENDBRANCH  17  19
BRANCH  16  21
ATOM     21  O   UNL     1      -4.485   9.108   8.093  0.00  0.00    -0.491 OA
ATOM     22  C   UNL     1      -4.260  10.514   8.209  0.00  0.00    +0.277 C 
ENDBRANCH  16  21
ENDBRANCH   9  13
BRANCH   4  23
ATOM     23  C   UNL     1      -0.107   3.825   0.284  0.00  0.00    -0.035 A 
ATOM     24  C   UNL     1      -1.312   3.154   0.380  0.00  0.00    +0.004 A 
ATOM     25  C   UNL     1      -1.331   1.781   0.546  0.00  0.00    +0.004 A 
ATOM     26  C   UNL     1      -0.144   1.078   0.627  0.00  0.00    +0.045 A 
ATOM     27  C   UNL     1       1.066   1.749   0.531  0.00  0.00    +0.117 A 
ATOM     28  C   UNL     1       1.082   3.126   0.360  0.00  0.00    +0.049 A 
BRANCH  27  29
ATOM     29  O   UNL     1       2.235   1.059   0.605  0.00  0.00    -0.507 OA
ATOM     30  H   UNL     1       2.564   0.751  -0.251  0.00  0.00    +0.292 HD
ENDBRANCH  27  29
ENDBRANCH   4  23
BRANCH   3  31
ATOM     31  C   UNL     1      -0.153   5.466  -2.412  0.00  0.00    +0.317 C 
ATOM     32  O   UNL     1       0.727   6.231  -2.760  0.00  0.00    -0.250 OA
BRANCH  31  33
ATOM     33  O   UNL     1      -0.505   4.434  -3.207  0.00  0.00    -0.461 OA
BRANCH  33  34
ATOM     34  C   UNL     1       0.199   4.300  -4.444  0.00  0.00    +0.176 C 
ATOM     35  C   UNL     1      -0.564   5.029  -5.568  0.00  0.00    +0.044 C 
ATOM     36  C   UNL     1      -0.369   4.123  -6.809  0.00  0.00    +0.004 C 
ATOM     37  C   UNL     1      -0.452   2.698  -6.208  0.00  0.00    +0.004 C 
ATOM     38  C   UNL     1       0.270   2.817  -4.851  0.00  0.00    +0.044 C 
ENDBRANCH  33  34
ENDBRANCH  31  33
ENDBRANCH   3  31
TORSDOF 8
