REMARK  Name = ZINC10034596
REMARK  9 active torsions:
REMARK  status: ('A' for Active; 'I' for Inactive)
REMARK    1  A    between atoms: C_1  and  C_2
REMARK    2  A    between atoms: C_4  and  C_35
REMARK    3  A    between atoms: C_5  and  N_9
REMARK    4  A    between atoms: C_6  and  C_8
REMARK    5  A    between atoms: C_10  and  C_12
REMARK    6  A    between atoms: C_12  and  C_14
REMARK    7  A    between atoms: C_12  and  S_15
REMARK    8  A    between atoms: S_15  and  C_16
REMARK    9  A    between atoms: N_26  and  C_27
REMARK                            x       y       z     vdW  Elec       q    Type
REMARK                         _______ _______ _______ _____ _____    ______ ____
ROOT
ATOM      1  C   UNL     1       4.221   3.233   1.592  0.00  0.00    +0.177 A 
ATOM      2  N   UNL     1       4.657   4.459   1.439  0.00  0.00    -0.223 NA
ATOM      3  C   UNL     1       5.076   4.915   0.242  0.00  0.00    +0.079 A 
ATOM      4  C   UNL     1       5.541   6.224   0.079  0.00  0.00    +0.028 A 
ATOM      5  C   UNL     1       5.955   6.646  -1.153  0.00  0.00    +0.002 A 
ATOM      6  C   UNL     1       5.923   5.793  -2.249  0.00  0.00    +0.001 A 
ATOM      7  C   UNL     1       5.473   4.508  -2.122  0.00  0.00    +0.015 A 
ATOM      8  C   UNL     1       5.043   4.051  -0.876  0.00  0.00    +0.065 A 
ATOM      9  C   UNL     1       4.556   2.679  -0.679  0.00  0.00    +0.267 A 
ATOM     10  O   UNL     1       4.510   1.887  -1.602  0.00  0.00    -0.267 OA
ATOM     11  N   UNL     1       4.156   2.331   0.566  0.00  0.00    -0.253 N 
ENDROOT
BRANCH  11  12
ATOM     12  C   UNL     1       3.678   1.035   0.807  0.00  0.00    +0.087 A 
ATOM     13  C   UNL     1       2.324   0.758   0.675  0.00  0.00    +0.032 A 
ATOM     14  C   UNL     1       1.854  -0.519   0.913  0.00  0.00    +0.040 A 
ATOM     15  C   UNL     1       2.733  -1.525   1.277  0.00  0.00    +0.126 A 
ATOM     16  C   UNL     1       4.083  -1.252   1.415  0.00  0.00    +0.078 A 
ATOM     17  C   UNL     1       4.558   0.025   1.177  0.00  0.00    +0.150 A 
ATOM     18  F   UNL     1       5.877   0.291   1.306  0.00  0.00    -0.203 F 
ATOM     19  F   UNL     1       2.271  -2.774   1.504  0.00  0.00    -0.205 F 
ENDBRANCH  11  12
BRANCH   1  20
ATOM     20  S   UNL     1       3.694   2.722   3.194  0.00  0.00    -0.075 S 
BRANCH  20  21
ATOM     21  C   UNL     1       3.985   4.248   4.122  0.00  0.00    +0.137 C 
ATOM     22  C   UNL     1       5.484   4.551   4.149  0.00  0.00    +0.029 C 
BRANCH  21  24
ATOM     23  N   UNL     1       3.118   5.165   6.250  0.00  0.00    -0.284 N 
ATOM     24  C   UNL     1       3.480   4.083   5.532  0.00  0.00    +0.230 C 
ATOM     25  O   UNL     1       3.400   2.976   6.021  0.00  0.00    -0.274 OA
ATOM     26  H   UNL     1       3.231   6.053   5.878  0.00  0.00    +0.155 HD
BRANCH  23  31
ATOM     27  C   UNL     1       0.931   4.521  11.444  0.00  0.00    +0.044 C 
ATOM     28  C   UNL     1       1.511   4.692  10.064  0.00  0.00    -0.050 A 
ATOM     29  C   UNL     1       2.582   5.545   9.867  0.00  0.00    +0.008 A 
ATOM     30  C   UNL     1       3.117   5.704   8.604  0.00  0.00    -0.029 A 
ATOM     31  C   UNL     1       2.579   5.006   7.531  0.00  0.00    +0.039 A 
ATOM     32  C   UNL     1       1.500   4.154   7.731  0.00  0.00    -0.029 A 
ATOM     33  C   UNL     1       0.973   3.996   8.998  0.00  0.00    +0.008 A 
ATOM     34  C   UNL     1       0.909   3.399   6.568  0.00  0.00    +0.045 C 
ATOM     35  C   UNL     1       4.284   6.633   8.390  0.00  0.00    +0.045 C 
ENDBRANCH  23  31
ENDBRANCH  21  24
ENDBRANCH  20  21
ENDBRANCH   1  20
TORSDOF 5
