REMARK  Name = ZINC08849592
REMARK  9 active torsions:
REMARK  status: ('A' for Active; 'I' for Inactive)
REMARK    1  A    between atoms: C_1  and  C_2
REMARK    2  A    between atoms: C_7  and  N_12
REMARK    3  A    between atoms: C_9  and  C_11
REMARK    4  A    between atoms: C_13  and  C_15
REMARK    5  A    between atoms: C_15  and  S_16
REMARK    6  A    between atoms: S_16  and  C_17
REMARK    7  A    between atoms: C_20  and  C_32
REMARK    8  A    between atoms: N_21  and  C_22
REMARK    9  A    between atoms: C_22  and  C_23
REMARK                            x       y       z     vdW  Elec       q    Type
REMARK                         _______ _______ _______ _____ _____    ______ ____
ROOT
ATOM      1  C   UNL     1      -1.730   0.928  -6.027  0.00  0.00    +0.193 A 
ATOM      2  N   UNL     1      -2.724   1.710  -5.671  0.00  0.00    -0.122 NA
ATOM      3  N   UNL     1      -3.279   2.220  -6.712  0.00  0.00    -0.128 NA
ATOM      4  C   UNL     1      -2.674   1.795  -7.796  0.00  0.00    +0.165 A 
ATOM      5  N   UNL     1      -1.659   0.959  -7.391  0.00  0.00    -0.298 N 
ENDROOT
BRANCH   4   6
ATOM      6  C   UNL     1      -3.014   2.152  -9.190  0.00  0.00    +0.019 A 
ATOM      7  C   UNL     1      -2.846   1.218 -10.214  0.00  0.00    +0.011 A 
ATOM      8  C   UNL     1      -3.171   1.556 -11.511  0.00  0.00    +0.001 A 
ATOM      9  C   UNL     1      -3.651   2.821 -11.800  0.00  0.00    +0.000 A 
ATOM     10  C   UNL     1      -3.814   3.754 -10.791  0.00  0.00    +0.001 A 
ATOM     11  C   UNL     1      -3.498   3.427  -9.489  0.00  0.00    +0.011 A 
ENDBRANCH   4   6
BRANCH   1  12
ATOM     12  S   UNL     1      -0.679   0.015  -4.947  0.00  0.00    -0.077 S 
BRANCH  12  13
ATOM     13  C   UNL     1      -1.384   0.489  -3.349  0.00  0.00    +0.173 C 
BRANCH  13  15
ATOM     14  N   UNL     1      -0.971   0.014  -0.956  0.00  0.00    -0.312 N 
ATOM     15  C   UNL     1      -0.621  -0.192  -2.242  0.00  0.00    +0.224 C 
ATOM     16  O   UNL     1       0.307  -0.926  -2.507  0.00  0.00    -0.275 OA
ATOM     17  H   UNL     1      -1.714   0.601  -0.744  0.00  0.00    +0.149 HD
BRANCH  14  23
ATOM     18  C   UNL     1      -2.465   0.477   3.046  0.00  0.00    +0.008 C 
ATOM     19  C   UNL     1      -1.567   0.610   1.815  0.00  0.00    -0.009 C 
ATOM     20  C   UNL     1      -0.333   1.441   2.171  0.00  0.00    +0.003 C 
ATOM     21  C   UNL     1       0.566   1.573   0.939  0.00  0.00    +0.002 C 
ATOM     22  C   UNL     1       1.004   0.183   0.476  0.00  0.00    +0.022 C 
ATOM     23  C   UNL     1      -0.230  -0.649   0.120  0.00  0.00    +0.076 C 
ATOM     24  C   UNL     1      -1.129  -0.781   1.351  0.00  0.00    +0.009 C 
ATOM     25  C   UNL     1      -2.363  -1.612   0.995  0.00  0.00    +0.009 C 
ENDBRANCH  14  23
ENDBRANCH  13  15
ENDBRANCH  12  13
ENDBRANCH   1  12
BRANCH   5  26
ATOM     26  C   UNL     1      -0.704   0.248  -8.244  0.00  0.00    +0.161 C 
BRANCH  26  27
ATOM     27  C   UNL     1       0.440   1.165  -8.591  0.00  0.00    -0.024 A 
ATOM     28  C   UNL     1       0.404   1.902  -9.760  0.00  0.00    +0.009 A 
ATOM     29  C   UNL     1       1.449   2.749 -10.080  0.00  0.00    +0.050 A 
ATOM     30  C   UNL     1       2.541   2.853  -9.234  0.00  0.00    +0.166 A 
ATOM     31  C   UNL     1       2.580   2.107  -8.059  0.00  0.00    +0.167 A 
ATOM     32  C   UNL     1       1.527   1.264  -7.742  0.00  0.00    +0.055 A 
ATOM     33  O   UNL     1       3.747   2.382  -7.406  0.00  0.00    -0.453 OA
ATOM     34  C   UNL     1       4.232   3.607  -7.987  0.00  0.00    +0.466 C 
ATOM     35  O   UNL     1       3.683   3.596  -9.317  0.00  0.00    -0.453 OA
ENDBRANCH  26  27
ENDBRANCH   5  26
TORSDOF 7
