REMARK  Name = ZINC13241600
REMARK  13 active torsions:
REMARK  status: ('A' for Active; 'I' for Inactive)
REMARK    1  A    between atoms: C_1  and  C_2
REMARK    2  A    between atoms: C_2  and  C_3
REMARK    3  A    between atoms: C_9  and  S_16
REMARK    4  A    between atoms: N_10  and  C_13
REMARK    5  A    between atoms: C_13  and  C_14
REMARK    6  A    between atoms: S_16  and  C_17
REMARK    7  A    between atoms: C_17  and  C_18
REMARK    8  A    between atoms: N_20  and  C_21
REMARK    9  A    between atoms: C_23  and  O_31
REMARK   10  A    between atoms: C_24  and  O_29
REMARK   11  A    between atoms: C_26  and  C_27
REMARK   12  A    between atoms: O_29  and  C_30
REMARK   13  A    between atoms: O_31  and  C_32
REMARK                            x       y       z     vdW  Elec       q    Type
REMARK                         _______ _______ _______ _____ _____    ______ ____
ROOT
ATOM      1  C   UNL     1       0.966   5.136   2.139  0.00  0.00    +0.173 C 
ENDROOT
BRANCH   1   2
ATOM      2  C   UNL     1       2.035   6.099   1.692  0.00  0.00    +0.228 C 
ATOM      3  O   UNL     1       2.705   5.849   0.713  0.00  0.00    -0.275 OA
ATOM      4  N   UNL     1       2.248   7.238   2.381  0.00  0.00    -0.284 N 
ATOM      5  H   UNL     1       1.670   7.470   3.125  0.00  0.00    +0.155 HD
BRANCH   4   6
ATOM      6  C   UNL     1       3.298   8.082   2.025  0.00  0.00    +0.051 A 
ATOM      7  C   UNL     1       3.649   8.231   0.692  0.00  0.00    +0.073 A 
ATOM      8  C   UNL     1       4.692   9.070   0.338  0.00  0.00    +0.163 A 
ATOM      9  C   UNL     1       5.396   9.771   1.319  0.00  0.00    +0.162 A 
ATOM     10  C   UNL     1       5.056   9.631   2.648  0.00  0.00    +0.066 A 
ATOM     11  C   UNL     1       3.999   8.790   3.014  0.00  0.00    +0.088 A 
BRANCH  11  12
ATOM     12  C   UNL     1       3.629   8.643   4.430  0.00  0.00    +0.388 C 
ATOM     13  O   UNL     1       2.779   7.836   4.755  0.00  0.00    -0.241 OA
ATOM     14  O   UNL     1       4.231   9.402   5.367  0.00  0.00    -0.241 OA
ENDBRANCH  11  12
BRANCH   9  15
ATOM     15  O   UNL     1       6.420  10.593   0.963  0.00  0.00    -0.491 OA
ATOM     16  C   UNL     1       7.097  11.280   2.017  0.00  0.00    +0.277 C 
ENDBRANCH   9  15
BRANCH   8  17
ATOM     17  O   UNL     1       5.033   9.212  -0.969  0.00  0.00    -0.491 OA
ATOM     18  C   UNL     1       4.272   8.466  -1.922  0.00  0.00    +0.277 C 
ENDBRANCH   8  17
ENDBRANCH   4   6
ENDBRANCH   1   2
BRANCH   1  19
ATOM     19  S   UNL     1       0.926   3.715   1.019  0.00  0.00    -0.078 S 
BRANCH  19  26
ATOM     20  C   UNL     1      -3.966   1.335   4.743  0.00  0.00    -0.008 A 
ATOM     21  C   UNL     1      -3.479   0.706   3.663  0.00  0.00    +0.026 A 
ATOM     22  C   UNL     1      -2.400   1.320   2.910  0.00  0.00    +0.072 A 
ATOM     23  C   UNL     1      -1.959   2.561   3.408  0.00  0.00    +0.116 A 
ATOM     24  S   UNL     1      -2.993   2.827   4.826  0.00  0.00    -0.073 S 
ATOM     25  N   UNL     1      -0.980   3.245   2.829  0.00  0.00    -0.216 NA
ATOM     26  C   UNL     1      -0.374   2.781   1.756  0.00  0.00    +0.173 A 
ATOM     27  N   UNL     1      -0.742   1.588   1.203  0.00  0.00    -0.283 N 
ATOM     28  C   UNL     1      -1.726   0.845   1.741  0.00  0.00    +0.263 A 
ATOM     29  O   UNL     1      -2.040  -0.221   1.238  0.00  0.00    -0.267 OA
BRANCH  20  31
ATOM     30  C   UNL     1      -4.479   0.061   6.807  0.00  0.00    +0.009 C 
ATOM     31  C   UNL     1      -5.071   0.889   5.665  0.00  0.00    +0.039 C 
ENDBRANCH  20  31
BRANCH  27  32
ATOM     32  C   UNL     1      -0.049   1.106   0.006  0.00  0.00    +0.154 C 
BRANCH  32  33
ATOM     33  C   UNL     1      -0.762   1.607  -1.223  0.00  0.00    -0.013 C 
ATOM     34  C   UNL     1      -0.104   2.283  -2.132  0.00  0.00    +0.005 C 
ENDBRANCH  32  33
ENDBRANCH  27  32
ENDBRANCH  19  26
ENDBRANCH   1  19
TORSDOF 10
