REMARK  Name = ZINC15300959
REMARK  12 active torsions:
REMARK  status: ('A' for Active; 'I' for Inactive)
REMARK    1  A    between atoms: C_1  and  C_2
REMARK    2  A    between atoms: C_2  and  N_57
REMARK    3  A    between atoms: C_3  and  C_4
REMARK    4  A    between atoms: C_3  and  N_57
REMARK    5  A    between atoms: C_6  and  C_9
REMARK    6  A    between atoms: C_12  and  C_15
REMARK    7  A    between atoms: C_15  and  C_16
REMARK    8  A    between atoms: C_15  and  C_17
REMARK    9  A    between atoms: C_18  and  C_19
REMARK   10  A    between atoms: C_18  and  N_57
REMARK   11  A    between atoms: N_21  and  C_22
REMARK   12  A    between atoms: C_27  and  C_28
REMARK                            x       y       z     vdW  Elec       q    Type
REMARK                         _______ _______ _______ _____ _____    ______ ____
ROOT
ATOM      1  N   UNL     1      -5.601   5.213   7.326  0.00  0.00    +0.391 N 
ATOM      2  H   UNL     1      -5.839   5.146   6.329  0.00  0.00    -0.080 HD
ENDROOT
BRANCH   1   4
ATOM      3  C   UNL     1      -5.756   4.060   9.508  0.00  0.00    -0.017 C 
ATOM      4  C   UNL     1      -6.174   4.050   8.036  0.00  0.00    -0.081 C 
ENDBRANCH   1   4
BRANCH   1   5
ATOM      5  C   UNL     1      -4.129   5.216   7.469  0.00  0.00    +0.022 C 
BRANCH   5   6
ATOM      6  C   UNL     1      -3.565   4.041   6.713  0.00  0.00    +0.211 A 
ATOM      7  N   UNL     1      -3.206   4.025   5.454  0.00  0.00    -0.193 NA
ATOM      8  C   UNL     1      -2.764   2.769   5.218  0.00  0.00    +0.202 A 
ATOM      9  N   UNL     1      -2.884   2.101   6.336  0.00  0.00    -0.056 NA
ATOM     10  O   UNL     1      -3.337   2.818   7.203  0.00  0.00    -0.340 OA
BRANCH   8  11
ATOM     11  C   UNL     1      -2.245   2.245   3.930  0.00  0.00    +0.022 A 
ATOM     12  C   UNL     1      -1.821   0.921   3.834  0.00  0.00    +0.012 A 
ATOM     13  C   UNL     1      -1.340   0.439   2.633  0.00  0.00    +0.004 A 
ATOM     14  C   UNL     1      -1.279   1.267   1.527  0.00  0.00    -0.045 A 
ATOM     15  C   UNL     1      -1.693   2.583   1.619  0.00  0.00    +0.004 A 
ATOM     16  C   UNL     1      -2.180   3.075   2.813  0.00  0.00    +0.012 A 
BRANCH  14  17
ATOM     17  C   UNL     1      -0.753   0.734   0.219  0.00  0.00    +0.013 C 
ATOM     18  C   UNL     1       0.473   1.545  -0.206  0.00  0.00    +0.012 C 
ATOM     19  C   UNL     1      -1.839   0.852  -0.853  0.00  0.00    +0.012 C 
ENDBRANCH  14  17
ENDBRANCH   8  11
ENDBRANCH   5   6
ENDBRANCH   1   5
BRANCH   1  20
ATOM     20  C   UNL     1      -6.164   6.466   7.871  0.00  0.00    +0.020 C 
BRANCH  20  21
ATOM     21  C   UNL     1      -7.580   6.614   7.378  0.00  0.00    +0.201 C 
ATOM     22  O   UNL     1      -8.027   5.826   6.571  0.00  0.00    -0.278 OA
ATOM     23  N   UNL     1      -8.350   7.623   7.832  0.00  0.00    -0.287 N 
ATOM     24  H   UNL     1      -7.972   8.293   8.423  0.00  0.00    +0.155 HD
BRANCH  23  25
ATOM     25  C   UNL     1      -9.694   7.704   7.451  0.00  0.00    +0.045 A 
ATOM     26  C   UNL     1     -10.345   6.582   6.956  0.00  0.00    +0.024 A 
ATOM     27  C   UNL     1     -11.673   6.664   6.585  0.00  0.00    +0.002 A 
ATOM     28  C   UNL     1     -12.351   7.864   6.698  0.00  0.00    +0.001 A 
ATOM     29  C   UNL     1     -11.704   8.984   7.186  0.00  0.00    +0.014 A 
ATOM     30  C   UNL     1     -10.377   8.908   7.563  0.00  0.00    +0.076 A 
BRANCH  30  31
ATOM     31  C   UNL     1      -9.672  10.129   8.094  0.00  0.00    +0.419 C 
ATOM     32  F   UNL     1     -10.561  11.209   8.112  0.00  0.00    -0.166 F 
ATOM     33  F   UNL     1      -9.218   9.877   9.393  0.00  0.00    -0.166 F 
ATOM     34  F   UNL     1      -8.584  10.434   7.270  0.00  0.00    -0.166 F 
ENDBRANCH  30  31
ENDBRANCH  23  25
ENDBRANCH  20  21
ENDBRANCH   1  20
TORSDOF 9
