REMARK  Name = ZINC25393172
REMARK  7 active torsions:
REMARK  status: ('A' for Active; 'I' for Inactive)
REMARK    1  A    between atoms: C_4  and  C_7
REMARK    2  A    between atoms: C_7  and  C_9
REMARK    3  A    between atoms: C_7  and  N_23
REMARK    4  A    between atoms: N_11  and  C_12
REMARK    5  A    between atoms: C_17  and  C_18
REMARK    6  A    between atoms: N_23  and  C_24
REMARK    7  A    between atoms: C_24  and  C_25
REMARK                            x       y       z     vdW  Elec       q    Type
REMARK                         _______ _______ _______ _____ _____    ______ ____
ROOT
ATOM      1  C   UNL     1      -2.252   7.101  -1.184  0.00  0.00    +0.047 C 
ENDROOT
BRANCH   1   5
ATOM      2  C   UNL     1       1.328   8.595  -2.974  0.00  0.00    +0.000 A 
ATOM      3  C   UNL     1       0.787   9.233  -1.873  0.00  0.00    +0.000 A 
ATOM      4  C   UNL     1      -0.372   8.750  -1.294  0.00  0.00    +0.002 A 
ATOM      5  C   UNL     1      -0.989   7.628  -1.816  0.00  0.00    -0.053 A 
ATOM      6  C   UNL     1      -0.445   6.987  -2.913  0.00  0.00    +0.002 A 
ATOM      7  C   UNL     1       0.711   7.473  -3.495  0.00  0.00    +0.000 A 
ENDBRANCH   1   5
BRANCH   1   8
ATOM      8  C   UNL     1      -3.443   7.557  -1.987  0.00  0.00    +0.207 C 
ATOM      9  O   UNL     1      -4.185   6.739  -2.489  0.00  0.00    -0.277 OA
ATOM     10  N   UNL     1      -3.684   8.873  -2.147  0.00  0.00    -0.286 N 
ATOM     11  H   UNL     1      -3.066   9.614  -1.618  0.00  0.00    +0.155 HD
BRANCH  10  12
ATOM     12  C   UNL     1      -4.721   9.298  -2.986  0.00  0.00    +0.045 A 
ATOM     13  C   UNL     1      -5.157   8.481  -4.021  0.00  0.00    +0.025 A 
ATOM     14  C   UNL     1      -6.180   8.903  -4.847  0.00  0.00    +0.022 A 
ATOM     15  C   UNL     1      -6.771  10.138  -4.644  0.00  0.00    +0.042 A 
ATOM     16  C   UNL     1      -6.338  10.954  -3.614  0.00  0.00    +0.034 A 
ATOM     17  C   UNL     1      -5.319  10.534  -2.781  0.00  0.00    +0.077 A 
ATOM     18 CL   UNL     1      -8.057  10.664  -5.685  0.00  0.00    -0.084 Cl
BRANCH  17  19
ATOM     19  C   UNL     1      -4.852  11.421  -1.655  0.00  0.00    +0.419 C 
ATOM     20  F   UNL     1      -5.600  12.603  -1.652  0.00  0.00    -0.166 F 
ATOM     21  F   UNL     1      -5.024  10.756  -0.436  0.00  0.00    -0.166 F 
ATOM     22  F   UNL     1      -3.498  11.726  -1.832  0.00  0.00    -0.166 F 
ENDBRANCH  17  19
ENDBRANCH  10  12
ENDBRANCH   1   8
BRANCH   1  23
ATOM     23  N   UNL     1      -2.211   5.633  -1.159  0.00  0.00    +0.390 N 
ATOM     24  H   UNL     1      -3.237   5.238  -1.135  0.00  0.00    -0.084 HD
ATOM     25  H   UNL     1      -1.698   5.265  -2.060  0.00  0.00    -0.084 HD
BRANCH  23  26
ATOM     26  C   UNL     1      -1.490   5.146   0.025  0.00  0.00    -0.074 C 
BRANCH  26  27
ATOM     27  C   UNL     1      -1.469   3.616   0.015  0.00  0.00    -0.044 C 
ATOM     28  C   UNL     1      -0.762   3.124  -1.250  0.00  0.00    +0.008 C 
ATOM     29  C   UNL     1      -0.741   1.594  -1.259  0.00  0.00    -0.010 C 
ATOM     30  C   UNL     1       0.009   1.087  -0.026  0.00  0.00    +0.007 C 
ATOM     31  C   UNL     1      -0.697   1.579   1.239  0.00  0.00    -0.010 C 
ATOM     32  C   UNL     1      -0.718   3.109   1.248  0.00  0.00    +0.008 C 
ATOM     33  C   UNL     1      -2.132   1.049   1.261  0.00  0.00    +0.007 C 
ATOM     34  C   UNL     1      -2.882   1.556   0.028  0.00  0.00    -0.010 C 
ATOM     35  C   UNL     1      -2.176   1.064  -1.237  0.00  0.00    +0.007 C 
ATOM     36  C   UNL     1      -2.904   3.086   0.037  0.00  0.00    +0.008 C 
ENDBRANCH  26  27
ENDBRANCH  23  26
ENDBRANCH   1  23
TORSDOF 7
