REMARK  Name = ZINC13064569
REMARK  15 active torsions:
REMARK  status: ('A' for Active; 'I' for Inactive)
REMARK    1  A    between atoms: C_1  and  C_2
REMARK    2  A    between atoms: C_2  and  C_3
REMARK    3  A    between atoms: C_3  and  C_5
REMARK    4  A    between atoms: C_3  and  N_74
REMARK    5  A    between atoms: N_9  and  C_10
REMARK    6  A    between atoms: C_10  and  C_11
REMARK    7  A    between atoms: C_10  and  C_12
REMARK    8  A    between atoms: C_10  and  C_13
REMARK    9  A    between atoms: C_13  and  C_14
REMARK   10  A    between atoms: C_15  and  C_16
REMARK   11  A    between atoms: C_15  and  N_74
REMARK   12  A    between atoms: C_25  and  C_26
REMARK   13  A    between atoms: C_25  and  N_74
REMARK   14  A    between atoms: C_30  and  C_39
REMARK   15  A    between atoms: C_31  and  C_38
REMARK                            x       y       z     vdW  Elec       q    Type
REMARK                         _______ _______ _______ _____ _____    ______ ____
ROOT
ATOM      1  N   UNL     1      -1.003   1.602   1.404  0.00  0.00    +0.392 N 
ATOM      2  H   UNL     1      -2.002   1.364   1.408  0.00  0.00    -0.080 HD
ENDROOT
BRANCH   1   3
ATOM      3  C   UNL     1      -0.330   0.830   0.338  0.00  0.00    +0.003 C 
BRANCH   3   4
ATOM      4  C   UNL     1      -1.295   0.646  -0.804  0.00  0.00    +0.139 A 
ATOM      5  N   UNL     1      -2.088   1.557  -1.313  0.00  0.00    -0.115 NA
ATOM      6  N   UNL     1      -2.754   1.014  -2.273  0.00  0.00    -0.023 NA
ATOM      7  N   UNL     1      -2.412  -0.223  -2.384  0.00  0.00    -0.043 NA
ATOM      8  N   UNL     1      -1.515  -0.487  -1.495  0.00  0.00    -0.225 N 
BRANCH   8   9
ATOM      9  C   UNL     1      -0.859  -1.780  -1.280  0.00  0.00    +0.061 C 
ATOM     10  C   UNL     1       0.658  -1.603  -1.372  0.00  0.00    +0.036 C 
ATOM     11  C   UNL     1      -1.227  -2.313   0.106  0.00  0.00    +0.036 C 
BRANCH   9  12
ATOM     12  C   UNL     1      -1.323  -2.772  -2.348  0.00  0.00    +0.026 C 
ATOM     13  C   UNL     1      -0.638  -4.121  -2.122  0.00  0.00    +0.006 C 
ENDBRANCH   9  12
ENDBRANCH   8   9
ENDBRANCH   3   4
BRANCH   3  15
ATOM     14  C   UNL     1       1.932   1.678   0.978  0.00  0.00    +0.002 C 
ATOM     15  C   UNL     1       0.911   1.575  -0.158  0.00  0.00    -0.011 C 
ENDBRANCH   3  15
ENDBRANCH   1   3
BRANCH   1  16
ATOM     16  C   UNL     1      -0.855   3.050   1.150  0.00  0.00    -0.041 C 
BRANCH  16  17
ATOM     17  C   UNL     1      -1.868   3.464   0.114  0.00  0.00    -0.060 A 
ATOM     18  C   UNL     1      -1.485   3.608  -1.207  0.00  0.00    +0.005 A 
ATOM     19  C   UNL     1      -2.412   3.981  -2.162  0.00  0.00    +0.050 A 
ATOM     20  C   UNL     1      -3.725   4.224  -1.795  0.00  0.00    +0.166 A 
ATOM     21  C   UNL     1      -4.110   4.084  -0.464  0.00  0.00    +0.166 A 
ATOM     22  C   UNL     1      -3.177   3.704   0.487  0.00  0.00    +0.051 A 
ATOM     23  O   UNL     1      -5.440   4.376  -0.361  0.00  0.00    -0.453 OA
ATOM     24  C   UNL     1      -5.771   5.090  -1.567  0.00  0.00    +0.466 C 
ATOM     25  O   UNL     1      -4.814   4.603  -2.526  0.00  0.00    -0.453 OA
ENDBRANCH  16  17
ENDBRANCH   1  16
BRANCH   1  26
ATOM     26  C   UNL     1      -0.423   1.258   2.720  0.00  0.00    -0.036 C 
BRANCH  26  27
ATOM     27  C   UNL     1      -1.376   1.703   3.799  0.00  0.00    +0.001 A 
ATOM     28  C   UNL     1      -2.283   0.829   4.301  0.00  0.00    +0.017 A 
ATOM     29  C   UNL     1      -3.192   1.291   5.352  0.00  0.00    -0.001 A 
ATOM     30  C   UNL     1      -4.145   0.435   5.912  0.00  0.00    +0.013 A 
ATOM     31  C   UNL     1      -4.982   0.898   6.888  0.00  0.00    -0.047 A 
ATOM     32  C   UNL     1      -4.894   2.212   7.328  0.00  0.00    -0.046 A 
ATOM     33  C   UNL     1      -3.962   3.073   6.791  0.00  0.00    +0.030 A 
ATOM     34  C   UNL     1      -3.100   2.624   5.796  0.00  0.00    +0.049 A 
ATOM     35  N   UNL     1      -2.158   3.464   5.241  0.00  0.00    -0.322 N 
ATOM     36  H   UNL     1      -2.096   4.382   5.548  0.00  0.00    +0.169 HD
ATOM     37  C   UNL     1      -1.324   3.029   4.280  0.00  0.00    +0.251 A 
ATOM     38  O   UNL     1      -0.504   3.800   3.812  0.00  0.00    -0.268 OA
ATOM     39  C   UNL     1      -5.828   2.701   8.405  0.00  0.00    +0.044 C 
ATOM     40  C   UNL     1      -6.009  -0.025   7.491  0.00  0.00    +0.044 C 
ENDBRANCH  26  27
ENDBRANCH   1  26
TORSDOF 9
