REMARK  Name = ZINC63514976
REMARK  12 active torsions:
REMARK  status: ('A' for Active; 'I' for Inactive)
REMARK    1  A    between atoms: C_1  and  C_2
REMARK    2  A    between atoms: C_4  and  C_17
REMARK    3  A    between atoms: C_7  and  O_12
REMARK    4  A    between atoms: O_12  and  C_13
REMARK    5  A    between atoms: C_17  and  C_18
REMARK    6  A    between atoms: C_18  and  N_19
REMARK    7  A    between atoms: C_20  and  C_22
REMARK    8  A    between atoms: C_28  and  C_30
REMARK    9  A    between atoms: C_30  and  O_32
REMARK   10  A    between atoms: O_32  and  C_33
REMARK   11  A    between atoms: C_33  and  C_34
REMARK   12  A    between atoms: C_33  and  C_35
REMARK                            x       y       z     vdW  Elec       q    Type
REMARK                         _______ _______ _______ _____ _____    ______ ____
ROOT
ATOM      1  C   UNL     1       0.352  -0.269  -2.664  0.00  0.00    +0.052 C 
ENDROOT
BRANCH   1   4
ATOM      2  C   UNL     1      -0.019   1.526   0.010  0.00  0.00    +0.035 C 
ATOM      3  C   UNL     1       0.002  -0.004   0.002  0.00  0.00    +0.103 C 
ATOM      4  C   UNL     1       0.729  -0.509  -1.224  0.00  0.00    -0.037 C 
ATOM      5  C   UNL     1       1.785  -1.220  -0.768  0.00  0.00    +0.003 A 
ATOM      6  C   UNL     1       2.858  -1.954  -1.447  0.00  0.00    +0.056 A 
ATOM      7  C   UNL     1       3.803  -2.586  -0.711  0.00  0.00    +0.129 A 
ATOM      8  C   UNL     1       3.796  -2.567   0.695  0.00  0.00    +0.048 A 
ATOM      9  C   UNL     1       2.851  -1.919   1.409  0.00  0.00    +0.029 A 
ATOM     10  C   UNL     1       1.779  -1.200   0.713  0.00  0.00    +0.043 A 
ATOM     11  N   UNL     1       0.758  -0.506   1.155  0.00  0.00    -0.378 N 
ATOM     12  H   UNL     1       0.540  -0.349   2.087  0.00  0.00    +0.160 HD
BRANCH   7  13
ATOM     13  O   UNL     1       4.792  -3.263  -1.353  0.00  0.00    -0.420 OA
BRANCH  13  14
ATOM     14  C   UNL     1       5.767  -3.915  -0.537  0.00  0.00    +0.489 C 
ATOM     15  F   UNL     1       6.417  -2.968   0.261  0.00  0.00    -0.149 F 
ATOM     16  F   UNL     1       5.136  -4.859   0.280  0.00  0.00    -0.149 F 
ATOM     17 CL   UNL     1       6.974  -4.743  -1.590  0.00  0.00    +0.000 Cl
ENDBRANCH  13  14
ENDBRANCH   7  13
ENDBRANCH   1   4
BRANCH   1  18
ATOM     18  C   UNL     1       1.363  -0.963  -3.578  0.00  0.00    +0.108 C 
BRANCH  18  19
ATOM     19  N   UNL     1       0.997  -0.729  -4.977  0.00  0.00    -0.315 N 
ATOM     20  C   UNL     1       1.750  -1.249  -5.967  0.00  0.00    +0.217 C 
ATOM     21  O   UNL     1       2.731  -1.910  -5.699  0.00  0.00    -0.275 OA
ATOM     22  H   UNL     1       0.212  -0.201  -5.192  0.00  0.00    +0.149 HD
BRANCH  20  23
ATOM     23  C   UNL     1       1.373  -1.009  -7.406  0.00  0.00    +0.093 C 
ATOM     24  C   UNL     1       1.385   0.493  -7.697  0.00  0.00    +0.040 C 
ATOM     25  C   UNL     1       1.274   0.734  -9.174  0.00  0.00    -0.030 C 
ATOM     26  C   UNL     1       1.499  -0.168 -10.075  0.00  0.00    -0.030 C 
ATOM     27  C   UNL     1       1.893  -1.583  -9.769  0.00  0.00    +0.042 C 
ATOM     28  C   UNL     1       2.391  -1.695  -8.327  0.00  0.00    +0.114 C 
BRANCH  28  29
ATOM     29  C   UNL     1       2.523  -3.146  -7.944  0.00  0.00    +0.311 C 
ATOM     30  O   UNL     1       1.873  -3.591  -7.028  0.00  0.00    -0.250 OA
BRANCH  29  31
ATOM     31  O   UNL     1       3.365  -3.944  -8.619  0.00  0.00    -0.462 OA
BRANCH  31  32
ATOM     32  C   UNL     1       3.440  -5.309  -8.202  0.00  0.00    +0.170 C 
ATOM     33  C   UNL     1       3.783  -6.192  -9.403  0.00  0.00    +0.052 C 
ATOM     34  C   UNL     1       4.527  -5.457  -7.135  0.00  0.00    +0.052 C 
ENDBRANCH  31  32
ENDBRANCH  29  31
ENDBRANCH  28  29
ENDBRANCH  20  23
ENDBRANCH  18  19
ENDBRANCH   1  18
TORSDOF 9
