REMARK  Name = ZINC63385588
REMARK  9 active torsions:
REMARK  status: ('A' for Active; 'I' for Inactive)
REMARK    1  A    between atoms: C_1  and  O_2
REMARK    2  A    between atoms: O_2  and  C_3
REMARK    3  A    between atoms: C_5  and  N_11
REMARK    4  A    between atoms: C_7  and  O_9
REMARK    5  A    between atoms: O_9  and  C_10
REMARK    6  A    between atoms: C_12  and  C_14
REMARK    7  A    between atoms: N_25  and  C_27
REMARK    8  A    between atoms: C_27  and  C_28
REMARK    9  A    between atoms: C_28  and  C_29
REMARK                            x       y       z     vdW  Elec       q    Type
REMARK                         _______ _______ _______ _____ _____    ______ ____
ROOT
ATOM      1  C   UNL     1       1.782  -6.102  -3.510  0.00  0.00    +0.123 C 
ATOM      2  C   UNL     1       0.305  -6.609  -3.591  0.00  0.00    +0.155 C 
ATOM      3  C   UNL     1      -0.379  -5.813  -4.708  0.00  0.00    +0.004 C 
ATOM      4  C   UNL     1       0.102  -6.268  -5.872  0.00  0.00    +0.008 C 
ATOM      5  C   UNL     1       1.095  -7.298  -5.465  0.00  0.00    +0.116 C 
ATOM      6  C   UNL     1       2.346  -6.556  -4.868  0.00  0.00    +0.127 C 
ATOM      7  C   UNL     1       3.357  -7.665  -4.794  0.00  0.00    +0.223 C 
ATOM      8  O   UNL     1       4.301  -7.705  -4.034  0.00  0.00    -0.275 OA
ATOM      9  N   UNL     1       3.045  -8.617  -5.711  0.00  0.00    -0.298 N 
ATOM     10  C   UNL     1       1.741  -8.273  -6.399  0.00  0.00    +0.147 C 
ATOM     11  O   UNL     1       0.519  -7.906  -4.258  0.00  0.00    -0.359 OA
ENDROOT
BRANCH   1  13
ATOM     12  N   UNL     1       1.322  -4.003  -2.284  0.00  0.00    -0.285 N 
ATOM     13  C   UNL     1       1.830  -4.601  -3.380  0.00  0.00    +0.224 C 
ATOM     14  O   UNL     1       2.325  -3.932  -4.262  0.00  0.00    -0.275 OA
ATOM     15  H   UNL     1       0.986  -4.540  -1.550  0.00  0.00    +0.155 HD
BRANCH  12  18
ATOM     16  C   UNL     1       0.177  -0.596  -1.488  0.00  0.00    +0.125 A 
ATOM     17  C   UNL     1       0.219  -1.979  -1.565  0.00  0.00    +0.069 A 
ATOM     18  C   UNL     1       1.279  -2.607  -2.207  0.00  0.00    +0.040 A 
ATOM     19  C   UNL     1       2.296  -1.848  -2.770  0.00  0.00    +0.069 A 
ATOM     20  C   UNL     1       2.252  -0.464  -2.692  0.00  0.00    +0.125 A 
ATOM     21  C   UNL     1       1.191   0.162  -2.056  0.00  0.00    +0.091 A 
BRANCH  16  23
ATOM     22  C   UNL     1      -0.842   1.447  -0.824  0.00  0.00    +0.277 C 
ATOM     23  O   UNL     1      -0.860   0.019  -0.861  0.00  0.00    -0.495 OA
ENDBRANCH  16  23
BRANCH  20  24
ATOM     24  O   UNL     1       3.248   0.279  -3.243  0.00  0.00    -0.495 OA
ATOM     25  C   UNL     1       3.139   1.699  -3.125  0.00  0.00    +0.277 C 
ENDBRANCH  20  24
ENDBRANCH  12  18
ENDBRANCH   1  13
BRANCH   9  26
ATOM     26  C   UNL     1       3.873  -9.788  -6.008  0.00  0.00    +0.112 C 
BRANCH  26  27
ATOM     27  C   UNL     1       3.463 -10.947  -5.096  0.00  0.00    +0.052 C 
BRANCH  27  28
ATOM     28  C   UNL     1       4.314 -12.152  -5.401  0.00  0.00    -0.040 C 
ATOM     29  C   UNL     1       5.445 -12.532  -4.763  0.00  0.00    -0.001 A 
ATOM     30  C   UNL     1       6.192 -11.958  -3.637  0.00  0.00    +0.010 A 
ATOM     31  C   UNL     1       7.315 -12.579  -3.211  0.00  0.00    +0.001 A 
ATOM     32  C   UNL     1       7.783 -13.753  -3.817  0.00  0.00    +0.002 A 
ATOM     33  C   UNL     1       7.152 -14.340  -4.855  0.00  0.00    +0.026 A 
ATOM     34  C   UNL     1       5.960 -13.773  -5.385  0.00  0.00    +0.043 A 
ATOM     35  N   UNL     1       5.178 -14.145  -6.369  0.00  0.00    -0.380 N 
ATOM     36  C   UNL     1       4.074 -13.185  -6.479  0.00  0.00    +0.144 C 
ATOM     37  H   UNL     1       5.306 -14.927  -6.928  0.00  0.00    +0.160 HD
ENDBRANCH  27  28
ENDBRANCH  26  27
ENDBRANCH   9  26
TORSDOF 7
