REMARK  Name = ZINC36703160
REMARK  13 active torsions:
REMARK  status: ('A' for Active; 'I' for Inactive)
REMARK    1  A    between atoms: C_1  and  C_2
REMARK    2  A    between atoms: C_2  and  N_3
REMARK    3  A    between atoms: N_3  and  C_4
REMARK    4  A    between atoms: N_3  and  C_6
REMARK    5  A    between atoms: C_4  and  C_5
REMARK    6  A    between atoms: C_6  and  C_8
REMARK    7  A    between atoms: C_6  and  C_30
REMARK    8  A    between atoms: C_8  and  N_9
REMARK    9  A    between atoms: C_10  and  C_12
REMARK   10  A    between atoms: C_17  and  O_18
REMARK   11  A    between atoms: O_18  and  C_19
REMARK   12  A    between atoms: C_19  and  C_20
REMARK   13  A    between atoms: N_22  and  C_23
REMARK                            x       y       z     vdW  Elec       q    Type
REMARK                         _______ _______ _______ _____ _____    ______ ____
ROOT
ATOM      1  C   UNL     1       0.041  -4.763  -1.359  0.00  0.00    +0.078 A 
ATOM      2  C   UNL     1      -0.934  -4.988  -2.334  0.00  0.00    +0.017 A 
ATOM      3  C   UNL     1      -1.433  -6.258  -2.526  0.00  0.00    +0.001 A 
ATOM      4  C   UNL     1      -0.972  -7.314  -1.757  0.00  0.00    +0.004 A 
ATOM      5  C   UNL     1      -0.009  -7.105  -0.790  0.00  0.00    +0.046 A 
ATOM      6  C   UNL     1       0.508  -5.834  -0.587  0.00  0.00    +0.133 A 
ENDROOT
BRANCH   1   8
ATOM      7  N   UNL     1       0.056  -2.361  -1.819  0.00  0.00    -0.312 N 
ATOM      8  C   UNL     1       0.580  -3.406  -1.148  0.00  0.00    +0.248 C 
ATOM      9  O   UNL     1       1.496  -3.230  -0.369  0.00  0.00    -0.270 OA
ATOM     10  H   UNL     1      -0.722  -2.488  -2.385  0.00  0.00    +0.149 HD
BRANCH   7  11
ATOM     11  C   UNL     1       0.660  -1.032  -1.694  0.00  0.00    +0.094 C 
BRANCH  11  12
ATOM     12  C   UNL     1      -0.202  -0.008  -2.435  0.00  0.00    -0.020 C 
BRANCH  12  13
ATOM     13  C   UNL     1       0.349   1.375  -2.201  0.00  0.00    -0.059 A 
ATOM     14  C   UNL     1       1.672   1.539  -1.835  0.00  0.00    +0.002 A 
ATOM     15  C   UNL     1       2.178   2.808  -1.620  0.00  0.00    +0.000 A 
ATOM     16  C   UNL     1       1.361   3.912  -1.773  0.00  0.00    +0.000 A 
ATOM     17  C   UNL     1       0.039   3.748  -2.141  0.00  0.00    +0.000 A 
ATOM     18  C   UNL     1      -0.466   2.480  -2.359  0.00  0.00    +0.002 A 
ENDBRANCH  12  13
BRANCH  12  19
ATOM     19  N   UNL     1      -1.581  -0.076  -1.935  0.00  0.00    +0.385 N 
ATOM     20  H   UNL     1      -1.794  -1.024  -1.664  0.00  0.00    -0.081 HD
BRANCH  19  22
ATOM     21  C   UNL     1      -0.709   0.411   0.301  0.00  0.00    -0.017 C 
ATOM     22  C   UNL     1      -1.725   0.810  -0.771  0.00  0.00    -0.081 C 
ENDBRANCH  19  22
BRANCH  19  23
ATOM     23  C   UNL     1      -2.507   0.351  -2.992  0.00  0.00    -0.081 C 
ATOM     24  C   UNL     1      -2.507  -0.684  -4.119  0.00  0.00    -0.017 C 
ENDBRANCH  19  23
ENDBRANCH  12  19
ENDBRANCH  11  12
ENDBRANCH   7  11
ENDBRANCH   1   8
BRANCH   6  25
ATOM     25  O   UNL     1       1.459  -5.629   0.359  0.00  0.00    -0.482 OA
BRANCH  25  26
ATOM     26  C   UNL     1       1.886  -6.769   1.108  0.00  0.00    +0.324 C 
BRANCH  26  27
ATOM     27  C   UNL     1       2.937  -6.350   2.104  0.00  0.00    +0.255 C 
ATOM     28  O   UNL     1       3.285  -5.190   2.167  0.00  0.00    -0.272 OA
ATOM     29  N   UNL     1       3.489  -7.265   2.925  0.00  0.00    -0.280 N 
ATOM     30  H   UNL     1       3.256  -8.202   2.834  0.00  0.00    +0.155 HD
BRANCH  29  31
ATOM     31  C   UNL     1       4.401  -6.863   3.909  0.00  0.00    +0.069 A 
ATOM     32  C   UNL     1       4.384  -5.557   4.381  0.00  0.00    +0.026 A 
ATOM     33  C   UNL     1       5.284  -5.163   5.352  0.00  0.00    +0.002 A 
ATOM     34  C   UNL     1       6.201  -6.067   5.856  0.00  0.00    +0.003 A 
ATOM     35  C   UNL     1       6.222  -7.369   5.389  0.00  0.00    +0.040 A 
ATOM     36  C   UNL     1       5.320  -7.772   4.421  0.00  0.00    +0.144 A 
ATOM     37  F   UNL     1       5.336  -9.045   3.969  0.00  0.00    -0.204 F 
ENDBRANCH  29  31
ENDBRANCH  26  27
ENDBRANCH  25  26
ENDBRANCH   6  25
TORSDOF 11
