REMARK  Name = ZINC14465710
REMARK  5 active torsions:
REMARK  status: ('A' for Active; 'I' for Inactive)
REMARK    1  A    between atoms: C_1  and  C_2
REMARK    2  A    between atoms: C_2  and  N_3
REMARK    3  A    between atoms: N_3  and  C_4
REMARK    4  A    between atoms: C_10  and  C_12
REMARK    5  A    between atoms: C_25  and  C_28
REMARK                            x       y       z     vdW  Elec       q    Type
REMARK                         _______ _______ _______ _____ _____    ______ ____
ROOT
ATOM      1  C   UNL     1       1.699  -3.138   0.791  0.00  0.00    +0.038 A 
ATOM      2  C   UNL     1       0.477  -2.577   0.408  0.00  0.00    +0.015 A 
ATOM      3  C   UNL     1       0.212  -1.256   0.678  0.00  0.00    +0.024 A 
ATOM      4  C   UNL     1       1.153  -0.466   1.335  0.00  0.00    +0.031 A 
ATOM      5  C   UNL     1       2.372  -1.034   1.734  0.00  0.00    -0.019 A 
ATOM      6  C   UNL     1       2.643  -2.351   1.457  0.00  0.00    +0.019 A 
ATOM      7  C   UNL     1       3.318  -0.169   2.472  0.00  0.00    +0.049 C 
ATOM      8  C   UNL     1       4.784  -0.401   2.443  0.00  0.00    -0.023 C 
ATOM      9  C   UNL     1       5.401   0.768   2.567  0.00  0.00    -0.030 C 
ATOM     10  C   UNL     1       4.370   1.896   2.657  0.00  0.00    +0.033 C 
ATOM     11  C   UNL     1       3.194   1.274   1.900  0.00  0.00    +0.029 C 
ATOM     12  C   UNL     1       1.809   1.751   2.301  0.00  0.00    +0.105 C 
ATOM     13  N   UNL     1       0.860   0.875   1.580  0.00  0.00    -0.336 N 
ATOM     14  H   UNL     1       0.019   1.243   1.267  0.00  0.00    +0.147 HD
ENDROOT
BRANCH  12  15
ATOM     15  C   UNL     1       1.621   1.607   3.789  0.00  0.00    -0.027 A 
ATOM     16  C   UNL     1       1.123   0.428   4.312  0.00  0.00    +0.007 A 
ATOM     17  C   UNL     1       0.955   0.294   5.678  0.00  0.00    +0.020 A 
ATOM     18  C   UNL     1       1.275   1.343   6.520  0.00  0.00    +0.041 A 
ATOM     19  C   UNL     1       1.769   2.525   5.996  0.00  0.00    +0.020 A 
ATOM     20  C   UNL     1       1.941   2.656   4.631  0.00  0.00    +0.007 A 
ATOM     21 CL   UNL     1       1.059   1.178   8.235  0.00  0.00    -0.084 Cl
ENDBRANCH  12  15
BRANCH   1  23
ATOM     22  N   UNL     1       0.987  -5.450   0.436  0.00  0.00    -0.268 N 
ATOM     23  C   UNL     1       1.991  -4.553   0.495  0.00  0.00    +0.251 C 
ATOM     24  O   UNL     1       3.137  -4.911   0.303  0.00  0.00    -0.270 OA
BRANCH  22  25
ATOM     25  C   UNL     1       1.273  -6.813   0.305  0.00  0.00    +0.037 A 
ATOM     26  C   UNL     1       0.245  -7.723   0.097  0.00  0.00    +0.023 A 
ATOM     27  C   UNL     1       0.532  -9.068  -0.037  0.00  0.00    +0.002 A 
ATOM     28  C   UNL     1       1.840  -9.509   0.046  0.00  0.00    +0.000 A 
ATOM     29  C   UNL     1       2.865  -8.606   0.259  0.00  0.00    +0.002 A 
ATOM     30  C   UNL     1       2.586  -7.260   0.388  0.00  0.00    +0.023 A 
ENDBRANCH  22  25
BRANCH  22  32
ATOM     31  C   UNL     1      -0.990  -4.919  -0.902  0.00  0.00    +0.025 C 
ATOM     32  C   UNL     1      -0.405  -4.998   0.509  0.00  0.00    +0.110 C 
ENDBRANCH  22  32
ENDBRANCH   1  23
TORSDOF 4
