REMARK  Name = ZINC35747610
REMARK  12 active torsions:
REMARK  status: ('A' for Active; 'I' for Inactive)
REMARK    1  A    between atoms: C_1  and  C_2
REMARK    2  A    between atoms: C_2  and  C_3
REMARK    3  A    between atoms: C_2  and  N_4
REMARK    4  A    between atoms: N_4  and  C_5
REMARK    5  A    between atoms: N_4  and  C_24
REMARK    6  A    between atoms: C_5  and  C_6
REMARK    7  A    between atoms: C_12  and  C_17
REMARK    8  A    between atoms: C_24  and  C_25
REMARK    9  A    between atoms: C_25  and  C_27
REMARK   10  A    between atoms: C_25  and  O_35
REMARK   11  A    between atoms: C_27  and  O_28
REMARK   12  A    between atoms: O_28  and  C_29
REMARK                            x       y       z     vdW  Elec       q    Type
REMARK                         _______ _______ _______ _____ _____    ______ ____
ROOT
ATOM      1  C   UNL     1       0.871  -2.026  -0.961  0.00  0.00    -0.003 C 
ENDROOT
BRANCH   1   2
ATOM      2  C   UNL     1      -0.465  -2.666  -0.684  0.00  0.00    +0.094 A 
ATOM      3  N   UNL     1      -0.545  -4.015  -0.558  0.00  0.00    -0.312 N 
ATOM      4  H   UNL     1       0.260  -4.550  -0.648  0.00  0.00    +0.170 HD
ATOM      5  C   UNL     1      -1.718  -4.626  -0.311  0.00  0.00    +0.260 A 
ATOM      6  O   UNL     1      -1.774  -5.838  -0.200  0.00  0.00    -0.267 OA
ATOM      7  C   UNL     1      -2.901  -3.829  -0.179  0.00  0.00    +0.080 A 
ATOM      8  C   UNL     1      -4.271  -4.250   0.086  0.00  0.00    +0.004 A 
ATOM      9  C   UNL     1      -5.238  -3.304   0.169  0.00  0.00    +0.056 A 
ATOM     10  S   UNL     1      -4.352  -1.782  -0.106  0.00  0.00    -0.076 S 
ATOM     11  C   UNL     1      -2.720  -2.444  -0.325  0.00  0.00    +0.116 A 
ATOM     12  N   UNL     1      -1.525  -1.912  -0.564  0.00  0.00    -0.229 NA
BRANCH   8  13
ATOM     13  C   UNL     1      -4.601  -5.684   0.260  0.00  0.00    -0.015 A 
ATOM     14  C   UNL     1      -4.160  -6.622  -0.673  0.00  0.00    +0.008 A 
ATOM     15  C   UNL     1      -4.469  -7.956  -0.506  0.00  0.00    +0.002 A 
ATOM     16  C   UNL     1      -5.217  -8.365   0.583  0.00  0.00    +0.020 A 
ATOM     17  C   UNL     1      -5.659  -7.439   1.513  0.00  0.00    +0.042 A 
ATOM     18  C   UNL     1      -5.349  -6.101   1.359  0.00  0.00    +0.028 A 
ATOM     19 CL   UNL     1      -6.597  -7.960   2.877  0.00  0.00    -0.084 Cl
ENDBRANCH   8  13
ENDBRANCH   1   2
BRANCH   1  20
ATOM     20  N   UNL     1       0.742  -0.565  -0.877  0.00  0.00    +0.388 N 
ATOM     21  H   UNL     1      -0.157  -0.285  -1.241  0.00  0.00    -0.081 HD
BRANCH  20  23
ATOM     22  C   UNL     1      -0.264  -0.791   1.345  0.00  0.00    -0.014 C 
ATOM     23  C   UNL     1       0.854  -0.143   0.526  0.00  0.00    -0.074 C 
ATOM     24  C   UNL     1       2.211  -0.579   1.082  0.00  0.00    -0.014 C 
ENDBRANCH  20  23
BRANCH  20  25
ATOM     25  C   UNL     1       1.808   0.068  -1.665  0.00  0.00    -0.043 C 
BRANCH  25  26
ATOM     26  C   UNL     1       1.573   1.579  -1.720  0.00  0.00    +0.135 C 
BRANCH  26  27
ATOM     27  O   UNL     1       0.319   1.844  -2.350  0.00  0.00    -0.390 OA
ATOM     28  H   UNL     1       0.256   1.513  -3.256  0.00  0.00    +0.210 HD
ENDBRANCH  26  27
BRANCH  26  29
ATOM     29  C   UNL     1       2.697   2.240  -2.521  0.00  0.00    +0.258 C 
BRANCH  29  30
ATOM     30  O   UNL     1       2.542   3.660  -2.474  0.00  0.00    -0.489 OA
BRANCH  30  31
ATOM     31  C   UNL     1       3.465   4.403  -3.140  0.00  0.00    +0.121 A 
ATOM     32  C   UNL     1       4.494   3.778  -3.829  0.00  0.00    +0.045 A 
ATOM     33  C   UNL     1       5.430   4.536  -4.506  0.00  0.00    +0.004 A 
ATOM     34  C   UNL     1       5.343   5.916  -4.496  0.00  0.00    +0.000 A 
ATOM     35  C   UNL     1       4.318   6.541  -3.809  0.00  0.00    +0.004 A 
ATOM     36  C   UNL     1       3.376   5.788  -3.136  0.00  0.00    +0.045 A 
ENDBRANCH  30  31
ENDBRANCH  29  30
ENDBRANCH  26  29
ENDBRANCH  25  26
ENDBRANCH  20  25
ENDBRANCH   1  20
TORSDOF 10
