REMARK  Name = ZINC11603429
REMARK  10 active torsions:
REMARK  status: ('A' for Active; 'I' for Inactive)
REMARK    1  A    between atoms: C_1  and  C_2
REMARK    2  A    between atoms: C_3  and  S_8
REMARK    3  A    between atoms: C_4  and  C_7
REMARK    4  A    between atoms: S_8  and  N_11
REMARK    5  A    between atoms: C_14  and  C_17
REMARK    6  A    between atoms: N_19  and  C_20
REMARK    7  A    between atoms: C_20  and  C_21
REMARK    8  A    between atoms: C_21  and  C_23
REMARK    9  A    between atoms: C_21  and  N_67
REMARK   10  A    between atoms: C_30  and  C_33
REMARK                            x       y       z     vdW  Elec       q    Type
REMARK                         _______ _______ _______ _____ _____    ______ ____
ROOT
ATOM      1  C   UNL     1      -4.443   7.849  -3.216  0.00  0.00    +0.216 C 
ATOM      2  O   UNL     1      -4.686   9.022  -3.023  0.00  0.00    -0.276 OA
ATOM      3  N   UNL     1      -4.162   7.416  -4.461  0.00  0.00    -0.316 N 
ATOM      4  H   UNL     1      -3.967   6.478  -4.615  0.00  0.00    +0.149 HD
ENDROOT
BRANCH   1   8
ATOM      5  N   UNL     1      -3.570   5.896   0.436  0.00  0.00    -0.176 NA
ATOM      6  C   UNL     1      -3.096   5.223  -0.781  0.00  0.00    +0.110 C 
ATOM      7  C   UNL     1      -3.074   6.231  -1.929  0.00  0.00    +0.030 C 
ATOM      8  C   UNL     1      -4.454   6.878  -2.064  0.00  0.00    +0.077 C 
ATOM      9  C   UNL     1      -4.799   7.622  -0.772  0.00  0.00    +0.030 C 
ATOM     10  C   UNL     1      -4.844   6.626   0.390  0.00  0.00    +0.110 C 
BRANCH   5  11
ATOM     11  S   UNL     1      -2.680   5.837   1.832  0.00  0.00    +0.066 S 
ATOM     12  O   UNL     1      -3.054   6.973   2.600  0.00  0.00    -0.153 OA
ATOM     13  O   UNL     1      -1.336   5.586   1.447  0.00  0.00    -0.153 OA
BRANCH  11  16
ATOM     14  C   UNL     1      -5.139   5.469   4.162  0.00  0.00    +0.071 C 
ATOM     15  C   UNL     1      -4.254   4.342   3.693  0.00  0.00    +0.107 A 
ATOM     16  C   UNL     1      -3.218   4.422   2.734  0.00  0.00    +0.170 A 
ATOM     17  C   UNL     1      -2.737   3.158   2.666  0.00  0.00    +0.161 A 
ATOM     18  O   UNL     1      -3.453   2.432   3.536  0.00  0.00    -0.358 OA
ATOM     19  N   UNL     1      -4.288   3.105   4.095  0.00  0.00    -0.081 NA
ATOM     20  C   UNL     1      -1.613   2.666   1.791  0.00  0.00    +0.091 C 
ENDBRANCH  11  16
ENDBRANCH   5  11
ENDBRANCH   1   8
BRANCH   3  21
ATOM     21  C   UNL     1      -4.151   8.360  -5.580  0.00  0.00    +0.094 C 
BRANCH  21  22
ATOM     22  C   UNL     1      -3.807   7.616  -6.872  0.00  0.00    -0.013 C 
BRANCH  22  29
ATOM     23  C   UNL     1      -6.130   6.935  -6.857  0.00  0.00    -0.078 C 
ATOM     24  C   UNL     1      -7.061   5.722  -6.914  0.00  0.00    -0.015 C 
ATOM     25  C   UNL     1      -6.913   5.035  -8.275  0.00  0.00    -0.018 C 
ATOM     26  C   UNL     1      -5.450   4.634  -8.479  0.00  0.00    -0.015 C 
ATOM     27  C   UNL     1      -4.566   5.879  -8.377  0.00  0.00    -0.078 C 
ATOM     28  C   UNL     1      -7.796   3.786  -8.315  0.00  0.00    +0.007 C 
ATOM     29  N   UNL     1      -4.735   6.479  -7.037  0.00  0.00    +0.386 N 
ATOM     30  H   UNL     1      -4.522   5.769  -6.325  0.00  0.00    -0.081 HD
ENDBRANCH  22  29
BRANCH  22  31
ATOM     31  C   UNL     1      -3.915   8.562  -8.041  0.00  0.00    -0.022 A 
ATOM     32  C   UNL     1      -2.927   9.107  -8.792  0.00  0.00    +0.009 A 
ATOM     33  C   UNL     1      -3.265   9.955  -9.830  0.00  0.00    +0.008 A 
ATOM     34  C   UNL     1      -4.574  10.226 -10.058  0.00  0.00    +0.045 A 
ATOM     35  S   UNL     1      -5.377   9.260  -8.790  0.00  0.00    -0.103 S 
ENDBRANCH  22  31
ENDBRANCH  21  22
ENDBRANCH   3  21
TORSDOF 7
