REMARK  Name = ZINC63330236
REMARK  10 active torsions:
REMARK  status: ('A' for Active; 'I' for Inactive)
REMARK    1  A    between atoms: C_1  and  C_2
REMARK    2  A    between atoms: C_2  and  C_3
REMARK    3  A    between atoms: C_2  and  C_4
REMARK    4  A    between atoms: C_2  and  C_5
REMARK    5  A    between atoms: C_8  and  C_11
REMARK    6  A    between atoms: C_11  and  N_12
REMARK    7  A    between atoms: N_12  and  C_13
REMARK    8  A    between atoms: N_16  and  C_17
REMARK    9  A    between atoms: C_20  and  C_23
REMARK   10  A    between atoms: N_25  and  C_26
REMARK                            x       y       z     vdW  Elec       q    Type
REMARK                         _______ _______ _______ _____ _____    ______ ____
ROOT
ATOM      1  N   UNL     1       2.520  -0.898  -5.833  0.00  0.00    -0.284 N 
ATOM      2  C   UNL     1       3.481   0.194  -6.012  0.00  0.00    +0.134 C 
ATOM      3  C   UNL     1       1.464  -1.009  -6.664  0.00  0.00    +0.302 C 
ATOM      4  O   UNL     1       0.667  -1.915  -6.516  0.00  0.00    -0.253 OA
ATOM      5  N   UNL     1       1.293  -0.116  -7.659  0.00  0.00    -0.296 N 
ATOM      6  H   UNL     1       1.929   0.607  -7.777  0.00  0.00    +0.151 HD
ENDROOT
BRANCH   5   7
ATOM      7  C   UNL     1       0.145  -0.237  -8.562  0.00  0.00    +0.074 C 
ATOM      8  C   UNL     1      -1.071   0.448  -7.935  0.00  0.00    +0.023 C 
ATOM      9  C   UNL     1      -0.760   1.927  -7.702  0.00  0.00    +0.014 C 
ATOM     10  C   UNL     1      -0.430   2.596  -9.038  0.00  0.00    +0.075 C 
ATOM     11  C   UNL     1       0.786   1.911  -9.664  0.00  0.00    +0.014 C 
ATOM     12  C   UNL     1       0.474   0.431  -9.898  0.00  0.00    +0.023 C 
BRANCH  10  13
ATOM     13  C   UNL     1      -0.123   4.053  -8.808  0.00  0.00    +0.216 C 
ATOM     14  O   UNL     1      -0.164   4.512  -7.686  0.00  0.00    -0.276 OA
ATOM     15  N   UNL     1       0.196   4.847  -9.849  0.00  0.00    -0.318 N 
ATOM     16  C   UNL     1       0.495   6.264  -9.626  0.00  0.00    +0.128 C 
ATOM     17  H   UNL     1       0.229   4.480 -10.747  0.00  0.00    +0.148 HD
ENDBRANCH  10  13
ENDBRANCH   5   7
BRANCH   1  18
ATOM     18  C   UNL     1       2.707  -1.868  -4.752  0.00  0.00    +0.144 C 
BRANCH  18  22
ATOM     19  C   UNL     1       0.707  -0.490  -1.238  0.00  0.00    -0.042 A 
ATOM     20  C   UNL     1       0.036  -1.284  -2.148  0.00  0.00    +0.004 A 
ATOM     21  C   UNL     1       0.683  -1.730  -3.286  0.00  0.00    +0.005 A 
ATOM     22  C   UNL     1       2.001  -1.381  -3.513  0.00  0.00    -0.030 A 
ATOM     23  C   UNL     1       2.672  -0.586  -2.603  0.00  0.00    +0.005 A 
ATOM     24  C   UNL     1       2.024  -0.137  -1.467  0.00  0.00    +0.004 A 
BRANCH  19  26
ATOM     25  C   UNL     1      -0.019   1.526   0.010  0.00  0.00    +0.015 C 
ATOM     26  C   UNL     1       0.002  -0.004   0.002  0.00  0.00    -0.013 C 
ATOM     27  C   UNL     1       0.742  -0.511   1.242  0.00  0.00    +0.015 C 
ATOM     28  C   UNL     1      -1.433  -0.534   0.013  0.00  0.00    +0.015 C 
ENDBRANCH  19  26
ENDBRANCH  18  22
ENDBRANCH   1  18
TORSDOF 5
