REMARK  Name = ZINC01413286
REMARK  11 active torsions:
REMARK  status: ('A' for Active; 'I' for Inactive)
REMARK    1  A    between atoms: C_1  and  C_2
REMARK    2  A    between atoms: C_5  and  C_8
REMARK    3  A    between atoms: C_10  and  C_28
REMARK    4  A    between atoms: N_14  and  C_15
REMARK    5  A    between atoms: C_15  and  C_16
REMARK    6  A    between atoms: C_16  and  C_17
REMARK    7  A    between atoms: C_20  and  O_25
REMARK    8  A    between atoms: C_21  and  O_23
REMARK    9  A    between atoms: O_23  and  C_24
REMARK   10  A    between atoms: O_25  and  C_26
REMARK   11  A    between atoms: C_28  and  C_30
REMARK                            x       y       z     vdW  Elec       q    Type
REMARK                         _______ _______ _______ _____ _____    ______ ____
ROOT
ATOM      1  C   UNL     1       0.054  -4.236  -0.019  0.00  0.00    +0.145 C 
ATOM      2  C   UNL     1      -1.282  -4.804   0.400  0.00  0.00    +0.076 C 
ATOM      3  C   UNL     1      -1.059  -5.549   1.508  0.00  0.00    +0.249 C 
ATOM      4  C   UNL     1       0.379  -5.500   1.845  0.00  0.00    +0.288 C 
ATOM      5  O   UNL     1       0.894  -6.069   2.787  0.00  0.00    -0.266 OA
ATOM      6  N   UNL     1       1.035  -4.733   0.953  0.00  0.00    -0.283 N 
ATOM      7  O   UNL     1      -2.003  -6.230   2.197  0.00  0.00    -0.282 OA
ENDROOT
BRANCH   1  12
ATOM      8  C   UNL     1      -0.118   1.539   0.103  0.00  0.00    +0.044 C 
ATOM      9  C   UNL     1      -0.073   0.033   0.071  0.00  0.00    -0.050 A 
ATOM     10  C   UNL     1       0.027  -0.630  -1.138  0.00  0.00    +0.004 A 
ATOM     11  C   UNL     1       0.068  -2.012  -1.167  0.00  0.00    +0.006 A 
ATOM     12  C   UNL     1       0.010  -2.730   0.013  0.00  0.00    -0.022 A 
ATOM     13  C   UNL     1      -0.089  -2.067   1.222  0.00  0.00    +0.006 A 
ATOM     14  C   UNL     1      -0.126  -0.685   1.251  0.00  0.00    +0.004 A 
ENDBRANCH   1  12
BRANCH   2  15
ATOM     15  C   UNL     1      -2.570  -4.589  -0.265  0.00  0.00    +0.195 C 
ATOM     16  O   UNL     1      -3.454  -3.975   0.303  0.00  0.00    -0.287 OA
BRANCH  15  17
ATOM     17  C   UNL     1      -2.797  -5.119  -1.627  0.00  0.00    +0.022 A 
ATOM     18  C   UNL     1      -1.833  -5.927  -2.234  0.00  0.00    +0.013 A 
ATOM     19  C   UNL     1      -2.050  -6.418  -3.504  0.00  0.00    +0.016 A 
ATOM     20  C   UNL     1      -3.220  -6.111  -4.178  0.00  0.00    +0.018 A 
ATOM     21  C   UNL     1      -4.180  -5.310  -3.581  0.00  0.00    +0.016 A 
ATOM     22  C   UNL     1      -3.978  -4.818  -2.309  0.00  0.00    +0.013 A 
ATOM     23 BR   UNL     1      -3.510  -6.788  -5.919  0.00  0.00    -0.050 Br
ENDBRANCH  15  17
ENDBRANCH   2  15
BRANCH   6  24
ATOM     24  C   UNL     1       2.471  -4.445   0.953  0.00  0.00    +0.114 C 
BRANCH  24  25
ATOM     25  C   UNL     1       2.739  -3.186   1.779  0.00  0.00    +0.054 C 
BRANCH  25  26
ATOM     26  C   UNL     1       4.217  -2.889   1.779  0.00  0.00    -0.042 A 
ATOM     27  C   UNL     1       5.029  -3.432   2.758  0.00  0.00    +0.007 A 
ATOM     28  C   UNL     1       6.385  -3.163   2.762  0.00  0.00    +0.049 A 
ATOM     29  C   UNL     1       6.933  -2.349   1.784  0.00  0.00    +0.161 A 
ATOM     30  C   UNL     1       6.116  -1.804   0.798  0.00  0.00    +0.162 A 
ATOM     31  C   UNL     1       4.758  -2.081   0.797  0.00  0.00    +0.053 A 
BRANCH  30  32
ATOM     32  O   UNL     1       6.649  -1.005  -0.164  0.00  0.00    -0.491 OA
ATOM     33  C   UNL     1       5.750  -0.480  -1.143  0.00  0.00    +0.277 C 
ENDBRANCH  30  32
BRANCH  29  34
ATOM     34  O   UNL     1       8.267  -2.084   1.786  0.00  0.00    -0.491 OA
ATOM     35  C   UNL     1       9.044  -2.677   2.828  0.00  0.00    +0.277 C 
ENDBRANCH  29  34
ENDBRANCH  25  26
ENDBRANCH  24  25
ENDBRANCH   6  24
TORSDOF 8
