REMARK  Name = ZINC35033726
REMARK  11 active torsions:
REMARK  status: ('A' for Active; 'I' for Inactive)
REMARK    1  A    between atoms: C_1  and  C_2
REMARK    2  A    between atoms: C_2  and  C_3
REMARK    3  A    between atoms: C_3  and  C_5
REMARK    4  A    between atoms: C_3  and  N_20
REMARK    5  A    between atoms: N_15  and  C_16
REMARK    6  A    between atoms: C_16  and  C_17
REMARK    7  A    between atoms: C_17  and  O_18
REMARK    8  A    between atoms: O_18  and  C_19
REMARK    9  A    between atoms: C_24  and  C_27
REMARK   10  A    between atoms: C_28  and  C_30
REMARK   11  A    between atoms: C_34  and  N_36
REMARK                            x       y       z     vdW  Elec       q    Type
REMARK                         _______ _______ _______ _____ _____    ______ ____
ROOT
ATOM      1  N   UNL     1       1.578   0.570  -2.114  0.00  0.00    +0.388 N 
ATOM      2  C   UNL     1       2.291   0.533  -3.397  0.00  0.00    -0.059 C 
ATOM      3  C   UNL     1       1.276   0.452  -4.542  0.00  0.00    +0.090 C 
ATOM      4  N   UNL     1       0.329   1.570  -4.405  0.00  0.00    -0.298 N 
ATOM      5  C   UNL     1      -0.310   1.781  -3.098  0.00  0.00    +0.057 C 
ATOM      6  C   UNL     1       0.780   1.799  -2.021  0.00  0.00    -0.055 C 
ATOM      7  C   UNL     1      -1.058   3.116  -3.101  0.00  0.00    +0.026 C 
ATOM      8  C   UNL     1       0.056   2.378  -5.449  0.00  0.00    +0.247 C 
ATOM      9  O   UNL     1      -0.643   3.359  -5.291  0.00  0.00    -0.270 OA
ATOM     10  H   UNL     1       0.969  -0.231  -2.046  0.00  0.00    -0.081 HD
ENDROOT
BRANCH   8  11
ATOM     11  C   UNL     1       0.606   2.070  -6.786  0.00  0.00    +0.039 A 
ATOM     12  C   UNL     1       0.904   0.751  -7.134  0.00  0.00    +0.014 A 
ATOM     13  C   UNL     1       1.418   0.470  -8.383  0.00  0.00    +0.023 A 
ATOM     14  C   UNL     1       1.638   1.493  -9.290  0.00  0.00    +0.071 A 
ATOM     15  C   UNL     1       1.345   2.803  -8.950  0.00  0.00    +0.145 A 
ATOM     16  C   UNL     1       0.825   3.096  -7.707  0.00  0.00    +0.047 A 
ATOM     17 CL   UNL     1       2.284   1.132 -10.860  0.00  0.00    -0.081 Cl
BRANCH  15  18
ATOM     18  N   UNL     1       1.583   3.891  -9.925  0.00  0.00    +0.058 N 
ATOM     19  O   UNL     1       1.328   5.035  -9.630  0.00  0.00    -0.126 OA
ATOM     20  O   UNL     1       2.034   3.635 -11.018  0.00  0.00    -0.126 OA
ENDBRANCH  15  18
ENDBRANCH   8  11
BRANCH   1  21
ATOM     21  C   UNL     1       2.552   0.537  -1.014  0.00  0.00    -0.001 C 
BRANCH  21  22
ATOM     22  C   UNL     1       3.348  -0.741  -1.086  0.00  0.00    +0.099 A 
ATOM     23  N   UNL     1       2.731  -1.863  -0.875  0.00  0.00    -0.235 NA
ATOM     24  C   UNL     1       3.382  -3.053  -0.924  0.00  0.00    +0.078 A 
ATOM     25  C   UNL     1       2.719  -4.261  -0.698  0.00  0.00    +0.028 A 
ATOM     26  C   UNL     1       3.419  -5.444  -0.757  0.00  0.00    +0.002 A 
ATOM     27  C   UNL     1       4.779  -5.453  -1.040  0.00  0.00    +0.001 A 
ATOM     28  C   UNL     1       5.455  -4.274  -1.267  0.00  0.00    +0.015 A 
ATOM     29  C   UNL     1       4.765  -3.065  -1.212  0.00  0.00    +0.065 A 
ATOM     30  C   UNL     1       5.433  -1.776  -1.446  0.00  0.00    +0.262 A 
ATOM     31  O   UNL     1       6.622  -1.718  -1.698  0.00  0.00    -0.267 OA
ATOM     32  N   UNL     1       4.673  -0.659  -1.375  0.00  0.00    -0.295 N 
BRANCH  32  33
ATOM     33  C   UNL     1       5.286   0.652  -1.605  0.00  0.00    +0.154 C 
BRANCH  33  34
ATOM     34  C   UNL     1       5.810   1.210  -0.280  0.00  0.00    +0.181 C 
BRANCH  34  35
ATOM     35  O   UNL     1       6.862   0.373   0.206  0.00  0.00    -0.381 OA
ATOM     36  C   UNL     1       7.425   0.808   1.445  0.00  0.00    +0.194 C 
ENDBRANCH  34  35
ENDBRANCH  33  34
ENDBRANCH  32  33
ENDBRANCH  21  22
BRANCH  21  38
ATOM     37  C   UNL     1       2.827   0.588   1.469  0.00  0.00    +0.002 C 
ATOM     38  C   UNL     1       1.812   0.602   0.324  0.00  0.00    -0.011 C 
ENDBRANCH  21  38
ENDBRANCH   1  21
TORSDOF 8
