REMARK  Name = ZINC28117664
REMARK  4 active torsions:
REMARK  status: ('A' for Active; 'I' for Inactive)
REMARK    1  A    between atoms: C_8  and  S_10
REMARK    2  A    between atoms: S_10  and  C_11
REMARK    3  A    between atoms: N_14  and  S_15
REMARK    4  A    between atoms: S_15  and  C_18
REMARK                            x       y       z     vdW  Elec       q    Type
REMARK                         _______ _______ _______ _____ _____    ______ ____
ROOT
ATOM      1  C   UNL     1       2.412   1.629   0.095  0.00  0.00    +0.063 C 
ATOM      2  C   UNL     1       2.219   0.292   0.185  0.00  0.00    +0.048 C 
ATOM      3  C   UNL     1       0.857  -0.245   0.284  0.00  0.00    +0.087 C 
ATOM      4  N   UNL     1       0.667  -1.536   0.371  0.00  0.00    -0.129 NA
ATOM      5  C   UNL     1      -0.300   0.673   0.286  0.00  0.00    +0.033 C 
ATOM      6  C   UNL     1      -0.108   1.999   0.196  0.00  0.00    +0.054 C 
ATOM      7  C   UNL     1       1.252   2.541   0.097  0.00  0.00    +0.193 C 
ATOM      8  O   UNL     1       1.423   3.743   0.015  0.00  0.00    -0.287 OA
ENDROOT
BRANCH   4   9
ATOM      9  S   UNL     1      -0.870  -2.142   0.482  0.00  0.00    +0.100 S 
ATOM     10  O   UNL     1      -1.389  -1.704   1.731  0.00  0.00    -0.146 OA
ATOM     11  O   UNL     1      -1.511  -1.853  -0.753  0.00  0.00    -0.146 OA
BRANCH   9  12
ATOM     12  C   UNL     1      -0.733  -3.896   0.581  0.00  0.00    +0.120 A 
ATOM     13  C   UNL     1      -1.121  -4.566   1.709  0.00  0.00    +0.031 A 
ATOM     14  C   UNL     1      -1.036  -5.951   1.843  0.00  0.00    +0.026 A 
ATOM     15  C   UNL     1      -0.539  -6.716   0.805  0.00  0.00    +0.042 A 
ATOM     16  C   UNL     1      -0.148  -6.022  -0.336  0.00  0.00    +0.017 A 
ATOM     17  C   UNL     1      -0.228  -4.638  -0.499  0.00  0.00    +0.011 A 
ATOM     18  C   UNL     1       0.208  -4.111  -1.727  0.00  0.00    +0.010 A 
ATOM     19  C   UNL     1       0.676  -4.967  -2.687  0.00  0.00    +0.001 A 
ATOM     20  C   UNL     1       0.744  -6.348  -2.510  0.00  0.00    +0.014 A 
ATOM     21  C   UNL     1       0.335  -6.907  -1.311  0.00  0.00    +0.047 A 
ATOM     22  C   UNL     1       0.217  -8.230  -0.688  0.00  0.00    +0.249 C 
ATOM     23  O   UNL     1       0.530  -9.291  -1.196  0.00  0.00    -0.270 OA
ATOM     24  N   UNL     1      -0.302  -8.063   0.557  0.00  0.00    -0.281 N 
ATOM     25  H   UNL     1      -0.537  -8.813   1.327  0.00  0.00    +0.155 HD
ENDBRANCH   9  12
ENDBRANCH   4   9
BRANCH   1  26
ATOM     26  S   UNL     1       4.046   2.279  -0.025  0.00  0.00    -0.059 S 
BRANCH  26  34
ATOM     27  C   UNL     1       2.413   4.080  -5.990  0.00  0.00    +0.002 A 
ATOM     28  C   UNL     1       3.610   4.746  -6.214  0.00  0.00    +0.001 A 
ATOM     29  C   UNL     1       4.568   4.772  -5.218  0.00  0.00    +0.017 A 
ATOM     30  C   UNL     1       4.322   4.140  -4.024  0.00  0.00    +0.040 A 
ATOM     31  C   UNL     1       3.116   3.452  -3.760  0.00  0.00    +0.079 A 
ATOM     32  C   UNL     1       2.159   3.446  -4.802  0.00  0.00    +0.029 A 
ATOM     33  N   UNL     1       3.025   2.875  -2.543  0.00  0.00    -0.232 NA
ATOM     34  C   UNL     1       3.988   2.954  -1.651  0.00  0.00    +0.140 A 
ATOM     35  S   UNL     1       5.226   3.915  -2.511  0.00  0.00    -0.061 S 
ENDBRANCH  26  34
ENDBRANCH   1  26
TORSDOF 4
