REMARK  Name = ZINC14972099
REMARK  8 active torsions:
REMARK  status: ('A' for Active; 'I' for Inactive)
REMARK    1  A    between atoms: C_5  and  C_7
REMARK    2  A    between atoms: C_7  and  C_8
REMARK    3  A    between atoms: C_8  and  N_9
REMARK    4  A    between atoms: C_10  and  C_12
REMARK    5  A    between atoms: C_16  and  C_21
REMARK    6  A    between atoms: C_21  and  O_34
REMARK    7  A    between atoms: C_26  and  C_27
REMARK    8  A    between atoms: C_26  and  N_64
REMARK                            x       y       z     vdW  Elec       q    Type
REMARK                         _______ _______ _______ _____ _____    ______ ____
ROOT
ATOM      1  C   UNL     1       1.061   1.907   0.002  0.00  0.00    +0.190 A 
ATOM      2  C   UNL     1      -0.013   1.076   0.008  0.00  0.00    +0.063 A 
ATOM      3  C   UNL     1      -1.193   1.939   0.018  0.00  0.00    +0.021 A 
ATOM      4  C   UNL     1      -2.570   1.706   0.036  0.00  0.00    +0.018 A 
ATOM      5  C   UNL     1      -3.436   2.762   0.051  0.00  0.00    -0.015 A 
ATOM      6  C   UNL     1      -2.956   4.065   0.053  0.00  0.00    +0.010 A 
ATOM      7  C   UNL     1      -1.602   4.317   0.041  0.00  0.00    +0.047 A 
ATOM      8  C   UNL     1      -0.701   3.258   0.026  0.00  0.00    +0.136 A 
ATOM      9  O   UNL     1       0.644   3.190   0.013  0.00  0.00    -0.450 OA
ENDROOT
BRANCH   5  10
ATOM     10  C   UNL     1      -4.922   2.512   0.063  0.00  0.00    +0.088 C 
ATOM     11  C   UNL     1      -5.441   2.438  -1.375  0.00  0.00    +0.021 C 
ATOM     12  C   UNL     1      -6.959   2.246  -1.356  0.00  0.00    -0.075 C 
ATOM     13  C   UNL     1      -7.140   3.428   0.752  0.00  0.00    -0.075 C 
ATOM     14  C   UNL     1      -5.628   3.657   0.795  0.00  0.00    +0.021 C 
ATOM     15  N   UNL     1      -7.580   3.393  -0.659  0.00  0.00    +0.383 N 
ATOM     16  H   UNL     1      -7.287   4.261  -1.122  0.00  0.00    -0.081 HD
BRANCH  10  17
ATOM     17  O   UNL     1      -5.193   1.279   0.733  0.00  0.00    -0.384 OA
ATOM     18  H   UNL     1      -4.778   0.508   0.321  0.00  0.00    +0.211 HD
ENDBRANCH  10  17
BRANCH  15  19
ATOM     19  C   UNL     1      -9.052   3.287  -0.727  0.00  0.00    -0.043 C 
BRANCH  19  20
ATOM     20  C   UNL     1      -9.487   3.473  -2.157  0.00  0.00    -0.064 A 
ATOM     21  C   UNL     1      -9.767   4.740  -2.635  0.00  0.00    +0.004 A 
ATOM     22  C   UNL     1     -10.161   4.912  -3.949  0.00  0.00    +0.038 A 
ATOM     23  C   UNL     1     -10.286   3.814  -4.783  0.00  0.00    +0.123 A 
ATOM     24  C   UNL     1     -10.011   2.545  -4.301  0.00  0.00    +0.038 A 
ATOM     25  C   UNL     1      -9.612   2.376  -2.989  0.00  0.00    +0.004 A 
ATOM     26  F   UNL     1     -10.676   3.980  -6.066  0.00  0.00    -0.205 F 
ENDBRANCH  19  20
ENDBRANCH  15  19
ENDBRANCH   5  10
BRANCH   1  28
ATOM     27  N   UNL     1       3.454   2.391  -0.019  0.00  0.00    -0.309 N 
ATOM     28  C   UNL     1       2.466   1.474  -0.014  0.00  0.00    +0.279 C 
ATOM     29  O   UNL     1       2.737   0.288  -0.024  0.00  0.00    -0.267 OA
ATOM     30  H   UNL     1       3.238   3.337  -0.011  0.00  0.00    +0.149 HD
BRANCH  27  31
ATOM     31  C   UNL     1       4.854   1.960  -0.035  0.00  0.00    +0.109 C 
BRANCH  31  32
ATOM     32  C   UNL     1       5.766   3.188  -0.037  0.00  0.00    +0.057 C 
BRANCH  32  37
ATOM     33  C   UNL     1       9.230   2.226   1.116  0.00  0.00    +0.000 A 
ATOM     34  C   UNL     1       9.849   1.929  -0.085  0.00  0.00    +0.003 A 
ATOM     35  C   UNL     1       9.148   2.040  -1.270  0.00  0.00    +0.038 A 
ATOM     36  C   UNL     1       7.825   2.447  -1.256  0.00  0.00    +0.127 A 
ATOM     37  C   UNL     1       7.206   2.744  -0.054  0.00  0.00    -0.011 A 
ATOM     38  C   UNL     1       7.911   2.639   1.130  0.00  0.00    +0.006 A 
ATOM     39  F   UNL     1       7.139   2.556  -2.415  0.00  0.00    -0.205 F 
ENDBRANCH  32  37
ENDBRANCH  31  32
ENDBRANCH  27  31
ENDBRANCH   1  28
TORSDOF 8
