REMARK  Name = ZINC00752709
REMARK  5 active torsions:
REMARK  status: ('A' for Active; 'I' for Inactive)
REMARK    1  A    between atoms: C_1  and  C_2
REMARK    2  A    between atoms: C_2  and  C_31
REMARK    3  A    between atoms: C_8  and  N_17
REMARK    4  A    between atoms: N_17  and  S_18
REMARK    5  A    between atoms: S_18  and  C_21
REMARK                            x       y       z     vdW  Elec       q    Type
REMARK                         _______ _______ _______ _____ _____    ______ ____
ROOT
ATOM      1  C   UNL     1       0.989   7.409   2.745  0.00  0.00    +0.012 C 
ATOM      2  C   UNL     1       0.487   7.685   1.326  0.00  0.00    -0.021 C 
ATOM      3  C   UNL     1      -0.406   6.527   0.872  0.00  0.00    +0.082 C 
ATOM      4  C   UNL     1       0.434   5.283   0.707  0.00  0.00    +0.117 A 
ATOM      5  C   UNL     1       1.796   5.326   0.535  0.00  0.00    +0.066 A 
ATOM      6  C   UNL     1       2.247   3.939   0.416  0.00  0.00    +0.033 A 
ATOM      7  C   UNL     1       3.495   3.324   0.232  0.00  0.00    +0.037 A 
ATOM      8  C   UNL     1       3.601   1.968   0.152  0.00  0.00    +0.057 A 
ATOM      9  C   UNL     1       2.444   1.161   0.255  0.00  0.00    +0.008 A 
ATOM     10  C   UNL     1       2.531  -0.237   0.172  0.00  0.00    +0.010 A 
ATOM     11  C   UNL     1       1.401  -0.992   0.274  0.00  0.00    +0.001 A 
ATOM     12  C   UNL     1       0.157  -0.396   0.460  0.00  0.00    +0.001 A 
ATOM     13  C   UNL     1       0.036   0.958   0.545  0.00  0.00    +0.012 A 
ATOM     14  C   UNL     1       1.179   1.766   0.444  0.00  0.00    +0.027 A 
ATOM     15  C   UNL     1       1.085   3.172   0.525  0.00  0.00    +0.144 A 
ATOM     16  O   UNL     1       0.040   4.012   0.697  0.00  0.00    -0.458 OA
ATOM     17  C   UNL     1       2.541   6.586   0.494  0.00  0.00    +0.168 C 
ATOM     18  O   UNL     1       3.753   6.626   0.541  0.00  0.00    -0.292 OA
ATOM     19  C   UNL     1       1.688   7.841   0.387  0.00  0.00    +0.086 C 
ATOM     20  C   UNL     1      -0.328   8.980   1.323  0.00  0.00    +0.012 C 
ENDROOT
BRANCH   8  21
ATOM     21  N   UNL     1       4.851   1.376  -0.031  0.00  0.00    -0.216 N 
ATOM     22  H   UNL     1       4.934   0.576  -0.573  0.00  0.00    +0.174 HD
BRANCH  21  23
ATOM     23  S   UNL     1       6.194   2.038   0.677  0.00  0.00    +0.072 S 
ATOM     24  O   UNL     1       7.269   1.145   0.423  0.00  0.00    -0.150 OA
ATOM     25  O   UNL     1       6.228   3.404   0.285  0.00  0.00    -0.150 OA
BRANCH  23  26
ATOM     26  C   UNL     1       5.925   2.022   2.419  0.00  0.00    +0.109 A 
ATOM     27  C   UNL     1       5.325   3.103   3.036  0.00  0.00    +0.030 A 
ATOM     28  C   UNL     1       5.110   3.088   4.401  0.00  0.00    +0.017 A 
ATOM     29  C   UNL     1       5.506   1.996   5.152  0.00  0.00    +0.018 A 
ATOM     30  C   UNL     1       6.112   0.916   4.535  0.00  0.00    +0.017 A 
ATOM     31  C   UNL     1       6.321   0.929   3.168  0.00  0.00    +0.030 A 
ATOM     32 BR   UNL     1       5.218   1.977   7.021  0.00  0.00    -0.050 Br
ENDBRANCH  23  26
ENDBRANCH  21  23
ENDBRANCH   8  21
TORSDOF 3
