REMARK  Name = ZINC25709612
REMARK  9 active torsions:
REMARK  status: ('A' for Active; 'I' for Inactive)
REMARK    1  A    between atoms: C_1  and  C_2
REMARK    2  A    between atoms: C_2  and  C_3
REMARK    3  A    between atoms: C_2  and  C_4
REMARK    4  A    between atoms: C_4  and  C_6
REMARK    5  A    between atoms: C_4  and  N_22
REMARK    6  A    between atoms: N_8  and  C_9
REMARK    7  A    between atoms: C_13  and  C_15
REMARK    8  A    between atoms: C_16  and  C_17
REMARK    9  A    between atoms: N_25  and  C_26
REMARK                            x       y       z     vdW  Elec       q    Type
REMARK                         _______ _______ _______ _____ _____    ______ ____
ROOT
ATOM      1  C   UNL     1       2.611   5.891   0.078  0.00  0.00    +0.238 C 
ATOM      2  O   UNL     1       1.701   6.692   0.032  0.00  0.00    -0.273 OA
ATOM      3  N   UNL     1       3.802   6.253   0.594  0.00  0.00    -0.284 N 
ATOM      4  H   UNL     1       4.660   5.567   0.534  0.00  0.00    +0.155 HD
ENDROOT
BRANCH   3   5
ATOM      5  C   UNL     1       3.948   7.503   1.208  0.00  0.00    +0.035 A 
ATOM      6  C   UNL     1       2.873   8.079   1.875  0.00  0.00    +0.023 A 
ATOM      7  C   UNL     1       3.013   9.311   2.487  0.00  0.00    +0.003 A 
ATOM      8  C   UNL     1       4.216   9.982   2.431  0.00  0.00    +0.017 A 
ATOM      9  C   UNL     1       5.303   9.414   1.759  0.00  0.00    +0.027 A 
ATOM     10  C   UNL     1       5.162   8.167   1.145  0.00  0.00    +0.040 A 
BRANCH   9  11
ATOM     11  C   UNL     1       6.554  10.108   1.698  0.00  0.00    -0.060 C 
ATOM     12  C   UNL     1       7.579  10.678   1.649  0.00  0.00    -0.054 C 
BRANCH  12  13
ATOM     13  C   UNL     1       8.830  11.372   1.589  0.00  0.00    +0.062 A 
ATOM     14  C   UNL     1       9.173  12.602   2.124  0.00  0.00    +0.024 A 
ATOM     15  C   UNL     1      10.454  13.065   1.931  0.00  0.00    +0.009 A 
ATOM     16  C   UNL     1      11.335  12.307   1.228  0.00  0.00    +0.046 A 
ATOM     17  S   UNL     1      10.358  10.873   0.810  0.00  0.00    -0.088 S 
ENDBRANCH  12  13
ENDBRANCH   9  11
ENDBRANCH   3   5
BRANCH   1  18
ATOM     18  C   UNL     1       2.410   4.491  -0.443  0.00  0.00    +0.163 C 
BRANCH  18  19
ATOM     19  N   UNL     1       0.985   4.264  -0.693  0.00  0.00    -0.288 N 
ATOM     20  C   UNL     1       0.488   3.011  -0.670  0.00  0.00    +0.304 C 
ATOM     21  O   UNL     1       1.223   2.070  -0.442  0.00  0.00    -0.252 OA
ATOM     22  N   UNL     1      -0.823   2.801  -0.900  0.00  0.00    -0.269 N 
ATOM     23  H   UNL     1       0.320   5.115  -0.900  0.00  0.00    +0.151 HD
ATOM     24  H   UNL     1      -1.474   3.644  -1.178  0.00  0.00    +0.156 HD
BRANCH  22  25
ATOM     25  C   UNL     1      -1.357   1.513  -0.786  0.00  0.00    +0.035 A 
ATOM     26  C   UNL     1      -0.603   0.411  -1.168  0.00  0.00    +0.023 A 
ATOM     27  C   UNL     1      -1.130  -0.860  -1.049  0.00  0.00    +0.002 A 
ATOM     28  C   UNL     1      -2.412  -1.035  -0.560  0.00  0.00    +0.000 A 
ATOM     29  C   UNL     1      -3.167   0.060  -0.184  0.00  0.00    +0.002 A 
ATOM     30  C   UNL     1      -2.643   1.333  -0.295  0.00  0.00    +0.023 A 
ENDBRANCH  22  25
ENDBRANCH  18  19
BRANCH  18  32
ATOM     31  C   UNL     1       3.095   2.858  -2.205  0.00  0.00    +0.009 C 
ATOM     32  C   UNL     1       3.191   4.315  -1.747  0.00  0.00    +0.012 C 
ATOM     33  C   UNL     1       2.601   5.229  -2.822  0.00  0.00    +0.009 C 
ENDBRANCH  18  32
ENDBRANCH   1  18
TORSDOF 7
