REMARK  Name = ZINC09316603
REMARK  4 active torsions:
REMARK  status: ('A' for Active; 'I' for Inactive)
REMARK    1  A    between atoms: C_3  and  C_10
REMARK    2  A    between atoms: C_5  and  N_7
REMARK    3  A    between atoms: C_18  and  C_20
REMARK    4  A    between atoms: C_20  and  C_22
REMARK                            x       y       z     vdW  Elec       q    Type
REMARK                         _______ _______ _______ _____ _____    ______ ____
ROOT
ATOM      1  C   UNL     1       3.576   2.178   0.801  0.00  0.00    +0.016 C 
ATOM      2  C   UNL     1       3.385   1.980  -0.707  0.00  0.00    -0.047 C 
ATOM      3  C   UNL     1       4.359   0.922  -1.251  0.00  0.00    +0.052 C 
ATOM      4  S   UNL     1       3.199  -0.310  -1.984  0.00  0.00    -0.181 S 
ATOM      5  C   UNL     1       1.677   0.247  -1.100  0.00  0.00    -0.005 C 
ATOM      6  C   UNL     1       1.222   2.212   0.205  0.00  0.00    +0.052 C 
ATOM      7  C   UNL     1       2.161   2.068   1.409  0.00  0.00    +0.069 C 
ATOM      8  C   UNL     1       0.792   3.638   0.011  0.00  0.00    -0.024 A 
ATOM      9  C   UNL     1       1.476   4.811  -0.221  0.00  0.00    +0.043 A 
ATOM     10  C   UNL     1       0.782   6.002  -0.362  0.00  0.00    +0.124 A 
ATOM     11  C   UNL     1      -0.599   6.008  -0.269  0.00  0.00    +0.040 A 
ATOM     12  C   UNL     1      -1.287   4.835  -0.037  0.00  0.00    +0.026 A 
ATOM     13  C   UNL     1      -0.596   3.634   0.106  0.00  0.00    +0.036 A 
ATOM     14  N   UNL     1      -1.061   2.336   0.336  0.00  0.00    -0.286 N 
ATOM     15  C   UNL     1      -0.055   1.444   0.414  0.00  0.00    +0.212 C 
ATOM     16  O   UNL     1      -0.159   0.251   0.608  0.00  0.00    -0.277 OA
ATOM     17  F   UNL     1       1.452   7.153  -0.589  0.00  0.00    -0.205 F 
ATOM     18  H   UNL     1      -1.998   2.105   0.432  0.00  0.00    +0.155 HD
ATOM     19  N   UNL     1       1.954   1.720  -0.944  0.00  0.00    +0.401 N 
ATOM     20  H   UNL     1       1.653   2.213  -1.792  0.00  0.00    -0.078 HD
ENDROOT
BRANCH   1  23
ATOM     21  C   UNL     1       4.835  -1.187   1.963  0.00  0.00    +0.002 A 
ATOM     22  C   UNL     1       4.013  -0.199   1.453  0.00  0.00    +0.004 A 
ATOM     23  C   UNL     1       4.471   1.102   1.361  0.00  0.00    -0.043 A 
ATOM     24  C   UNL     1       5.747   1.418   1.789  0.00  0.00    +0.036 A 
ATOM     25  C   UNL     1       6.567   0.431   2.304  0.00  0.00    +0.126 A 
ATOM     26  C   UNL     1       6.111  -0.871   2.390  0.00  0.00    +0.033 A 
BRANCH  25  27
ATOM     27  N   UNL     1       7.934   0.769   2.761  0.00  0.00    +0.056 N 
ATOM     28  O   UNL     1       8.335   1.917   2.684  0.00  0.00    -0.126 OA
ATOM     29  O   UNL     1       8.656  -0.100   3.214  0.00  0.00    -0.126 OA
ENDBRANCH  25  27
ENDBRANCH   1  23
BRANCH   7  30
ATOM     30  C   UNL     1       1.924   3.179   2.398  0.00  0.00    +0.168 C 
ATOM     31  O   UNL     1       2.559   4.209   2.316  0.00  0.00    -0.292 OA
BRANCH  30  32
ATOM     32  C   UNL     1       0.923   3.015   3.464  0.00  0.00    +0.036 A 
ATOM     33  C   UNL     1       0.693   4.042   4.392  0.00  0.00    +0.014 A 
ATOM     34  C   UNL     1      -0.259   3.836   5.374  0.00  0.00    +0.020 A 
ATOM     35  C   UNL     1      -0.947   2.635   5.410  0.00  0.00    +0.111 A 
ATOM     36  N   UNL     1      -0.710   1.686   4.525  0.00  0.00    -0.263 NA
ATOM     37  C   UNL     1       0.181   1.835   3.567  0.00  0.00    +0.122 A 
ENDBRANCH  30  32
ENDBRANCH   7  30
TORSDOF 4
