REMARK  Name = ZINC63165349
REMARK  9 active torsions:
REMARK  status: ('A' for Active; 'I' for Inactive)
REMARK    1  A    between atoms: C_1  and  C_2
REMARK    2  A    between atoms: C_5  and  O_8
REMARK    3  A    between atoms: O_8  and  C_9
REMARK    4  A    between atoms: C_9  and  C_10
REMARK    5  A    between atoms: C_14  and  S_23
REMARK    6  A    between atoms: N_16  and  C_17
REMARK    7  A    between atoms: C_17  and  C_18
REMARK    8  A    between atoms: S_23  and  C_24
REMARK    9  A    between atoms: C_24  and  C_25
REMARK                            x       y       z     vdW  Elec       q    Type
REMARK                         _______ _______ _______ _____ _____    ______ ____
ROOT
ATOM      1  C   UNL     1       0.179  -6.276   0.808  0.00  0.00    +0.179 C 
ATOM      2  N   UNL     1       1.142  -6.786  -0.196  0.00  0.00    -0.234 NA
ATOM      3  N   UNL     1       0.466  -7.946  -0.797  0.00  0.00    -0.229 NA
ATOM      4  C   UNL     1      -0.953  -7.509  -0.868  0.00  0.00    +0.200 C 
ATOM      5  N   UNL     1      -1.158  -6.736   0.381  0.00  0.00    -0.251 NA
ATOM      6  H   UNL     1       1.343  -6.084  -0.892  0.00  0.00    +0.142 HD
ATOM      7  H   UNL     1       0.564  -8.764  -0.213  0.00  0.00    +0.143 HD
ENDROOT
BRANCH   1   8
ATOM      8  C   UNL     1       0.221  -4.747   0.845  0.00  0.00    +0.265 C 
BRANCH   8   9
ATOM      9  O   UNL     1       1.490  -4.317   1.342  0.00  0.00    -0.489 OA
BRANCH   9  14
ATOM     10  C   UNL     1       2.331   1.238   1.742  0.00  0.00    +0.044 C 
ATOM     11  C   UNL     1       2.106  -0.249   1.636  0.00  0.00    -0.050 A 
ATOM     12  C   UNL     1       3.106  -1.127   2.012  0.00  0.00    +0.007 A 
ATOM     13  C   UNL     1       2.902  -2.490   1.914  0.00  0.00    +0.046 A 
ATOM     14  C   UNL     1       1.693  -2.977   1.439  0.00  0.00    +0.121 A 
ATOM     15  C   UNL     1       0.691  -2.094   1.063  0.00  0.00    +0.046 A 
ATOM     16  C   UNL     1       0.898  -0.732   1.167  0.00  0.00    +0.007 A 
ENDBRANCH   9  14
ENDBRANCH   8   9
ENDBRANCH   1   8
BRANCH   5  17
ATOM     17  C   UNL     1      -2.059  -5.598   0.153  0.00  0.00    +0.162 C 
BRANCH  17  18
ATOM     18  C   UNL     1      -3.440  -6.106  -0.170  0.00  0.00    +0.119 A 
ATOM     19  C   UNL     1      -4.415  -6.355   0.722  0.00  0.00    +0.046 A 
ATOM     20  C   UNL     1      -5.534  -6.813  -0.011  0.00  0.00    +0.041 A 
ATOM     21  C   UNL     1      -5.175  -6.818  -1.308  0.00  0.00    +0.195 A 
ATOM     22  O   UNL     1      -3.907  -6.383  -1.398  0.00  0.00    -0.467 OA
ENDBRANCH  17  18
ENDBRANCH   5  17
BRANCH   4  23
ATOM     23  S   UNL     1      -2.059  -8.946  -0.916  0.00  0.00    -0.121 S 
BRANCH  23  24
ATOM     24  C   UNL     1      -1.672  -9.849   0.609  0.00  0.00    +0.118 C 
BRANCH  24  25
ATOM     25  C   UNL     1      -2.546 -11.102   0.696  0.00  0.00    +0.184 C 
ATOM     26  N   UNL     1      -2.346 -11.939  -0.494  0.00  0.00    -0.363 N 
ATOM     27  C   UNL     1      -3.495 -12.039  -1.099  0.00  0.00    +0.060 A 
ATOM     28  C   UNL     1      -3.923 -12.733  -2.321  0.00  0.00    +0.027 A 
ATOM     29  C   UNL     1      -5.211 -12.657  -2.712  0.00  0.00    +0.002 A 
ATOM     30  C   UNL     1      -6.179 -11.931  -1.996  0.00  0.00    +0.002 A 
ATOM     31  C   UNL     1      -5.893 -11.258  -0.864  0.00  0.00    +0.027 A 
ATOM     32  C   UNL     1      -4.520 -11.271  -0.340  0.00  0.00    +0.060 A 
ATOM     33  N   UNL     1      -3.966 -10.726   0.704  0.00  0.00    -0.363 N 
ATOM     34  H   UNL     1      -1.511 -12.343  -0.777  0.00  0.00    +0.162 HD
ATOM     35  H   UNL     1      -4.410 -10.174   1.367  0.00  0.00    +0.162 HD
ENDBRANCH  24  25
ENDBRANCH  23  24
ENDBRANCH   4  23
TORSDOF 8
