REMARK  Name = ZINC30955833
REMARK  8 active torsions:
REMARK  status: ('A' for Active; 'I' for Inactive)
REMARK    1  A    between atoms: C_1  and  C_2
REMARK    2  A    between atoms: C_8  and  N_15
REMARK    3  A    between atoms: C_11  and  C_13
REMARK    4  A    between atoms: C_11  and  C_14
REMARK    5  A    between atoms: C_16  and  C_18
REMARK    6  A    between atoms: N_21  and  C_24
REMARK    7  A    between atoms: C_24  and  C_25
REMARK    8  A    between atoms: C_27  and  C_30
REMARK                            x       y       z     vdW  Elec       q    Type
REMARK                         _______ _______ _______ _____ _____    ______ ____
ROOT
ATOM      1  C   UNL     1       0.395   0.985   4.865  0.00  0.00    +0.071 C 
ATOM      2  C   UNL     1       1.173  -0.322   4.689  0.00  0.00    -0.006 C 
ATOM      3  C   UNL     1       2.000  -0.591   5.947  0.00  0.00    -0.077 C 
ATOM      4  N   UNL     1       1.109  -0.684   7.111  0.00  0.00    +0.386 N 
ATOM      5  C   UNL     1       0.386   0.576   7.328  0.00  0.00    -0.077 C 
ATOM      6  C   UNL     1      -0.490   0.880   6.110  0.00  0.00    -0.006 C 
ATOM      7  H   UNL     1       0.364  -1.466   6.900  0.00  0.00    -0.081 HD
ENDROOT
BRANCH   1   9
ATOM      8  N   UNL     1       0.098   1.352   2.437  0.00  0.00    -0.308 N 
ATOM      9  C   UNL     1      -0.468   1.225   3.653  0.00  0.00    +0.216 C 
ATOM     10  O   UNL     1      -1.672   1.304   3.772  0.00  0.00    -0.276 OA
ATOM     11  H   UNL     1       1.191   1.280   2.329  0.00  0.00    +0.149 HD
BRANCH   8  19
ATOM     12  C   UNL     1      -1.935   5.918   3.426  0.00  0.00    +0.044 C 
ATOM     13  C   UNL     1      -1.601   5.136   2.181  0.00  0.00    -0.050 A 
ATOM     14  C   UNL     1      -1.566   5.772   0.954  0.00  0.00    +0.007 A 
ATOM     15  C   UNL     1      -1.259   5.056  -0.185  0.00  0.00    +0.046 A 
ATOM     16  C   UNL     1      -0.983   3.695  -0.103  0.00  0.00    +0.126 A 
ATOM     17  C   UNL     1      -1.022   3.061   1.126  0.00  0.00    +0.015 A 
ATOM     18  C   UNL     1      -1.330   3.785   2.266  0.00  0.00    +0.012 A 
ATOM     19  C   UNL     1      -0.741   1.585   1.259  0.00  0.00    +0.110 C 
ATOM     20  C   UNL     1      -0.013   1.086   0.008  0.00  0.00    +0.074 C 
ATOM     21  C   UNL     1      -0.766   1.600  -1.226  0.00  0.00    +0.107 C 
ATOM     22  O   UNL     1      -0.680   3.025  -1.245  0.00  0.00    -0.486 OA
ATOM     23  C   UNL     1      -0.128   1.028  -2.494  0.00  0.00    +0.055 C 
ATOM     24  C   UNL     1      -2.233   1.173  -1.149  0.00  0.00    +0.055 C 
ENDBRANCH   8  19
ENDBRANCH   1   9
BRANCH   4  25
ATOM     25  C   UNL     1       1.853  -1.079   8.314  0.00  0.00    +0.022 C 
BRANCH  25  26
ATOM     26  C   UNL     1       2.376  -2.482   8.144  0.00  0.00    +0.211 A 
ATOM     27  N   UNL     1       3.530  -2.824   7.628  0.00  0.00    -0.193 NA
ATOM     28  C   UNL     1       3.567  -4.175   7.684  0.00  0.00    +0.202 A 
ATOM     29  N   UNL     1       2.439  -4.569   8.216  0.00  0.00    -0.056 NA
ATOM     30  O   UNL     1       1.747  -3.611   8.485  0.00  0.00    -0.340 OA
BRANCH  28  31
ATOM     31  C   UNL     1       4.675  -5.046   7.220  0.00  0.00    +0.022 A 
ATOM     32  C   UNL     1       5.822  -4.482   6.664  0.00  0.00    +0.012 A 
ATOM     33  C   UNL     1       6.852  -5.297   6.240  0.00  0.00    +0.001 A 
ATOM     34  C   UNL     1       6.743  -6.671   6.356  0.00  0.00    +0.000 A 
ATOM     35  C   UNL     1       5.604  -7.236   6.902  0.00  0.00    +0.001 A 
ATOM     36  C   UNL     1       4.571  -6.431   7.335  0.00  0.00    +0.012 A 
ENDBRANCH  28  31
ENDBRANCH  25  26
ENDBRANCH   4  25
TORSDOF 5
