REMARK  Name = ZINC36038419
REMARK  12 active torsions:
REMARK  status: ('A' for Active; 'I' for Inactive)
REMARK    1  A    between atoms: C_1  and  C_2
REMARK    2  A    between atoms: C_2  and  C_3
REMARK    3  A    between atoms: C_2  and  C_4
REMARK    4  A    between atoms: C_4  and  C_5
REMARK    5  A    between atoms: N_9  and  C_30
REMARK    6  A    between atoms: N_14  and  S_17
REMARK    7  A    between atoms: S_17  and  C_20
REMARK    8  A    between atoms: C_24  and  C_26
REMARK    9  A    between atoms: C_30  and  C_31
REMARK   10  A    between atoms: C_31  and  C_32
REMARK   11  A    between atoms: C_32  and  O_33
REMARK   12  A    between atoms: O_33  and  C_34
REMARK                            x       y       z     vdW  Elec       q    Type
REMARK                         _______ _______ _______ _____ _____    ______ ____
ROOT
ATOM      1  C   UNL     1      -0.652  -1.639   0.592  0.00  0.00    +0.019 C 
ATOM      2  C   UNL     1      -1.879  -2.433   0.196  0.00  0.00    +0.200 C 
ATOM      3  O   UNL     1      -2.354  -2.493  -0.918  0.00  0.00    -0.277 OA
ATOM      4  N   UNL     1      -2.354  -3.062   1.291  0.00  0.00    -0.314 N 
ATOM      5  C   UNL     1      -1.512  -2.736   2.445  0.00  0.00    +0.006 C 
ATOM      6  N   UNL     1      -0.243  -2.200   1.902  0.00  0.00    +0.401 N 
ATOM      7  C   UNL     1      -1.231  -3.994   3.266  0.00  0.00    +0.023 C 
ATOM      8  C   UNL     1      -2.553  -4.562   3.792  0.00  0.00    +0.109 C 
ATOM      9  N   UNL     1      -3.268  -3.504   4.519  0.00  0.00    -0.177 NA
ATOM     10  C   UNL     1      -3.520  -2.226   3.838  0.00  0.00    +0.109 C 
ATOM     11  C   UNL     1      -2.190  -1.677   3.312  0.00  0.00    +0.023 C 
ATOM     12  H   UNL     1       0.433  -2.940   1.778  0.00  0.00    -0.082 HD
ATOM     13  H   UNL     1       0.125  -1.476   2.501  0.00  0.00    -0.082 HD
ENDROOT
BRANCH   9  14
ATOM     14  S   UNL     1      -3.779  -3.746   6.075  0.00  0.00    +0.061 S 
ATOM     15  O   UNL     1      -4.860  -2.849   6.291  0.00  0.00    -0.153 OA
ATOM     16  O   UNL     1      -3.908  -5.150   6.246  0.00  0.00    -0.153 OA
BRANCH  14  17
ATOM     17  C   UNL     1      -2.474  -3.227   7.139  0.00  0.00    +0.106 A 
ATOM     18  C   UNL     1      -1.501  -4.128   7.530  0.00  0.00    +0.028 A 
ATOM     19  C   UNL     1      -0.477  -3.721   8.364  0.00  0.00    +0.002 A 
ATOM     20  C   UNL     1      -0.426  -2.412   8.808  0.00  0.00    +0.012 A 
ATOM     21  C   UNL     1      -1.398  -1.511   8.416  0.00  0.00    +0.057 A 
ATOM     22  C   UNL     1      -2.420  -1.917   7.578  0.00  0.00    +0.041 A 
BRANCH  21  23
ATOM     23  C   UNL     1      -1.342  -0.085   8.900  0.00  0.00    +0.417 C 
ATOM     24  F   UNL     1      -0.226   0.084   9.725  0.00  0.00    -0.166 F 
ATOM     25  F   UNL     1      -1.245   0.777   7.801  0.00  0.00    -0.166 F 
ATOM     26  F   UNL     1      -2.504   0.209   9.621  0.00  0.00    -0.166 F 
ENDBRANCH  21  23
ENDBRANCH  14  17
ENDBRANCH   9  14
BRANCH   1  27
ATOM     27  C   UNL     1      -1.000  -0.156   0.733  0.00  0.00    -0.004 C 
BRANCH  27  29
ATOM     28  C   UNL     1      -1.752   1.882  -0.500  0.00  0.00    +0.007 C 
ATOM     29  C   UNL     1      -1.269   0.439  -0.651  0.00  0.00    -0.018 C 
ATOM     30  C   UNL     1       0.020   0.416  -1.474  0.00  0.00    +0.007 C 
ENDBRANCH  27  29
ENDBRANCH   1  27
BRANCH   4  31
ATOM     31  C   UNL     1      -3.529  -3.935   1.321  0.00  0.00    +0.108 C 
BRANCH  31  32
ATOM     32  C   UNL     1      -3.108  -5.369   0.995  0.00  0.00    +0.047 C 
BRANCH  32  33
ATOM     33  C   UNL     1      -4.309  -6.303   1.156  0.00  0.00    +0.161 C 
BRANCH  33  34
ATOM     34  O   UNL     1      -3.915  -7.643   0.851  0.00  0.00    -0.383 OA
ATOM     35  C   UNL     1      -4.970  -8.600   0.971  0.00  0.00    +0.193 C 
ENDBRANCH  33  34
ENDBRANCH  32  33
ENDBRANCH  31  32
ENDBRANCH   4  31
TORSDOF 9
