REMARK  Name = ZINC09348379
REMARK  8 active torsions:
REMARK  status: ('A' for Active; 'I' for Inactive)
REMARK    1  A    between atoms: C_1  and  O_2
REMARK    2  A    between atoms: O_2  and  C_3
REMARK    3  A    between atoms: C_3  and  C_4
REMARK    4  A    between atoms: C_4  and  N_5
REMARK    5  A    between atoms: C_10  and  C_27
REMARK    6  A    between atoms: C_27  and  C_28
REMARK    7  A    between atoms: C_31  and  O_35
REMARK    8  A    between atoms: C_32  and  O_34
REMARK                            x       y       z     vdW  Elec       q    Type
REMARK                         _______ _______ _______ _____ _____    ______ ____
ROOT
ATOM      1  N   UNL     1      -0.549   6.807   0.600  0.00  0.00    -0.240 N 
ATOM      2  C   UNL     1       0.519   6.174   0.101  0.00  0.00    +0.224 C 
ATOM      3  O   UNL     1       0.791   6.080  -1.076  0.00  0.00    -0.275 OA
ATOM      4  C   UNL     1       1.333   5.593   1.235  0.00  0.00    +0.073 C 
ATOM      5  C   UNL     1       1.252   4.053   1.185  0.00  0.00    -0.053 C 
ATOM      6  C   UNL     1       0.021   4.664   3.074  0.00  0.00    +0.050 C 
ATOM      7  C   UNL     1       0.524   5.994   2.500  0.00  0.00    +0.088 C 
ATOM      8  C   UNL     1      -0.643   6.773   1.934  0.00  0.00    +0.225 C 
ATOM      9  O   UNL     1      -1.525   7.287   2.588  0.00  0.00    -0.275 OA
ATOM     10  C   UNL     1      -1.351   4.808   3.671  0.00  0.00    -0.026 A 
ATOM     11  C   UNL     1      -2.569   5.199   3.162  0.00  0.00    +0.024 A 
ATOM     12  C   UNL     1      -3.683   5.232   3.982  0.00  0.00    +0.041 A 
ATOM     13  C   UNL     1      -3.569   4.872   5.314  0.00  0.00    +0.022 A 
ATOM     14  C   UNL     1      -2.350   4.479   5.826  0.00  0.00    +0.025 A 
ATOM     15  C   UNL     1      -1.224   4.442   5.008  0.00  0.00    +0.036 A 
ATOM     16  N   UNL     1       0.097   4.085   5.288  0.00  0.00    -0.286 N 
ATOM     17  C   UNL     1       0.891   4.188   4.205  0.00  0.00    +0.211 C 
ATOM     18  O   UNL     1       2.079   3.944   4.151  0.00  0.00    -0.277 OA
ATOM     19 CL   UNL     1      -5.221   5.724   3.343  0.00  0.00    -0.084 Cl
ATOM     20  H   UNL     1       0.407   3.796   6.160  0.00  0.00    +0.155 HD
ATOM     21  N   UNL     1       0.051   3.733   1.958  0.00  0.00    +0.394 N 
ATOM     22  H   UNL     1       0.097   2.767   2.303  0.00  0.00    -0.083 HD
ATOM     23  H   UNL     1      -0.787   3.850   1.377  0.00  0.00    -0.083 HD
ENDROOT
BRANCH   1  24
ATOM     24  C   UNL     1      -1.536   7.483  -0.246  0.00  0.00    +0.144 C 
BRANCH  24  25
ATOM     25  C   UNL     1      -1.187   8.969  -0.350  0.00  0.00    +0.179 C 
BRANCH  25  27
ATOM     26  C   UNL     1       0.476  10.477  -1.190  0.00  0.00    +0.194 C 
ATOM     27  O   UNL     1       0.056   9.119  -1.039  0.00  0.00    -0.381 OA
ENDBRANCH  25  27
ENDBRANCH  24  25
ENDBRANCH   1  24
BRANCH   5  28
ATOM     28  C   UNL     1       1.128   3.573  -0.263  0.00  0.00    +0.020 C 
BRANCH  28  29
ATOM     29  C   UNL     1       1.137   2.067  -0.296  0.00  0.00    -0.045 A 
ATOM     30  C   UNL     1       2.335   1.387  -0.417  0.00  0.00    +0.007 A 
ATOM     31  C   UNL     1       2.348   0.004  -0.448  0.00  0.00    +0.049 A 
ATOM     32  C   UNL     1       1.160  -0.702  -0.357  0.00  0.00    +0.158 A 
ATOM     33  C   UNL     1      -0.045  -0.018  -0.235  0.00  0.00    +0.158 A 
ATOM     34  C   UNL     1      -0.052   1.367  -0.205  0.00  0.00    +0.052 A 
BRANCH  33  35
ATOM     35  O   UNL     1      -1.215  -0.707  -0.147  0.00  0.00    -0.503 OA
ATOM     36  H   UNL     1      -1.631  -0.887  -1.001  0.00  0.00    +0.292 HD
ENDBRANCH  33  35
BRANCH  32  37
ATOM     37  O   UNL     1       1.172  -2.062  -0.387  0.00  0.00    -0.503 OA
ATOM     38  H   UNL     1       1.097  -2.436  -1.276  0.00  0.00    +0.292 HD
ENDBRANCH  32  37
ENDBRANCH  28  29
ENDBRANCH   5  28
TORSDOF 7
