REMARK  Name = ZINC09307893
REMARK  5 active torsions:
REMARK  status: ('A' for Active; 'I' for Inactive)
REMARK    1  A    between atoms: C_1  and  O_2
REMARK    2  A    between atoms: O_2  and  C_3
REMARK    3  A    between atoms: C_8  and  N_9
REMARK    4  A    between atoms: C_10  and  C_12
REMARK    5  A    between atoms: N_30  and  C_33
REMARK                            x       y       z     vdW  Elec       q    Type
REMARK                         _______ _______ _______ _____ _____    ______ ____
ROOT
ATOM      1  C   UNL     1      -0.511   1.920   0.471  0.00  0.00    +0.156 C 
ATOM      2  C   UNL     1       0.272   1.144  -0.607  0.00  0.00    +0.118 C 
ATOM      3  C   UNL     1      -0.211   1.754  -1.959  0.00  0.00    +0.113 C 
ATOM      4  C   UNL     1      -1.610   2.284  -1.652  0.00  0.00    +0.100 C 
ATOM      5  C   UNL     1      -2.735   3.211   0.390  0.00  0.00    +0.054 C 
ATOM      6  C   UNL     1      -3.237   4.237  -0.326  0.00  0.00    +0.022 C 
ATOM      7  C   UNL     1      -2.654   4.556  -1.645  0.00  0.00    -0.019 A 
ATOM      8  C   UNL     1      -1.860   3.615  -2.313  0.00  0.00    -0.021 A 
ATOM      9  C   UNL     1      -1.325   3.910  -3.545  0.00  0.00    +0.006 A 
ATOM     10  C   UNL     1      -1.567   5.143  -4.127  0.00  0.00    +0.000 A 
ATOM     11  C   UNL     1      -2.346   6.082  -3.473  0.00  0.00    +0.001 A 
ATOM     12  C   UNL     1      -2.890   5.797  -2.238  0.00  0.00    +0.008 A 
ATOM     13  C   UNL     1       0.765   2.895  -2.154  0.00  0.00    +0.232 C 
ATOM     14  O   UNL     1       0.598   3.858  -2.871  0.00  0.00    -0.274 OA
ATOM     15  N   UNL     1       1.848   2.657  -1.397  0.00  0.00    -0.207 N 
ATOM     16  C   UNL     1       1.718   1.611  -0.566  0.00  0.00    +0.232 C 
ATOM     17  O   UNL     1       2.603   1.121   0.102  0.00  0.00    -0.274 OA
ATOM     18  N   UNL     1      -1.821   2.168  -0.229  0.00  0.00    -0.383 NA
ATOM     19  H   UNL     1      -2.344   1.292  -0.119  0.00  0.00    +0.127 HD
ENDROOT
BRANCH  15  20
ATOM     20  C   UNL     1       3.014   3.435  -1.467  0.00  0.00    +0.079 A 
ATOM     21  C   UNL     1       4.068   3.036  -2.277  0.00  0.00    +0.027 A 
ATOM     22  C   UNL     1       5.214   3.803  -2.345  0.00  0.00    +0.002 A 
ATOM     23  C   UNL     1       5.313   4.969  -1.607  0.00  0.00    +0.003 A 
ATOM     24  C   UNL     1       4.266   5.371  -0.799  0.00  0.00    +0.040 A 
ATOM     25  C   UNL     1       3.113   4.609  -0.730  0.00  0.00    +0.145 A 
ATOM     26  F   UNL     1       2.087   5.005   0.055  0.00  0.00    -0.204 F 
ENDBRANCH  15  20
BRANCH   1  28
ATOM     27  N   UNL     1       1.393   2.749   1.814  0.00  0.00    -0.281 N 
ATOM     28  C   UNL     1       0.343   3.034   1.019  0.00  0.00    +0.237 C 
ATOM     29  O   UNL     1       0.086   4.187   0.743  0.00  0.00    -0.273 OA
ATOM     30  H   UNL     1       1.629   1.826   1.994  0.00  0.00    +0.155 HD
BRANCH  27  36
ATOM     31  C   UNL     1       3.443   3.549   2.824  0.00  0.00    +0.141 A 
ATOM     32  C   UNL     1       4.181   4.580   3.384  0.00  0.00    +0.049 A 
ATOM     33  C   UNL     1       3.628   5.841   3.503  0.00  0.00    +0.024 A 
ATOM     34  C   UNL     1       2.337   6.079   3.066  0.00  0.00    +0.043 A 
ATOM     35  C   UNL     1       1.596   5.057   2.501  0.00  0.00    +0.047 A 
ATOM     36  C   UNL     1       2.143   3.788   2.382  0.00  0.00    +0.077 A 
ATOM     37 CL   UNL     1       1.649   7.665   3.219  0.00  0.00    -0.083 Cl
BRANCH  31  39
ATOM     38  C   UNL     1       5.323   2.137   3.179  0.00  0.00    +0.277 C 
ATOM     39  O   UNL     1       3.986   2.308   2.705  0.00  0.00    -0.493 OA
ENDBRANCH  31  39
ENDBRANCH  27  36
ENDBRANCH   1  28
TORSDOF 4
