REMARK  Name = ZINC40562320
REMARK  7 active torsions:
REMARK  status: ('A' for Active; 'I' for Inactive)
REMARK    1  A    between atoms: C_1  and  C_2
REMARK    2  A    between atoms: C_2  and  C_4
REMARK    3  A    between atoms: C_2  and  O_28
REMARK    4  A    between atoms: N_6  and  C_7
REMARK    5  A    between atoms: C_15  and  C_16
REMARK    6  A    between atoms: C_16  and  C_18
REMARK    7  A    between atoms: O_28  and  C_29
REMARK                            x       y       z     vdW  Elec       q    Type
REMARK                         _______ _______ _______ _____ _____    ______ ____
ROOT
ATOM      1  C   UNL     1      -3.379  -0.963  -0.899  0.00  0.00    +0.091 A 
ATOM      2  C   UNL     1      -4.205  -1.286  -2.068  0.00  0.00    +0.042 A 
ATOM      3  C   UNL     1      -4.057  -1.094  -3.443  0.00  0.00    +0.013 A 
ATOM      4  C   UNL     1      -5.035  -1.521  -4.296  0.00  0.00    +0.001 A 
ATOM      5  C   UNL     1      -6.174  -2.143  -3.804  0.00  0.00    +0.004 A 
ATOM      6  C   UNL     1      -6.339  -2.341  -2.450  0.00  0.00    +0.047 A 
ATOM      7  C   UNL     1      -5.356  -1.916  -1.563  0.00  0.00    +0.138 A 
ATOM      8  O   UNL     1      -5.246  -1.973  -0.221  0.00  0.00    -0.450 OA
ATOM      9  C   UNL     1      -4.084  -1.422   0.196  0.00  0.00    +0.197 A 
ENDROOT
BRANCH   1  12
ATOM     10  C   UNL     1      -1.835   0.555  -1.862  0.00  0.00    +0.258 C 
ATOM     11  O   UNL     1      -2.670   0.870  -2.684  0.00  0.00    -0.271 OA
ATOM     12  N   UNL     1      -2.142  -0.332  -0.895  0.00  0.00    -0.279 N 
ATOM     13  H   UNL     1      -1.499  -0.530  -0.197  0.00  0.00    +0.155 HD
BRANCH  10  15
ATOM     14  C   UNL     1       0.567   0.058  -2.226  0.00  0.00    +0.062 C 
ATOM     15  C   UNL     1      -0.454   1.156  -1.923  0.00  0.00    +0.256 C 
BRANCH  15  16
ATOM     16  O   UNL     1      -0.410   2.145  -2.953  0.00  0.00    -0.478 OA
BRANCH  16  17
ATOM     17  C   UNL     1       0.421   3.203  -2.758  0.00  0.00    +0.140 A 
ATOM     18  C   UNL     1       1.272   3.225  -1.663  0.00  0.00    +0.047 A 
ATOM     19  C   UNL     1       2.116   4.301  -1.467  0.00  0.00    +0.004 A 
ATOM     20  C   UNL     1       2.112   5.357  -2.360  0.00  0.00    +0.002 A 
ATOM     21  C   UNL     1       1.264   5.339  -3.452  0.00  0.00    +0.023 A 
ATOM     22  C   UNL     1       0.422   4.261  -3.657  0.00  0.00    +0.083 A 
ATOM     23 CL   UNL     1      -0.637   4.235  -5.032  0.00  0.00    -0.080 Cl
ENDBRANCH  16  17
ENDBRANCH  15  16
ENDBRANCH  10  15
ENDBRANCH   1  12
BRANCH   9  24
ATOM     24  C   UNL     1      -3.658  -1.328   1.544  0.00  0.00    +0.230 C 
ATOM     25  O   UNL     1      -2.550  -0.893   1.804  0.00  0.00    -0.283 OA
BRANCH  24  26
ATOM     26  C   UNL     1      -4.557  -1.757   2.634  0.00  0.00    +0.029 A 
ATOM     27  C   UNL     1      -5.765  -2.394   2.337  0.00  0.00    +0.015 A 
ATOM     28  C   UNL     1      -6.602  -2.791   3.356  0.00  0.00    +0.050 A 
ATOM     29  C   UNL     1      -6.251  -2.562   4.681  0.00  0.00    +0.162 A 
ATOM     30  C   UNL     1      -5.047  -1.929   4.984  0.00  0.00    +0.163 A 
ATOM     31  C   UNL     1      -4.200  -1.532   3.966  0.00  0.00    +0.061 A 
ATOM     32  O   UNL     1      -4.686  -1.704   6.277  0.00  0.00    -0.485 OA
ATOM     33  C   UNL     1      -5.724  -1.786   7.260  0.00  0.00    +0.270 C 
ATOM     34  C   UNL     1      -6.543  -3.055   6.988  0.00  0.00    +0.270 C 
ATOM     35  O   UNL     1      -7.095  -2.959   5.670  0.00  0.00    -0.485 OA
ENDBRANCH  24  26
ENDBRANCH   9  24
TORSDOF 6
