REMARK  Name = ZINC04222289
REMARK  7 active torsions:
REMARK  status: ('A' for Active; 'I' for Inactive)
REMARK    1  A    between atoms: C_1  and  C_2
REMARK    2  A    between atoms: C_5  and  O_33
REMARK    3  A    between atoms: C_7  and  C_30
REMARK    4  A    between atoms: C_7  and  C_31
REMARK    5  A    between atoms: C_25  and  C_27
REMARK    6  A    between atoms: C_27  and  C_28
REMARK    7  A    between atoms: C_31  and  O_32
REMARK                            x       y       z     vdW  Elec       q    Type
REMARK                         _______ _______ _______ _____ _____    ______ ____
ROOT
ATOM      1  C   UNL     1       9.719  -2.282   3.864  0.00  0.00    +0.012 C 
ATOM      2  C   UNL     1       9.838  -1.960   2.373  0.00  0.00    -0.019 C 
ATOM      3  C   UNL     1      11.263  -1.493   2.061  0.00  0.00    +0.010 C 
ATOM      4  C   UNL     1      12.266  -2.600   2.312  0.00  0.00    +0.032 C 
ATOM      5  C   UNL     1      11.927  -3.800   1.423  0.00  0.00    +0.123 C 
ATOM      6  C   UNL     1      10.531  -4.302   1.787  0.00  0.00    +0.021 C 
ATOM      7  C   UNL     1       9.491  -3.203   1.550  0.00  0.00    +0.011 C 
ATOM      8  C   UNL     1       8.129  -3.745   2.000  0.00  0.00    +0.049 C 
ATOM      9  C   UNL     1       7.168  -2.615   2.111  0.00  0.00    +0.015 A 
ATOM     10  C   UNL     1       7.448  -1.286   2.127  0.00  0.00    +0.058 A 
ATOM     11  N   UNL     1       6.401  -0.471   2.234  0.00  0.00    -0.229 NA
ATOM     12  C   UNL     1       5.167  -0.922   2.329  0.00  0.00    +0.166 A 
ATOM     13  S   UNL     1       5.402  -2.643   2.258  0.00  0.00    -0.057 S 
ATOM     14  N   UNL     1       3.982  -0.205   2.450  0.00  0.00    -0.248 N 
ATOM     15  C   UNL     1       2.805  -0.858   2.530  0.00  0.00    +0.308 C 
ATOM     16  O   UNL     1       2.787  -2.072   2.595  0.00  0.00    -0.252 OA
ATOM     17  N   UNL     1       1.649  -0.165   2.536  0.00  0.00    -0.281 N 
ATOM     18  C   UNL     1       0.351  -0.857   2.512  0.00  0.00    +0.137 C 
ATOM     19  C   UNL     1      -0.503  -0.245   1.396  0.00  0.00    +0.179 C 
ATOM     20  O   UNL     1      -0.543   1.175   1.559  0.00  0.00    -0.377 OA
ATOM     21  C   UNL     1       0.731   1.813   1.449  0.00  0.00    +0.179 C 
ATOM     22  C   UNL     1       1.649   1.306   2.568  0.00  0.00    +0.137 C 
ATOM     23  C   UNL     1       8.888  -0.808   2.019  0.00  0.00    +0.056 C 
ATOM     24  C   UNL     1      10.189  -5.517   0.923  0.00  0.00    +0.016 C 
ATOM     25  H   UNL     1       4.002   0.764   2.477  0.00  0.00    +0.158 HD
ENDROOT
BRANCH   5  26
ATOM     26  O   UNL     1      12.882  -4.841   1.638  0.00  0.00    -0.391 OA
ATOM     27  H   UNL     1      13.792  -4.590   1.426  0.00  0.00    +0.210 HD
ENDBRANCH   5  26
BRANCH  23  28
ATOM     28  C   UNL     1       9.113   0.355   2.987  0.00  0.00    +0.135 C 
BRANCH  28  29
ATOM     29  C   UNL     1       8.360   1.566   2.501  0.00  0.00    +0.357 C 
ATOM     30  O   UNL     1       7.710   1.505   1.484  0.00  0.00    -0.246 OA
ATOM     31  O   UNL     1       8.412   2.712   3.197  0.00  0.00    -0.246 OA
ENDBRANCH  28  29
ENDBRANCH  23  28
BRANCH   6  32
ATOM     32  C   UNL     1      10.509  -4.711   3.261  0.00  0.00    +0.165 C 
BRANCH  32  33
ATOM     33  O   UNL     1      11.359  -5.844   3.454  0.00  0.00    -0.394 OA
ATOM     34  H   UNL     1      11.394  -6.159   4.367  0.00  0.00    +0.209 HD
ENDBRANCH  32  33
ENDBRANCH   6  32
TORSDOF 5
