REMARK  Name = ZINC43746688
REMARK  10 active torsions:
REMARK  status: ('A' for Active; 'I' for Inactive)
REMARK    1  A    between atoms: C_1  and  C_2
REMARK    2  A    between atoms: C_2  and  C_3
REMARK    3  A    between atoms: C_3  and  C_5
REMARK    4  A    between atoms: C_3  and  N_6
REMARK    5  A    between atoms: C_7  and  C_9
REMARK    6  A    between atoms: C_9  and  C_11
REMARK    7  A    between atoms: C_9  and  N_14
REMARK    8  A    between atoms: C_11  and  C_12
REMARK    9  A    between atoms: C_11  and  C_13
REMARK   10  A    between atoms: C_15  and  C_17
REMARK                            x       y       z     vdW  Elec       q    Type
REMARK                         _______ _______ _______ _____ _____    ______ ____
ROOT
ATOM      1  C   UNL     1       6.299   0.594  -5.391  0.00  0.00    +0.167 C 
ATOM      2  C   UNL     1       5.971   1.977  -5.973  0.00  0.00    +0.069 C 
ATOM      3  C   UNL     1       6.849   2.262  -7.164  0.00  0.00    -0.015 A 
ATOM      4  C   UNL     1       6.653   3.286  -8.176  0.00  0.00    +0.003 A 
ATOM      5  C   UNL     1       5.657   4.250  -8.361  0.00  0.00    +0.010 A 
ATOM      6  C   UNL     1       5.790   5.076  -9.450  0.00  0.00    +0.001 A 
ATOM      7  C   UNL     1       6.855   4.968 -10.330  0.00  0.00    +0.002 A 
ATOM      8  C   UNL     1       7.853   4.022 -10.171  0.00  0.00    +0.026 A 
ATOM      9  C   UNL     1       7.743   3.170  -9.074  0.00  0.00    +0.047 A 
ATOM     10  N   UNL     1       8.528   2.146  -8.629  0.00  0.00    -0.356 N 
ATOM     11  H   UNL     1       9.349   1.847  -9.051  0.00  0.00    +0.166 HD
ATOM     12  C   UNL     1       7.983   1.605  -7.496  0.00  0.00    +0.046 A 
ATOM     13  C   UNL     1       8.515   0.434  -6.706  0.00  0.00    +0.155 C 
ATOM     14  N   UNL     1       7.754   0.421  -5.435  0.00  0.00    -0.273 N 
ATOM     15  C   UNL     1       8.621   0.269  -4.424  0.00  0.00    +0.248 C 
ATOM     16  O   UNL     1       8.321  -0.008  -3.279  0.00  0.00    -0.270 OA
ATOM     17  C   UNL     1       9.986   0.487  -4.912  0.00  0.00    +0.042 A 
ATOM     18  C   UNL     1       9.950   0.596  -6.338  0.00  0.00    -0.009 A 
ATOM     19  C   UNL     1      11.080   0.810  -7.095  0.00  0.00    +0.006 A 
ATOM     20  C   UNL     1      12.291   0.900  -6.415  0.00  0.00    +0.000 A 
ATOM     21  C   UNL     1      12.364   0.779  -5.042  0.00  0.00    +0.001 A 
ATOM     22  C   UNL     1      11.199   0.573  -4.224  0.00  0.00    +0.013 A 
ENDROOT
BRANCH   1  24
ATOM     23  N   UNL     1       4.758  -0.256  -3.652  0.00  0.00    -0.302 N 
ATOM     24  C   UNL     1       5.819   0.515  -3.965  0.00  0.00    +0.235 C 
ATOM     25  O   UNL     1       6.387   1.144  -3.097  0.00  0.00    -0.274 OA
ATOM     26  H   UNL     1       4.304  -0.759  -4.346  0.00  0.00    +0.150 HD
BRANCH  23  27
ATOM     27  C   UNL     1       4.291  -0.333  -2.266  0.00  0.00    +0.161 C 
BRANCH  27  29
ATOM     28  N   UNL     1       3.566  -2.216  -0.836  0.00  0.00    -0.311 N 
ATOM     29  C   UNL     1       3.564  -1.636  -2.053  0.00  0.00    +0.234 C 
ATOM     30  O   UNL     1       2.979  -2.162  -2.975  0.00  0.00    -0.274 OA
ATOM     31  H   UNL     1       4.085  -1.829  -0.114  0.00  0.00    +0.149 HD
BRANCH  28  32
ATOM     32  C   UNL     1       2.782  -3.432  -0.605  0.00  0.00    +0.070 C 
ATOM     33  C   UNL     1       3.599  -4.654  -1.027  0.00  0.00    +0.028 C 
BRANCH  32  35
ATOM     34  C   UNL     1       1.513  -2.383   1.275  0.00  0.00    +0.005 C 
ATOM     35  C   UNL     1       2.435  -3.540   0.882  0.00  0.00    +0.018 C 
ENDBRANCH  32  35
ENDBRANCH  28  32
ENDBRANCH  27  29
BRANCH  27  36
ATOM     36  C   UNL     1       3.342   0.833  -1.982  0.00  0.00    +0.012 C 
ATOM     37  C   UNL     1       2.942   0.816  -0.505  0.00  0.00    +0.009 C 
ATOM     38  C   UNL     1       4.045   2.153  -2.304  0.00  0.00    +0.009 C 
ENDBRANCH  27  36
ENDBRANCH  23  27
ENDBRANCH   1  24
TORSDOF 6
