REMARK  Name = ZINC10135723
REMARK  7 active torsions:
REMARK  status: ('A' for Active; 'I' for Inactive)
REMARK    1  A    between atoms: C_1  and  C_2
REMARK    2  A    between atoms: C_2  and  N_63
REMARK    3  A    between atoms: C_5  and  N_8
REMARK    4  A    between atoms: C_9  and  C_11
REMARK    5  A    between atoms: C_11  and  S_12
REMARK    6  A    between atoms: S_12  and  C_13
REMARK    7  A    between atoms: N_26  and  C_27
REMARK                            x       y       z     vdW  Elec       q    Type
REMARK                         _______ _______ _______ _____ _____    ______ ____
ROOT
ATOM      1  C   UNL     1       0.094   1.941   0.697  0.00  0.00    +0.178 A 
ATOM      2  N   UNL     1      -1.059   2.579   0.727  0.00  0.00    -0.215 NA
ATOM      3  C   UNL     1      -1.213   3.735   0.093  0.00  0.00    +0.117 A 
ATOM      4  C   UNL     1      -0.174   4.329  -0.644  0.00  0.00    +0.076 A 
ATOM      5  C   UNL     1      -0.497   5.600  -1.294  0.00  0.00    -0.023 A 
ATOM      6  C   UNL     1      -1.748   6.074  -1.124  0.00  0.00    -0.004 A 
ATOM      7  S   UNL     1      -2.561   4.874  -0.104  0.00  0.00    -0.073 S 
ATOM      8  C   UNL     1      -2.322   7.342  -1.680  0.00  0.00    +0.043 C 
ATOM      9  C   UNL     1      -1.165   8.222  -2.174  0.00  0.00    +0.005 C 
ATOM     10  C   UNL     1      -0.223   7.363  -3.023  0.00  0.00    +0.005 C 
ATOM     11  C   UNL     1       0.521   6.370  -2.131  0.00  0.00    +0.037 C 
ATOM     12  C   UNL     1       1.064   3.613  -0.664  0.00  0.00    +0.268 A 
ATOM     13  O   UNL     1       2.022   4.052  -1.277  0.00  0.00    -0.267 OA
ATOM     14  N   UNL     1       1.158   2.448   0.004  0.00  0.00    -0.255 N 
ENDROOT
BRANCH  14  15
ATOM     15  C   UNL     1       2.368   1.742  -0.011  0.00  0.00    +0.052 A 
ATOM     16  C   UNL     1       3.328   1.986   0.962  0.00  0.00    +0.026 A 
ATOM     17  C   UNL     1       4.517   1.284   0.947  0.00  0.00    +0.002 A 
ATOM     18  C   UNL     1       4.758   0.348  -0.042  0.00  0.00    +0.000 A 
ATOM     19  C   UNL     1       3.806   0.107  -1.016  0.00  0.00    +0.002 A 
ATOM     20  C   UNL     1       2.612   0.802  -1.003  0.00  0.00    +0.026 A 
ENDBRANCH  14  15
BRANCH   1  21
ATOM     21  S   UNL     1       0.265   0.412   1.556  0.00  0.00    -0.078 S 
BRANCH  21  22
ATOM     22  C   UNL     1      -1.397   0.257   2.255  0.00  0.00    +0.173 C 
BRANCH  22  24
ATOM     23  N   UNL     1      -2.642  -1.343   3.672  0.00  0.00    -0.312 N 
ATOM     24  C   UNL     1      -1.489  -1.016   3.056  0.00  0.00    +0.224 C 
ATOM     25  O   UNL     1      -0.525  -1.747   3.145  0.00  0.00    -0.275 OA
ATOM     26  H   UNL     1      -3.412  -0.759   3.601  0.00  0.00    +0.149 HD
BRANCH  23  29
ATOM     27  C   UNL     1      -3.955  -3.758   6.281  0.00  0.00    -0.077 C 
ATOM     28  C   UNL     1      -3.826  -2.441   5.511  0.00  0.00    +0.003 C 
ATOM     29  C   UNL     1      -2.730  -2.581   4.451  0.00  0.00    +0.069 C 
ATOM     30  C   UNL     1      -3.078  -3.747   3.520  0.00  0.00    +0.003 C 
ATOM     31  C   UNL     1      -3.229  -5.026   4.347  0.00  0.00    -0.077 C 
ATOM     32  N   UNL     1      -4.314  -4.834   5.332  0.00  0.00    +0.380 N 
ATOM     33  H   UNL     1      -5.172  -4.568   4.835  0.00  0.00    -0.082 HD
BRANCH  32  35
ATOM     34  C   UNL     1      -4.653  -7.247   5.066  0.00  0.00    -0.017 C 
ATOM     35  C   UNL     1      -4.557  -6.093   6.067  0.00  0.00    -0.082 C 
ENDBRANCH  32  35
ENDBRANCH  23  29
ENDBRANCH  22  24
ENDBRANCH  21  22
ENDBRANCH   1  21
TORSDOF 6
