REMARK  Name = ZINC25391707
REMARK  11 active torsions:
REMARK  status: ('A' for Active; 'I' for Inactive)
REMARK    1  A    between atoms: C_1  and  C_2
REMARK    2  A    between atoms: C_2  and  N_3
REMARK    3  A    between atoms: N_3  and  C_4
REMARK    4  A    between atoms: N_3  and  C_6
REMARK    5  A    between atoms: C_4  and  C_5
REMARK    6  A    between atoms: C_6  and  C_7
REMARK    7  A    between atoms: C_7  and  N_8
REMARK    8  A    between atoms: N_17  and  C_18
REMARK    9  A    between atoms: C_18  and  C_20
REMARK   10  A    between atoms: C_22  and  C_31
REMARK   11  A    between atoms: N_24  and  C_25
REMARK                            x       y       z     vdW  Elec       q    Type
REMARK                         _______ _______ _______ _____ _____    ______ ____
ROOT
ATOM      1  N   UNL     1      -1.451  -3.534  -0.182  0.00  0.00    -0.314 N 
ATOM      2  C   UNL     1      -2.679  -4.183  -0.246  0.00  0.00    +0.068 A 
ATOM      3  C   UNL     1      -3.991  -3.740  -0.147  0.00  0.00    +0.028 A 
ATOM      4  C   UNL     1      -5.031  -4.642  -0.253  0.00  0.00    +0.002 A 
ATOM      5  C   UNL     1      -4.772  -5.986  -0.459  0.00  0.00    +0.002 A 
ATOM      6  C   UNL     1      -3.471  -6.437  -0.558  0.00  0.00    +0.028 A 
ATOM      7  C   UNL     1      -2.418  -5.539  -0.453  0.00  0.00    +0.066 A 
ATOM      8  N   UNL     1      -1.036  -5.687  -0.511  0.00  0.00    -0.326 N 
ATOM      9  C   UNL     1      -0.469  -4.460  -0.350  0.00  0.00    +0.201 A 
ATOM     10  N   UNL     1       0.834  -4.209  -0.353  0.00  0.00    -0.141 NA
ATOM     11  H   UNL     1      -0.558  -6.520  -0.646  0.00  0.00    +0.169 HD
ENDROOT
BRANCH  10  12
ATOM     12  C   UNL     1       1.703  -5.181  -0.658  0.00  0.00    +0.289 C 
ATOM     13  O   UNL     1       1.296  -6.273  -1.016  0.00  0.00    -0.266 OA
BRANCH  12  14
ATOM     14  C   UNL     1       3.154  -4.932  -0.560  0.00  0.00    +0.132 A 
ATOM     15  C   UNL     1       3.749  -3.749  -0.221  0.00  0.00    +0.063 A 
ATOM     16  C   UNL     1       5.140  -3.946  -0.247  0.00  0.00    +0.100 A 
ATOM     17  N   UNL     1       5.377  -5.198  -0.589  0.00  0.00    -0.165 NA
ATOM     18  N   UNL     1       4.149  -5.844  -0.786  0.00  0.00    -0.227 N 
BRANCH  18  19
ATOM     19  C   UNL     1       3.972  -7.183  -1.152  0.00  0.00    +0.066 A 
ATOM     20  C   UNL     1       3.038  -7.968  -0.489  0.00  0.00    +0.028 A 
ATOM     21  C   UNL     1       2.865  -9.289  -0.853  0.00  0.00    +0.002 A 
ATOM     22  C   UNL     1       3.622  -9.830  -1.876  0.00  0.00    +0.000 A 
ATOM     23  C   UNL     1       4.553  -9.051  -2.538  0.00  0.00    +0.002 A 
ATOM     24  C   UNL     1       4.726  -7.728  -2.183  0.00  0.00    +0.028 A 
ENDBRANCH  18  19
BRANCH  16  25
ATOM     25  C   UNL     1       6.165  -2.923   0.056  0.00  0.00    +0.039 A 
ATOM     26  C   UNL     1       7.528  -3.039   0.046  0.00  0.00    +0.018 A 
ATOM     27  C   UNL     1       8.289  -1.936   0.367  0.00  0.00    +0.008 A 
ATOM     28  C   UNL     1       7.666  -0.772   0.683  0.00  0.00    +0.046 A 
ATOM     29  S   UNL     1       5.944  -1.214   0.524  0.00  0.00    -0.095 S 
ENDBRANCH  16  25
ENDBRANCH  12  14
ENDBRANCH  10  12
BRANCH   1  30
ATOM     30  C   UNL     1      -1.249  -2.097   0.025  0.00  0.00    +0.106 C 
BRANCH  30  31
ATOM     31  C   UNL     1      -1.345  -1.370  -1.317  0.00  0.00    -0.057 C 
BRANCH  31  32
ATOM     32  N   UNL     1      -1.052   0.056  -1.124  0.00  0.00    +0.380 N 
ATOM     33  H   UNL     1      -1.648   0.427  -0.399  0.00  0.00    -0.082 HD
BRANCH  32  35
ATOM     34  C   UNL     1       1.260  -0.278  -1.859  0.00  0.00    -0.017 C 
ATOM     35  C   UNL     1       0.354   0.218  -0.730  0.00  0.00    -0.082 C 
ENDBRANCH  32  35
BRANCH  32  36
ATOM     36  C   UNL     1      -1.296   0.781  -2.378  0.00  0.00    -0.082 C 
ATOM     37  C   UNL     1      -1.107   2.281  -2.145  0.00  0.00    -0.017 C 
ENDBRANCH  32  36
ENDBRANCH  31  32
ENDBRANCH  30  31
ENDBRANCH   1  30
TORSDOF 9
