REMARK  Name = ZINC21219052
REMARK  10 active torsions:
REMARK  status: ('A' for Active; 'I' for Inactive)
REMARK    1  A    between atoms: C_1  and  C_2
REMARK    2  A    between atoms: C_2  and  C_3
REMARK    3  A    between atoms: C_2  and  C_4
REMARK    4  A    between atoms: C_2  and  C_5
REMARK    5  A    between atoms: C_8  and  C_11
REMARK    6  A    between atoms: C_16  and  C_22
REMARK    7  A    between atoms: C_24  and  O_31
REMARK    8  A    between atoms: C_25  and  O_29
REMARK    9  A    between atoms: O_29  and  C_30
REMARK   10  A    between atoms: O_31  and  C_32
REMARK                            x       y       z     vdW  Elec       q    Type
REMARK                         _______ _______ _______ _____ _____    ______ ____
ROOT
ATOM      1  C   UNL     1      -2.583   2.733  -3.007  0.00  0.00    +0.032 C 
ATOM      2  C   UNL     1      -1.175   3.330  -2.936  0.00  0.00    +0.059 C 
ATOM      3  C   UNL     1      -0.468   2.814  -1.708  0.00  0.00    +0.018 C 
ATOM      4  C   UNL     1      -0.742   1.587  -1.217  0.00  0.00    +0.020 C 
ATOM      5  C   UNL     1      -0.013   1.086   0.008  0.00  0.00    +0.064 C 
ATOM      6  C   UNL     1       1.422   1.616  -0.003  0.00  0.00    +0.109 C 
ATOM      7  C   UNL     1       1.399   3.096  -0.283  0.00  0.00    +0.218 C 
ATOM      8  O   UNL     1       2.227   3.821   0.226  0.00  0.00    -0.275 OA
ATOM      9  N   UNL     1       0.464   3.614  -1.097  0.00  0.00    -0.289 N 
ATOM     10  C   UNL     1      -1.698   0.754  -1.821  0.00  0.00    +0.162 C 
ATOM     11  O   UNL     1      -1.910  -0.349  -1.356  0.00  0.00    -0.292 OA
ATOM     12  C   UNL     1      -2.465   1.206  -3.034  0.00  0.00    +0.088 C 
ATOM     13  H   UNL     1       0.453   4.701  -1.271  0.00  0.00    +0.155 HD
ENDROOT
BRANCH   5  14
ATOM     14  C   UNL     1      -0.719   1.572   1.247  0.00  0.00    -0.022 A 
ATOM     15  C   UNL     1      -0.856   2.929   1.476  0.00  0.00    +0.054 A 
ATOM     16  C   UNL     1      -1.508   3.378   2.612  0.00  0.00    +0.162 A 
ATOM     17  C   UNL     1      -2.017   2.461   3.527  0.00  0.00    +0.163 A 
ATOM     18  C   UNL     1      -1.872   1.103   3.296  0.00  0.00    +0.065 A 
ATOM     19  C   UNL     1      -1.223   0.660   2.157  0.00  0.00    +0.025 A 
ATOM     20 BR   UNL     1      -1.027  -1.194   1.842  0.00  0.00    -0.050 Br
BRANCH  17  21
ATOM     21  O   UNL     1      -2.654   2.897   4.647  0.00  0.00    -0.491 OA
ATOM     22  C   UNL     1      -3.150   1.899   5.542  0.00  0.00    +0.277 C 
ENDBRANCH  17  21
BRANCH  16  23
ATOM     23  O   UNL     1      -1.648   4.712   2.836  0.00  0.00    -0.491 OA
ATOM     24  C   UNL     1      -1.102   5.595   1.854  0.00  0.00    +0.277 C 
ENDBRANCH  16  23
ENDBRANCH   5  14
BRANCH   1  28
ATOM     25  C   UNL     1      -4.533   4.084  -6.560  0.00  0.00    -0.042 A 
ATOM     26  C   UNL     1      -5.088   4.353  -5.322  0.00  0.00    +0.004 A 
ATOM     27  C   UNL     1      -4.457   3.915  -4.173  0.00  0.00    +0.004 A 
ATOM     28  C   UNL     1      -3.271   3.210  -4.261  0.00  0.00    -0.043 A 
ATOM     29  C   UNL     1      -2.713   2.947  -5.498  0.00  0.00    +0.004 A 
ATOM     30  C   UNL     1      -3.347   3.379  -6.648  0.00  0.00    +0.004 A 
BRANCH  25  32
ATOM     31  C   UNL     1      -5.337   6.086  -7.783  0.00  0.00    +0.015 C 
ATOM     32  C   UNL     1      -5.221   4.561  -7.813  0.00  0.00    -0.013 C 
ATOM     33  C   UNL     1      -4.406   4.135  -9.036  0.00  0.00    +0.015 C 
ATOM     34  C   UNL     1      -6.619   3.944  -7.893  0.00  0.00    +0.015 C 
ENDBRANCH  25  32
ENDBRANCH   1  28
TORSDOF 5
