REMARK  Name = ZINC38845796
REMARK  14 active torsions:
REMARK  status: ('A' for Active; 'I' for Inactive)
REMARK    1  A    between atoms: C_1  and  C_2
REMARK    2  A    between atoms: C_2  and  O_3
REMARK    3  A    between atoms: O_3  and  C_4
REMARK    4  A    between atoms: C_7  and  C_13
REMARK    5  A    between atoms: C_9  and  O_10
REMARK    6  A    between atoms: O_10  and  C_11
REMARK    7  A    between atoms: C_11  and  C_12
REMARK    8  A    between atoms: N_15  and  C_16
REMARK    9  A    between atoms: C_16  and  C_17
REMARK   10  A    between atoms: C_17  and  N_18
REMARK   11  A    between atoms: N_18  and  C_19
REMARK   12  A    between atoms: N_18  and  C_20
REMARK   13  A    between atoms: C_26  and  S_30
REMARK   14  A    between atoms: S_30  and  C_33
REMARK                            x       y       z     vdW  Elec       q    Type
REMARK                         _______ _______ _______ _____ _____    ______ ____
ROOT
ATOM      1  C   UNL     1       1.019  -5.624   1.736  0.00  0.00    +0.252 C 
ATOM      2  O   UNL     1       1.737  -5.878   2.684  0.00  0.00    -0.270 OA
ATOM      3  N   UNL     1       0.590  -6.617   0.931  0.00  0.00    -0.248 N 
ATOM      4  C   UNL     1       0.865  -7.935   1.251  0.00  0.00    +0.168 A 
ATOM      5  N   UNL     1       0.540  -9.026   0.597  0.00  0.00    -0.224 NA
ATOM      6  C   UNL     1       0.878 -10.260   1.030  0.00  0.00    +0.080 A 
ATOM      7  C   UNL     1       0.592 -11.506   0.426  0.00  0.00    +0.031 A 
ATOM      8  C   UNL     1       1.011 -12.676   1.003  0.00  0.00    +0.029 A 
ATOM      9  C   UNL     1       1.726 -12.683   2.192  0.00  0.00    +0.089 A 
ATOM     10  C   UNL     1       2.023 -11.483   2.811  0.00  0.00    +0.044 A 
ATOM     11  C   UNL     1       1.607 -10.306   2.240  0.00  0.00    +0.043 A 
ATOM     12  S   UNL     1       1.758  -8.585   2.656  0.00  0.00    -0.052 S 
ENDROOT
BRANCH   1  16
ATOM     13  C   UNL     1      -0.138  -1.611   0.955  0.00  0.00    +0.162 A 
ATOM     14  C   UNL     1       0.302  -2.421  -0.083  0.00  0.00    +0.050 A 
ATOM     15  C   UNL     1       0.678  -3.723   0.166  0.00  0.00    +0.017 A 
ATOM     16  C   UNL     1       0.617  -4.230   1.467  0.00  0.00    +0.041 A 
ATOM     17  C   UNL     1       0.175  -3.415   2.512  0.00  0.00    +0.062 A 
ATOM     18  C   UNL     1      -0.196  -2.109   2.256  0.00  0.00    +0.163 A 
BRANCH  13  19
ATOM     19  O   UNL     1      -0.508  -0.329   0.704  0.00  0.00    -0.489 OA
BRANCH  19  21
ATOM     20  C   UNL     1      -0.877   1.576  -0.738  0.00  0.00    +0.048 C 
ATOM     21  C   UNL     1      -0.423   0.117  -0.651  0.00  0.00    +0.226 C 
ENDBRANCH  19  21
ENDBRANCH  13  19
BRANCH  18  22
ATOM     22  O   UNL     1      -0.623  -1.312   3.271  0.00  0.00    -0.489 OA
BRANCH  22  23
ATOM     23  C   UNL     1      -0.657  -1.888   4.578  0.00  0.00    +0.226 C 
ATOM     24  C   UNL     1      -1.159  -0.848   5.581  0.00  0.00    +0.048 C 
ENDBRANCH  22  23
ENDBRANCH  18  22
ENDBRANCH   1  16
BRANCH   9  25
ATOM     25  S   UNL     1       2.249 -14.206   2.907  0.00  0.00    -0.006 S 
ATOM     26  O   UNL     1       2.363 -13.934   4.297  0.00  0.00    -0.170 OA
ATOM     27  O   UNL     1       1.318 -15.169   2.432  0.00  0.00    -0.170 OA
ATOM     28  C   UNL     1       3.888 -14.517   2.195  0.00  0.00    +0.200 C 
ENDBRANCH   9  25
BRANCH   3  29
ATOM     29  C   UNL     1      -0.167  -6.300  -0.283  0.00  0.00    +0.097 C 
BRANCH  29  30
ATOM     30  C   UNL     1       0.774  -6.317  -1.489  0.00  0.00    -0.060 C 
BRANCH  30  31
ATOM     31  N   UNL     1       0.045  -5.872  -2.685  0.00  0.00    +0.377 N 
ATOM     32  C   UNL     1       0.976  -5.773  -3.817  0.00  0.00    -0.097 C 
ATOM     33  C   UNL     1      -1.012  -6.840  -3.003  0.00  0.00    -0.097 C 
ATOM     34  H   UNL     1      -0.368  -4.968  -2.509  0.00  0.00    -0.083 HD
ENDBRANCH  30  31
ENDBRANCH  29  30
ENDBRANCH   3  29
TORSDOF 9
