REMARK  Name = ZINC12947796
REMARK  12 active torsions:
REMARK  status: ('A' for Active; 'I' for Inactive)
REMARK    1  A    between atoms: C_1  and  C_2
REMARK    2  A    between atoms: C_2  and  O_3
REMARK    3  A    between atoms: O_3  and  C_4
REMARK    4  A    between atoms: C_4  and  C_6
REMARK    5  A    between atoms: C_7  and  C_30
REMARK    6  A    between atoms: C_8  and  C_29
REMARK    7  A    between atoms: C_10  and  N_11
REMARK    8  A    between atoms: C_12  and  C_14
REMARK    9  A    between atoms: C_14  and  N_64
REMARK   10  A    between atoms: C_18  and  C_20
REMARK   11  A    between atoms: N_22  and  C_23
REMARK   12  A    between atoms: C_23  and  C_24
REMARK                            x       y       z     vdW  Elec       q    Type
REMARK                         _______ _______ _______ _____ _____    ______ ____
ROOT
ATOM      1  N   UNL     1      -1.250   8.416   1.851  0.00  0.00    -0.281 N 
ATOM      2  C   UNL     1      -1.128   9.736   1.607  0.00  0.00    +0.201 C 
ATOM      3  O   UNL     1      -0.836  10.122   0.495  0.00  0.00    -0.278 OA
ATOM      4  H   UNL     1      -1.483   8.106   2.741  0.00  0.00    +0.155 HD
ENDROOT
BRANCH   1   9
ATOM      5  C   UNL     1      -1.126   6.116   0.889  0.00  0.00    +0.095 A 
ATOM      6  C   UNL     1      -0.853   5.394  -0.339  0.00  0.00    +0.008 A 
ATOM      7  C   UNL     1      -0.550   6.141  -1.431  0.00  0.00    -0.003 A 
ATOM      8  S   UNL     1      -0.622   7.811  -0.819  0.00  0.00    -0.077 S 
ATOM      9  C   UNL     1      -1.042   7.500   0.832  0.00  0.00    +0.087 A 
ATOM     10  C   UNL     1      -0.230   5.670  -2.827  0.00  0.00    +0.052 C 
BRANCH   6  11
ATOM     11  C   UNL     1      -0.907   3.914  -0.400  0.00  0.00    -0.016 A 
ATOM     12  C   UNL     1       0.250   3.181  -0.663  0.00  0.00    +0.008 A 
ATOM     13  C   UNL     1       0.193   1.804  -0.718  0.00  0.00    +0.001 A 
ATOM     14  C   UNL     1      -1.009   1.149  -0.514  0.00  0.00    +0.000 A 
ATOM     15  C   UNL     1      -2.161   1.871  -0.258  0.00  0.00    +0.001 A 
ATOM     16  C   UNL     1      -2.115   3.249  -0.195  0.00  0.00    +0.008 A 
ENDBRANCH   6  11
BRANCH   5  17
ATOM     17  C   UNL     1      -1.470   5.418   2.128  0.00  0.00    +0.342 C 
ATOM     18  O   UNL     1      -0.592   5.080   2.899  0.00  0.00    -0.245 OA
BRANCH  17  19
ATOM     19  O   UNL     1      -2.760   5.150   2.416  0.00  0.00    -0.461 OA
BRANCH  19  21
ATOM     20  C   UNL     1      -4.534   4.241   3.815  0.00  0.00    +0.048 C 
ATOM     21  C   UNL     1      -3.027   4.455   3.663  0.00  0.00    +0.229 C 
ENDBRANCH  19  21
ENDBRANCH  17  19
ENDBRANCH   5  17
ENDBRANCH   1   9
BRANCH   2  22
ATOM     22  C   UNL     1      -1.353  10.731   2.716  0.00  0.00    +0.020 C 
BRANCH  22  27
ATOM     23  C   UNL     1       0.426  12.194   1.944  0.00  0.00    -0.077 C 
ATOM     24  C   UNL     1       0.848  13.630   2.302  0.00  0.00    -0.020 C 
ATOM     25  C   UNL     1      -0.433  14.305   2.844  0.00  0.00    -0.008 C 
ATOM     26  C   UNL     1      -1.300  13.098   3.283  0.00  0.00    +0.020 C 
ATOM     27  N   UNL     1      -1.008  12.105   2.243  0.00  0.00    +0.393 N 
ATOM     28  H   UNL     1      -1.553  12.317   1.399  0.00  0.00    -0.080 HD
BRANCH  26  29
ATOM     29  C   UNL     1      -2.761  13.466   3.287  0.00  0.00    +0.200 C 
ATOM     30  O   UNL     1      -3.521  12.941   2.500  0.00  0.00    -0.278 OA
ATOM     31  N   UNL     1      -3.224  14.379   4.163  0.00  0.00    -0.310 N 
ATOM     32  H   UNL     1      -2.617  14.799   4.793  0.00  0.00    +0.149 HD
BRANCH  31  33
ATOM     33  C   UNL     1      -4.645  14.737   4.167  0.00  0.00    +0.178 C 
BRANCH  33  34
ATOM     34  C   UNL     1      -4.900  15.770   5.234  0.00  0.00    +0.122 A 
ATOM     35  C   UNL     1      -4.830  17.104   5.070  0.00  0.00    +0.046 A 
ATOM     36  C   UNL     1      -5.144  17.686   6.319  0.00  0.00    +0.041 A 
ATOM     37  C   UNL     1      -5.380  16.674   7.173  0.00  0.00    +0.195 A 
ATOM     38  O   UNL     1      -5.231  15.516   6.510  0.00  0.00    -0.466 OA
ENDBRANCH  33  34
ENDBRANCH  31  33
ENDBRANCH  26  29
ENDBRANCH  22  27
ENDBRANCH   2  22
TORSDOF 10
