REMARK  Name = ZINC00649078
REMARK  11 active torsions:
REMARK  status: ('A' for Active; 'I' for Inactive)
REMARK    1  A    between atoms: C_1  and  C_2
REMARK    2  A    between atoms: C_5  and  C_8
REMARK    3  A    between atoms: C_10  and  C_34
REMARK    4  A    between atoms: C_14  and  C_17
REMARK    5  A    between atoms: N_19  and  C_20
REMARK    6  A    between atoms: C_22  and  C_30
REMARK    7  A    between atoms: C_25  and  C_26
REMARK    8  A    between atoms: C_26  and  O_28
REMARK    9  A    between atoms: O_28  and  C_29
REMARK   10  A    between atoms: C_30  and  O_32
REMARK   11  A    between atoms: O_32  and  C_33
REMARK                            x       y       z     vdW  Elec       q    Type
REMARK                         _______ _______ _______ _____ _____    ______ ____
ROOT
ATOM      1  C   UNL     1       0.063  -4.256  -0.021  0.00  0.00    +0.075 A 
ATOM      2  C   UNL     1       0.056  -4.969   1.196  0.00  0.00    +0.057 A 
ATOM      3  C   UNL     1       0.059  -6.323   1.169  0.00  0.00    +0.112 A 
ATOM      4  N   UNL     1       0.069  -6.967  -0.035  0.00  0.00    -0.212 N 
ATOM      5  C   UNL     1       0.076  -6.244  -1.194  0.00  0.00    +0.169 A 
ATOM      6  N   UNL     1       0.067  -4.912  -1.170  0.00  0.00    -0.227 NA
ATOM      7  C   UNL     1       0.086  -7.175  -2.253  0.00  0.00    +0.101 A 
ATOM      8  C   UNL     1       0.084  -8.456  -1.671  0.00  0.00    +0.150 A 
ATOM      9  N   UNL     1       0.075  -8.326  -0.370  0.00  0.00    -0.172 NA
ENDROOT
BRANCH   1  14
ATOM     10  C   UNL     1       0.048   1.501   0.012  0.00  0.00    +0.044 C 
ATOM     11  C   UNL     1       0.052  -0.006   0.003  0.00  0.00    -0.050 A 
ATOM     12  C   UNL     1       0.057  -0.688  -1.200  0.00  0.00    +0.004 A 
ATOM     13  C   UNL     1       0.061  -2.067  -1.215  0.00  0.00    +0.010 A 
ATOM     14  C   UNL     1       0.059  -2.775  -0.013  0.00  0.00    +0.000 A 
ATOM     15  C   UNL     1       0.054  -2.081   1.198  0.00  0.00    +0.010 A 
ATOM     16  C   UNL     1       0.056  -0.702   1.199  0.00  0.00    +0.004 A 
ENDBRANCH   1  14
BRANCH   7  17
ATOM     17  C   UNL     1       0.095  -6.867  -3.685  0.00  0.00    +0.253 C 
ATOM     18  O   UNL     1       0.094  -5.709  -4.059  0.00  0.00    -0.270 OA
ATOM     19  N   UNL     1       0.103  -7.867  -4.589  0.00  0.00    -0.281 N 
ATOM     20  H   UNL     1       0.185  -8.788  -4.293  0.00  0.00    +0.155 HD
BRANCH  19  21
ATOM     21  C   UNL     1      -0.005  -7.580  -5.946  0.00  0.00    +0.048 A 
ATOM     22  C   UNL     1      -0.627  -6.410  -6.362  0.00  0.00    +0.039 A 
ATOM     23  C   UNL     1      -0.733  -6.126  -7.721  0.00  0.00    +0.061 A 
ATOM     24  C   UNL     1      -0.214  -7.016  -8.667  0.00  0.00    +0.016 A 
ATOM     25  C   UNL     1       0.403  -8.176  -8.259  0.00  0.00    +0.017 A 
ATOM     26  C   UNL     1       0.519  -8.467  -6.898  0.00  0.00    +0.080 A 
BRANCH  26  27
ATOM     27  C   UNL     1       1.186  -9.709  -6.461  0.00  0.00    +0.341 C 
ATOM     28  O   UNL     1       1.204 -10.008  -5.284  0.00  0.00    -0.245 OA
BRANCH  27  29
ATOM     29  O   UNL     1       1.776 -10.511  -7.369  0.00  0.00    -0.464 OA
ATOM     30  C   UNL     1       2.403 -11.697  -6.876  0.00  0.00    +0.280 C 
ENDBRANCH  27  29
ENDBRANCH  26  27
BRANCH  23  31
ATOM     31  C   UNL     1      -1.396  -4.880  -8.166  0.00  0.00    +0.339 C 
ATOM     32  O   UNL     1      -1.847  -4.107  -7.345  0.00  0.00    -0.245 OA
BRANCH  31  33
ATOM     33  O   UNL     1      -1.499  -4.604  -9.480  0.00  0.00    -0.464 OA
ATOM     34  C   UNL     1      -2.152  -3.384  -9.837  0.00  0.00    +0.280 C 
ENDBRANCH  31  33
ENDBRANCH  23  31
ENDBRANCH  19  21
ENDBRANCH   7  17
BRANCH   3  35
ATOM     35  C   UNL     1       0.052  -7.111   2.454  0.00  0.00    +0.390 C 
ATOM     36  F   UNL     1       0.043  -6.230   3.541  0.00  0.00    -0.202 F 
ATOM     37  F   UNL     1      -1.089  -7.919   2.499  0.00  0.00    -0.202 F 
ENDBRANCH   3  35
TORSDOF 8
