REMARK  Name = ZINC12391199
REMARK  7 active torsions:
REMARK  status: ('A' for Active; 'I' for Inactive)
REMARK    1  A    between atoms: C_1  and  C_2
REMARK    2  A    between atoms: C_2  and  C_3
REMARK    3  A    between atoms: C_2  and  C_4
REMARK    4  A    between atoms: C_7  and  N_10
REMARK    5  A    between atoms: C_11  and  C_13
REMARK    6  A    between atoms: C_30  and  C_33
REMARK    7  A    between atoms: C_33  and  C_34
REMARK                            x       y       z     vdW  Elec       q    Type
REMARK                         _______ _______ _______ _____ _____    ______ ____
ROOT
ATOM      1  C   UNL     1      -1.291  -0.797   0.018  0.00  0.00    +0.122 C 
ATOM      2  C   UNL     1      -1.117  -2.094  -0.775  0.00  0.00    +0.114 C 
ATOM      3  C   UNL     1       0.155  -2.780  -0.353  0.00  0.00    +0.219 C 
ATOM      4  O   UNL     1       0.189  -3.990  -0.281  0.00  0.00    -0.275 OA
ATOM      5  N   UNL     1       1.255  -2.066  -0.056  0.00  0.00    -0.270 N 
ATOM      6  C   UNL     1       1.213  -0.683  -0.011  0.00  0.00    +0.138 A 
ATOM      7  C   UNL     1      -0.002  -0.022   0.005  0.00  0.00    +0.069 A 
ATOM      8  C   UNL     1      -0.015   1.377   0.022  0.00  0.00    +0.258 A 
ATOM      9  O   UNL     1      -1.072   1.989   0.032  0.00  0.00    -0.267 OA
ATOM     10  N   UNL     1       1.163   2.036   0.021  0.00  0.00    -0.295 N 
ATOM     11  H   UNL     1       1.176   3.006   0.020  0.00  0.00    +0.172 HD
ATOM     12  C   UNL     1       2.333   1.340   0.022  0.00  0.00    +0.200 A 
ATOM     13  N   UNL     1       2.350   0.024   0.008  0.00  0.00    -0.200 NA
ATOM     14  N   UNL     1       3.518   2.025   0.037  0.00  0.00    -0.301 N 
ATOM     15  C   UNL     1       3.548   3.050  -1.014  0.00  0.00    +0.108 C 
ATOM     16  C   UNL     1       4.821   3.888  -0.875  0.00  0.00    +0.023 C 
ATOM     17  C   UNL     1       6.043   2.974  -0.993  0.00  0.00    -0.004 C 
ATOM     18  C   UNL     1       5.964   1.887   0.082  0.00  0.00    +0.023 C 
ATOM     19  C   UNL     1       4.658   1.106  -0.084  0.00  0.00    +0.108 C 
ATOM     20  H   UNL     1       2.088  -2.525   0.130  0.00  0.00    +0.156 HD
ENDROOT
BRANCH   1  22
ATOM     21  N   UNL     1      -3.517   0.281   0.071  0.00  0.00    -0.285 N 
ATOM     22  C   UNL     1      -2.382   0.032  -0.611  0.00  0.00    +0.225 C 
ATOM     23  O   UNL     1      -2.237   0.476  -1.731  0.00  0.00    -0.275 OA
ATOM     24  H   UNL     1      -3.601  -0.006   0.994  0.00  0.00    +0.155 HD
BRANCH  21  28
ATOM     25  C   UNL     1      -6.666   2.281  -1.784  0.00  0.00    -0.045 A 
ATOM     26  C   UNL     1      -5.872   1.416  -2.514  0.00  0.00    +0.006 A 
ATOM     27  C   UNL     1      -4.827   0.752  -1.902  0.00  0.00    +0.023 A 
ATOM     28  C   UNL     1      -4.574   0.953  -0.552  0.00  0.00    +0.033 A 
ATOM     29  C   UNL     1      -5.377   1.818   0.180  0.00  0.00    +0.023 A 
ATOM     30  C   UNL     1      -6.417   2.484  -0.439  0.00  0.00    +0.006 A 
BRANCH  25  32
ATOM     31  C   UNL     1      -9.121   2.628  -1.773  0.00  0.00    +0.012 C 
ATOM     32  C   UNL     1      -7.804   3.006  -2.455  0.00  0.00    +0.013 C 
ATOM     33  C   UNL     1      -7.586   4.516  -2.341  0.00  0.00    +0.012 C 
ENDBRANCH  25  32
ENDBRANCH  21  28
ENDBRANCH   1  22
BRANCH  17  34
ATOM     34  C   UNL     1       7.319   3.796  -0.795  0.00  0.00    +0.038 C 
BRANCH  34  35
ATOM     35  C   UNL     1       7.459   4.785  -1.924  0.00  0.00    -0.047 A 
ATOM     36  C   UNL     1       8.146   4.433  -3.070  0.00  0.00    +0.003 A 
ATOM     37  C   UNL     1       8.271   5.338  -4.107  0.00  0.00    +0.000 A 
ATOM     38  C   UNL     1       7.717   6.599  -3.994  0.00  0.00    +0.000 A 
ATOM     39  C   UNL     1       7.033   6.953  -2.845  0.00  0.00    +0.000 A 
ATOM     40  C   UNL     1       6.905   6.046  -1.810  0.00  0.00    +0.003 A 
ENDBRANCH  34  35
ENDBRANCH  17  34
TORSDOF 5
