REMARK  Name = ZINC49227210
REMARK  9 active torsions:
REMARK  status: ('A' for Active; 'I' for Inactive)
REMARK    1  A    between atoms: C_1  and  C_2
REMARK    2  A    between atoms: C_5  and  C_7
REMARK    3  A    between atoms: C_7  and  C_9
REMARK    4  A    between atoms: C_7  and  N_10
REMARK    5  A    between atoms: N_10  and  S_11
REMARK    6  A    between atoms: S_11  and  C_14
REMARK    7  A    between atoms: C_17  and  C_19
REMARK    8  A    between atoms: C_19  and  C_20
REMARK    9  A    between atoms: C_20  and  N_21
REMARK                            x       y       z     vdW  Elec       q    Type
REMARK                         _______ _______ _______ _____ _____    ______ ____
ROOT
ATOM      1  S   UNL     1       3.492  -4.181  -1.804  0.00  0.00    +0.065 S 
ATOM      2  O   UNL     1       4.528  -3.591  -2.576  0.00  0.00    -0.153 OA
ATOM      3  O   UNL     1       3.729  -5.255  -0.904  0.00  0.00    -0.153 OA
ENDROOT
BRANCH   1   4
ATOM      4  C   UNL     1       2.269  -4.739  -2.943  0.00  0.00    +0.143 A 
ATOM      5  C   UNL     1       2.018  -4.310  -4.204  0.00  0.00    +0.036 A 
ATOM      6  C   UNL     1       0.996  -4.902  -4.922  0.00  0.00    +0.013 A 
ATOM      7  C   UNL     1       0.275  -5.894  -4.345  0.00  0.00    -0.010 A 
ATOM      8  S   UNL     1       1.045  -6.023  -2.739  0.00  0.00    -0.074 S 
BRANCH   7   9
ATOM      9  C   UNL     1      -0.874  -6.687  -4.912  0.00  0.00    +0.023 C 
BRANCH   9  10
ATOM     10  C   UNL     1      -0.334  -7.931  -5.622  0.00  0.00    -0.081 C 
BRANCH  10  11
ATOM     11  N   UNL     1      -1.454  -8.703  -6.175  0.00  0.00    +0.378 N 
ATOM     12  H   UNL     1      -2.071  -8.983  -5.428  0.00  0.00    -0.090 HD
ATOM     13  H   UNL     1      -1.962  -8.134  -6.835  0.00  0.00    -0.090 HD
ATOM     14  H   UNL     1      -1.098  -9.523  -6.643  0.00  0.00    -0.090 HD
ENDBRANCH  10  11
ENDBRANCH   9  10
ENDBRANCH   7   9
ENDBRANCH   1   4
BRANCH   1  15
ATOM     15  N   UNL     1       2.811  -2.961  -0.914  0.00  0.00    -0.179 NA
ATOM     16  H   UNL     1       3.159  -2.058  -0.984  0.00  0.00    +0.149 HD
BRANCH  15  17
ATOM     17  C   UNL     1       1.684  -3.245  -0.023  0.00  0.00    +0.139 C 
ATOM     18  C   UNL     1       2.205  -3.494   1.394  0.00  0.00    +0.034 C 
BRANCH  17  23
ATOM     19  C   UNL     1      -0.018   1.503   0.010  0.00  0.00    +0.086 C 
ATOM     20  C   UNL     1       0.002  -0.004   0.002  0.00  0.00    +0.102 A 
ATOM     21  C   UNL     1      -1.078  -0.805   0.003  0.00  0.00    +0.045 A 
ATOM     22  C   UNL     1      -0.601  -2.136  -0.007  0.00  0.00    +0.046 A 
ATOM     23  C   UNL     1       0.742  -2.069  -0.013  0.00  0.00    +0.123 A 
ATOM     24  O   UNL     1       1.102  -0.775  -0.013  0.00  0.00    -0.463 OA
ENDBRANCH  17  23
ENDBRANCH  15  17
ENDBRANCH   1  15
TORSDOF 7
