REMARK  Name = ZINC16805533
REMARK  12 active torsions:
REMARK  status: ('A' for Active; 'I' for Inactive)
REMARK    1  A    between atoms: C_1  and  C_2
REMARK    2  A    between atoms: C_5  and  C_9
REMARK    3  A    between atoms: C_9  and  C_11
REMARK    4  A    between atoms: C_12  and  O_37
REMARK    5  A    between atoms: C_16  and  C_18
REMARK    6  A    between atoms: C_21  and  C_24
REMARK    7  A    between atoms: C_24  and  C_25
REMARK    8  A    between atoms: C_24  and  C_26
REMARK    9  A    between atoms: C_29  and  C_36
REMARK   10  A    between atoms: C_30  and  C_32
REMARK   11  A    between atoms: C_32  and  O_34
REMARK   12  A    between atoms: O_34  and  C_35
REMARK                            x       y       z     vdW  Elec       q    Type
REMARK                         _______ _______ _______ _____ _____    ______ ____
ROOT
ATOM      1  C   UNL     1       5.963   2.023  -0.001  0.00  0.00    +0.071 C 
ATOM      2  C   UNL     1       5.442   3.269  -0.107  0.00  0.00    +0.189 C 
ATOM      3  C   UNL     1       3.969   3.174  -0.169  0.00  0.00    +0.288 C 
ATOM      4  O   UNL     1       3.214   4.121  -0.271  0.00  0.00    -0.266 OA
ATOM      5  N   UNL     1       3.587   1.887  -0.095  0.00  0.00    -0.232 N 
ATOM      6  C   UNL     1       4.797   1.062   0.013  0.00  0.00    +0.151 C 
ATOM      7  C   UNL     1       2.286   1.421  -0.120  0.00  0.00    +0.169 A 
ATOM      8  N   UNL     1       1.161   2.113  -0.214  0.00  0.00    -0.229 NA
ATOM      9  C   UNL     1      -0.006   1.524  -0.225  0.00  0.00    +0.062 A 
ATOM     10  C   UNL     1      -0.032   0.139  -0.135  0.00  0.00    +0.120 A 
ATOM     11  S   UNL     1       1.716  -0.217  -0.037  0.00  0.00    -0.045 S 
ATOM     12  C   UNL     1      -1.280   2.322  -0.339  0.00  0.00    +0.067 C 
ENDROOT
BRANCH   6  13
ATOM     13  C   UNL     1       4.782   0.285   1.303  0.00  0.00    -0.022 A 
ATOM     14  C   UNL     1       4.410   0.906   2.480  0.00  0.00    +0.006 A 
ATOM     15  C   UNL     1       4.391   0.191   3.663  0.00  0.00    +0.004 A 
ATOM     16  C   UNL     1       4.754  -1.142   3.671  0.00  0.00    -0.045 A 
ATOM     17  C   UNL     1       5.131  -1.763   2.494  0.00  0.00    +0.004 A 
ATOM     18  C   UNL     1       5.145  -1.049   1.311  0.00  0.00    +0.006 A 
BRANCH  16  19
ATOM     19  C   UNL     1       4.739  -1.920   4.962  0.00  0.00    +0.013 C 
ATOM     20  C   UNL     1       5.699  -1.270   5.960  0.00  0.00    +0.012 C 
ATOM     21  C   UNL     1       3.323  -1.920   5.541  0.00  0.00    +0.012 C 
ENDBRANCH  16  19
ENDBRANCH   6  13
BRANCH   1  22
ATOM     22  C   UNL     1       7.384   1.674   0.084  0.00  0.00    +0.195 C 
ATOM     23  O   UNL     1       8.036   2.011   1.054  0.00  0.00    -0.287 OA
BRANCH  22  28
ATOM     24  C   UNL     1       9.885  -1.289  -4.171  0.00  0.00    +0.047 C 
ATOM     25  C   UNL     1       9.229  -0.513  -3.058  0.00  0.00    -0.015 A 
ATOM     26  C   UNL     1       9.939  -0.233  -1.903  0.00  0.00    +0.007 A 
ATOM     27  C   UNL     1       9.346   0.477  -0.880  0.00  0.00    +0.012 A 
ATOM     28  C   UNL     1       8.025   0.914  -1.010  0.00  0.00    +0.025 A 
ATOM     29  C   UNL     1       7.312   0.624  -2.174  0.00  0.00    +0.050 A 
ATOM     30  C   UNL     1       7.919  -0.083  -3.195  0.00  0.00    +0.127 A 
ATOM     31  F   UNL     1       7.233  -0.360  -4.325  0.00  0.00    -0.205 F 
ENDBRANCH  22  28
ENDBRANCH   1  22
BRANCH  10  32
ATOM     32  C   UNL     1      -1.173  -0.775  -0.123  0.00  0.00    +0.347 C 
ATOM     33  O   UNL     1      -2.305  -0.336  -0.200  0.00  0.00    -0.244 OA
BRANCH  32  34
ATOM     34  O   UNL     1      -0.971  -2.106  -0.027  0.00  0.00    -0.464 OA
ATOM     35  C   UNL     1      -2.131  -2.939  -0.021  0.00  0.00    +0.280 C 
ENDBRANCH  32  34
ENDBRANCH  10  32
BRANCH   2  36
ATOM     36  O   UNL     1       6.157   4.416  -0.153  0.00  0.00    -0.502 OA
ATOM     37  H   UNL     1       5.533   5.194  -0.232  0.00  0.00    +0.292 HD
ENDBRANCH   2  36
TORSDOF 7
