REMARK  Name = ZINC35038942
REMARK  10 active torsions:
REMARK  status: ('A' for Active; 'I' for Inactive)
REMARK    1  A    between atoms: C_1  and  C_2
REMARK    2  A    between atoms: C_2  and  C_3
REMARK    3  A    between atoms: C_3  and  C_4
REMARK    4  A    between atoms: C_4  and  N_5
REMARK    5  A    between atoms: N_5  and  C_6
REMARK    6  A    between atoms: C_6  and  C_8
REMARK    7  A    between atoms: C_6  and  C_9
REMARK    8  A    between atoms: N_19  and  C_20
REMARK    9  A    between atoms: N_29  and  C_30
REMARK   10  A    between atoms: C_35  and  C_36
REMARK                            x       y       z     vdW  Elec       q    Type
REMARK                         _______ _______ _______ _____ _____    ______ ____
ROOT
ATOM      1  C   UNL     1       1.550  -2.789  -1.733  0.00  0.00    +0.141 C 
ATOM      2  C   UNL     1       1.582  -3.923  -0.707  0.00  0.00    +0.036 C 
ENDROOT
BRANCH   1   3
ATOM      3  C   UNL     1       2.720  -1.868  -1.501  0.00  0.00    +0.138 A 
ATOM      4  N   UNL     1       3.368  -1.965  -0.379  0.00  0.00    -0.231 NA
ATOM      5  C   UNL     1       4.431  -1.170  -0.101  0.00  0.00    +0.078 A 
ATOM      6  C   UNL     1       5.128  -1.275   1.105  0.00  0.00    +0.028 A 
ATOM      7  C   UNL     1       6.202  -0.448   1.346  0.00  0.00    +0.002 A 
ATOM      8  C   UNL     1       6.601   0.492   0.405  0.00  0.00    +0.001 A 
ATOM      9  C   UNL     1       5.930   0.615  -0.792  0.00  0.00    +0.015 A 
ATOM     10  C   UNL     1       4.841  -0.214  -1.056  0.00  0.00    +0.065 A 
ATOM     11  C   UNL     1       4.087  -0.128  -2.315  0.00  0.00    +0.266 A 
ATOM     12  O   UNL     1       4.388   0.674  -3.179  0.00  0.00    -0.267 OA
ATOM     13  N   UNL     1       3.048  -0.980  -2.478  0.00  0.00    -0.263 N 
BRANCH  13  14
ATOM     14  C   UNL     1       2.299  -0.944  -3.662  0.00  0.00    +0.051 A 
ATOM     15  C   UNL     1       1.479   0.144  -3.933  0.00  0.00    +0.029 A 
ATOM     16  C   UNL     1       0.743   0.178  -5.101  0.00  0.00    +0.040 A 
ATOM     17  C   UNL     1       0.821  -0.871  -6.001  0.00  0.00    +0.124 A 
ATOM     18  C   UNL     1       1.637  -1.957  -5.732  0.00  0.00    +0.040 A 
ATOM     19  C   UNL     1       2.380  -1.992  -4.569  0.00  0.00    +0.029 A 
ATOM     20  F   UNL     1       0.100  -0.836  -7.143  0.00  0.00    -0.205 F 
ENDBRANCH  13  14
ENDBRANCH   1   3
BRANCH   1  21
ATOM     21  N   UNL     1       0.301  -2.037  -1.592  0.00  0.00    -0.276 N 
ATOM     22  C   UNL     1      -0.601  -2.035  -2.594  0.00  0.00    +0.307 C 
ATOM     23  O   UNL     1      -0.378  -2.657  -3.614  0.00  0.00    -0.252 OA
ATOM     24  N   UNL     1      -1.750  -1.343  -2.464  0.00  0.00    -0.269 N 
ATOM     25  H   UNL     1      -1.898  -0.790  -1.680  0.00  0.00    +0.156 HD
BRANCH  24  26
ATOM     26  C   UNL     1      -2.730  -1.421  -3.460  0.00  0.00    +0.038 A 
ATOM     27  C   UNL     1      -2.859  -2.576  -4.220  0.00  0.00    +0.023 A 
ATOM     28  C   UNL     1      -3.828  -2.651  -5.201  0.00  0.00    +0.002 A 
ATOM     29  C   UNL     1      -4.668  -1.576  -5.428  0.00  0.00    +0.000 A 
ATOM     30  C   UNL     1      -4.542  -0.425  -4.674  0.00  0.00    +0.005 A 
ATOM     31  C   UNL     1      -3.579  -0.346  -3.686  0.00  0.00    -0.029 A 
ATOM     32  C   UNL     1      -3.447   0.907  -2.860  0.00  0.00    +0.045 C 
ENDBRANCH  24  26
BRANCH  21  33
ATOM     33  C   UNL     1       0.032  -1.287  -0.363  0.00  0.00    +0.110 C 
BRANCH  33  34
ATOM     34  C   UNL     1       0.450   0.172  -0.554  0.00  0.00    +0.019 C 
BRANCH  34  36
ATOM     35  C   UNL     1       0.469   2.442   0.491  0.00  0.00    +0.004 C 
ATOM     36  C   UNL     1       0.052   0.983   0.682  0.00  0.00    -0.002 C 
ENDBRANCH  34  36
ENDBRANCH  33  34
ENDBRANCH  21  33
ENDBRANCH   1  21
TORSDOF 7
