REMARK  Name = ZINC14642699
REMARK  11 active torsions:
REMARK  status: ('A' for Active; 'I' for Inactive)
REMARK    1  A    between atoms: C_1  and  C_2
REMARK    2  A    between atoms: C_6  and  C_32
REMARK    3  A    between atoms: C_7  and  O_8
REMARK    4  A    between atoms: O_8  and  C_9
REMARK    5  A    between atoms: C_9  and  C_11
REMARK    6  A    between atoms: C_9  and  C_12
REMARK    7  A    between atoms: N_14  and  C_15
REMARK    8  A    between atoms: C_18  and  S_21
REMARK    9  A    between atoms: S_21  and  N_24
REMARK   10  A    between atoms: N_24  and  C_25
REMARK   11  A    between atoms: N_24  and  C_26
REMARK                            x       y       z     vdW  Elec       q    Type
REMARK                         _______ _______ _______ _____ _____    ______ ____
ROOT
ATOM      1  C   UNL     1       7.031   2.354   2.632  0.00  0.00    +0.034 A 
ATOM      2  C   UNL     1       7.604   1.236   2.041  0.00  0.00    +0.025 A 
ATOM      3  C   UNL     1       6.967   0.610   0.988  0.00  0.00    +0.030 A 
ATOM      4  C   UNL     1       5.759   1.096   0.521  0.00  0.00    +0.109 A 
ATOM      5  C   UNL     1       5.189   2.213   1.103  0.00  0.00    +0.030 A 
ATOM      6  C   UNL     1       5.818   2.840   2.161  0.00  0.00    +0.025 A 
ENDROOT
BRANCH   1   9
ATOM      7  C   UNL     1       8.355   2.262   4.606  0.00  0.00    +0.258 C 
ATOM      8  O   UNL     1       8.490   1.067   4.447  0.00  0.00    -0.271 OA
ATOM      9  N   UNL     1       7.674   2.990   3.700  0.00  0.00    -0.282 N 
ATOM     10  H   UNL     1       7.629   3.955   3.788  0.00  0.00    +0.155 HD
BRANCH   7  11
ATOM     11  C   UNL     1       8.950   2.932   5.818  0.00  0.00    +0.256 C 
ATOM     12  C   UNL     1       9.952   3.998   5.371  0.00  0.00    +0.062 C 
BRANCH  11  13
ATOM     13  O   UNL     1       9.617   1.957   6.622  0.00  0.00    -0.479 OA
BRANCH  13  20
ATOM     14  C   UNL     1      11.877   3.190   7.785  0.00  0.00    +0.047 C 
ATOM     15  C   UNL     1      10.684   2.752   8.594  0.00  0.00    -0.007 A 
ATOM     16  C   UNL     1      10.664   2.953   9.961  0.00  0.00    +0.022 A 
ATOM     17  C   UNL     1       9.571   2.546  10.705  0.00  0.00    +0.019 A 
ATOM     18  C   UNL     1       8.494   1.942  10.082  0.00  0.00    +0.022 A 
ATOM     19  C   UNL     1       8.507   1.744   8.715  0.00  0.00    -0.007 A 
ATOM     20  C   UNL     1       9.602   2.151   7.967  0.00  0.00    +0.127 A 
ATOM     21  C   UNL     1       7.334   1.085   8.037  0.00  0.00    +0.047 C 
ATOM     22 BR   UNL     1       9.550   2.816  12.577  0.00  0.00    -0.050 Br
ENDBRANCH  13  20
ENDBRANCH  11  13
ENDBRANCH   7  11
ENDBRANCH   1   9
BRANCH   4  23
ATOM     23  S   UNL     1       4.950   0.295  -0.824  0.00  0.00    +0.074 S 
ATOM     24  O   UNL     1       5.971  -0.266  -1.636  0.00  0.00    -0.150 OA
ATOM     25  O   UNL     1       3.994   1.217  -1.330  0.00  0.00    -0.150 OA
BRANCH  23  26
ATOM     26  N   UNL     1       4.094  -0.975  -0.194  0.00  0.00    -0.206 N 
ATOM     27  C   UNL     1       4.749  -2.270   0.009  0.00  0.00    +0.157 C 
BRANCH  26  28
ATOM     28  C   UNL     1       2.749  -0.811   0.145  0.00  0.00    +0.051 A 
ATOM     29  C   UNL     1       1.897  -1.908   0.158  0.00  0.00    +0.025 A 
ATOM     30  C   UNL     1       0.567  -1.743   0.492  0.00  0.00    +0.002 A 
ATOM     31  C   UNL     1       0.084  -0.488   0.814  0.00  0.00    +0.000 A 
ATOM     32  C   UNL     1       0.930   0.606   0.801  0.00  0.00    +0.002 A 
ATOM     33  C   UNL     1       2.260   0.448   0.468  0.00  0.00    +0.025 A 
ENDBRANCH  26  28
ENDBRANCH  23  26
ENDBRANCH   4  23
TORSDOF 7
