REMARK  Name = ZINC64085470
REMARK  4 active torsions:
REMARK  status: ('A' for Active; 'I' for Inactive)
REMARK    1  A    between atoms: C_4  and  C_7
REMARK    2  A    between atoms: C_7  and  C_8
REMARK    3  A    between atoms: C_14  and  C_15
REMARK    4  A    between atoms: N_17  and  C_18
REMARK                            x       y       z     vdW  Elec       q    Type
REMARK                         _______ _______ _______ _____ _____    ______ ____
ROOT
ATOM      1  C   UNL     1       7.848  -2.032  -0.058  0.00  0.00    +0.243 C 
ATOM      2  O   UNL     1       6.933  -2.823  -0.200  0.00  0.00    -0.270 OA
ATOM      3  N   UNL     1       8.992  -2.193  -0.751  0.00  0.00    -0.282 N 
ATOM      4  H   UNL     1       9.695  -1.527  -0.689  0.00  0.00    +0.155 HD
ENDROOT
BRANCH   3   5
ATOM      5  C   UNL     1       9.167  -3.321  -1.562  0.00  0.00    +0.036 A 
ATOM      6  C   UNL     1      10.423  -3.904  -1.680  0.00  0.00    +0.027 A 
ATOM      7  C   UNL     1      10.602  -5.016  -2.477  0.00  0.00    +0.050 A 
ATOM      8  C   UNL     1       9.525  -5.557  -3.163  0.00  0.00    +0.157 A 
ATOM      9  C   UNL     1       8.263  -4.975  -3.046  0.00  0.00    +0.089 A 
ATOM     10  C   UNL     1       8.084  -3.861  -2.241  0.00  0.00    +0.052 A 
ATOM     11  N   UNL     1       7.400  -5.729  -3.840  0.00  0.00    -0.288 N 
ATOM     12  H   UNL     1       6.451  -5.572  -3.965  0.00  0.00    +0.172 HD
ATOM     13  C   UNL     1       8.126  -6.716  -4.402  0.00  0.00    +0.419 A 
ATOM     14  O   UNL     1       7.691  -7.564  -5.158  0.00  0.00    -0.223 OA
ATOM     15  O   UNL     1       9.402  -6.618  -4.000  0.00  0.00    -0.408 OA
ENDBRANCH   3   5
BRANCH   1  21
ATOM     16  C   UNL     1       4.171  -0.972   1.403  0.00  0.00    +0.133 C 
ATOM     17  N   UNL     1       5.500  -1.621   1.426  0.00  0.00    -0.334 N 
ATOM     18  C   UNL     1       6.564  -0.783   1.529  0.00  0.00    +0.020 C 
ATOM     19  C   UNL     1       6.328   0.361   2.514  0.00  0.00    +0.121 C 
ATOM     20  S   UNL     1       4.517   0.619   2.266  0.00  0.00    -0.132 S 
ATOM     21  C   UNL     1       7.709  -0.944   0.835  0.00  0.00    +0.086 C 
ATOM     22  H   UNL     1       5.605  -2.584   1.372  0.00  0.00    +0.147 HD
BRANCH  16  23
ATOM     23  C   UNL     1       3.706  -0.727  -0.034  0.00  0.00    +0.068 C 
BRANCH  23  27
ATOM     24  C   UNL     1      -0.031   1.342   0.009  0.00  0.00    +0.000 A 
ATOM     25  C   UNL     1       1.153   2.054  -0.005  0.00  0.00    +0.000 A 
ATOM     26  C   UNL     1       2.363   1.385  -0.019  0.00  0.00    +0.004 A 
ATOM     27  C   UNL     1       2.388   0.003  -0.018  0.00  0.00    -0.045 A 
ATOM     28  C   UNL     1       1.203  -0.710  -0.003  0.00  0.00    +0.004 A 
ATOM     29  C   UNL     1      -0.006  -0.040   0.010  0.00  0.00    +0.000 A 
ENDBRANCH  23  27
ENDBRANCH  16  23
ENDBRANCH   1  21
TORSDOF 4
