REMARK  Name = ZINC05390462
REMARK  8 active torsions:
REMARK  status: ('A' for Active; 'I' for Inactive)
REMARK    1  A    between atoms: C_3  and  N_25
REMARK    2  A    between atoms: C_6  and  C_7
REMARK    3  A    between atoms: C_7  and  C_8
REMARK    4  A    between atoms: C_11  and  N_14
REMARK    5  A    between atoms: N_17  and  C_18
REMARK    6  A    between atoms: C_18  and  C_19
REMARK    7  A    between atoms: N_28  and  C_29
REMARK    8  A    between atoms: C_29  and  C_30
REMARK                            x       y       z     vdW  Elec       q    Type
REMARK                         _______ _______ _______ _____ _____    ______ ____
ROOT
ATOM      1  C   UNL     1      -9.145   8.193  -3.561  0.00  0.00    +0.070 C 
ENDROOT
BRANCH   1   7
ATOM      2  C   UNL     1     -10.815   6.789  -4.787  0.00  0.00    +0.006 A 
ATOM      3  C   UNL     1     -11.928   5.971  -4.812  0.00  0.00    +0.023 A 
ATOM      4  C   UNL     1     -12.600   5.678  -3.633  0.00  0.00    +0.035 A 
ATOM      5  C   UNL     1     -12.147   6.204  -2.430  0.00  0.00    +0.023 A 
ATOM      6  C   UNL     1     -11.030   7.017  -2.410  0.00  0.00    +0.006 A 
ATOM      7  C   UNL     1     -10.363   7.307  -3.587  0.00  0.00    -0.043 A 
BRANCH   4   8
ATOM      8  N   UNL     1     -13.731   4.855  -3.656  0.00  0.00    -0.269 N 
ATOM      9  C   UNL     1     -14.753   5.089  -2.809  0.00  0.00    +0.304 C 
ATOM     10  O   UNL     1     -14.658   5.962  -1.969  0.00  0.00    -0.252 OA
ATOM     11  N   UNL     1     -15.880   4.355  -2.894  0.00  0.00    -0.295 N 
ATOM     12  H   UNL     1     -13.780   4.115  -4.282  0.00  0.00    +0.156 HD
ATOM     13  H   UNL     1     -15.956   3.658  -3.565  0.00  0.00    +0.151 HD
BRANCH  11  14
ATOM     14  C   UNL     1     -16.991   4.609  -1.973  0.00  0.00    +0.141 C 
BRANCH  14  15
ATOM     15  C   UNL     1     -18.122   3.661  -2.276  0.00  0.00    -0.027 A 
ATOM     16  C   UNL     1     -19.113   4.005  -3.183  0.00  0.00    +0.025 A 
ATOM     17  C   UNL     1     -20.132   3.107  -3.439  0.00  0.00    +0.111 A 
ATOM     18  N   UNL     1     -20.173   1.940  -2.826  0.00  0.00    -0.263 NA
ATOM     19  C   UNL     1     -19.251   1.582  -1.954  0.00  0.00    +0.111 A 
ATOM     20  C   UNL     1     -18.199   2.426  -1.651  0.00  0.00    +0.025 A 
ENDBRANCH  14  15
ENDBRANCH  11  14
ENDBRANCH   4   8
ENDBRANCH   1   7
BRANCH   1  21
ATOM     21  C   UNL     1      -7.913   7.348  -3.366  0.00  0.00    -0.043 A 
ATOM     22  C   UNL     1      -7.239   6.846  -4.464  0.00  0.00    +0.006 A 
ATOM     23  C   UNL     1      -6.110   6.070  -4.288  0.00  0.00    +0.023 A 
ATOM     24  C   UNL     1      -5.650   5.797  -3.006  0.00  0.00    +0.035 A 
ATOM     25  C   UNL     1      -6.332   6.299  -1.905  0.00  0.00    +0.023 A 
ATOM     26  C   UNL     1      -7.457   7.078  -2.088  0.00  0.00    +0.006 A 
BRANCH  24  27
ATOM     27  N   UNL     1      -4.506   5.011  -2.824  0.00  0.00    -0.269 N 
ATOM     28  C   UNL     1      -3.487   5.092  -3.702  0.00  0.00    +0.304 C 
ATOM     29  O   UNL     1      -3.595   5.783  -4.697  0.00  0.00    -0.252 OA
ATOM     30  N   UNL     1      -2.349   4.406  -3.478  0.00  0.00    -0.295 N 
ATOM     31  H   UNL     1      -4.447   4.409  -2.066  0.00  0.00    +0.156 HD
ATOM     32  H   UNL     1      -2.263   3.855  -2.684  0.00  0.00    +0.151 HD
BRANCH  30  33
ATOM     33  C   UNL     1      -1.241   4.494  -4.432  0.00  0.00    +0.141 C 
BRANCH  33  34
ATOM     34  C   UNL     1      -0.095   3.641  -3.952  0.00  0.00    -0.027 A 
ATOM     35  C   UNL     1       0.883   4.167  -3.122  0.00  0.00    +0.025 A 
ATOM     36  C   UNL     1       1.921   3.356  -2.706  0.00  0.00    +0.111 A 
ATOM     37  N   UNL     1       1.982   2.093  -3.080  0.00  0.00    -0.263 NA
ATOM     38  C   UNL     1       1.067   1.557  -3.863  0.00  0.00    +0.111 A 
ATOM     39  C   UNL     1       0.002   2.308  -4.324  0.00  0.00    +0.025 A 
ENDBRANCH  33  34
ENDBRANCH  30  33
ENDBRANCH  24  27
ENDBRANCH   1  21
TORSDOF 8
