REMARK  Name = ZINC03840504
REMARK  11 active torsions:
REMARK  status: ('A' for Active; 'I' for Inactive)
REMARK    1  A    between atoms: C_1  and  C_2
REMARK    2  A    between atoms: N_9  and  C_10
REMARK    3  A    between atoms: C_10  and  C_11
REMARK    4  A    between atoms: C_14  and  C_37
REMARK    5  A    between atoms: C_17  and  O_36
REMARK    6  A    between atoms: C_19  and  C_23
REMARK    7  A    between atoms: C_23  and  C_25
REMARK    8  A    between atoms: C_23  and  C_26
REMARK    9  A    between atoms: N_28  and  C_29
REMARK   10  A    between atoms: C_29  and  C_30
REMARK   11  A    between atoms: C_30  and  N_73
REMARK                            x       y       z     vdW  Elec       q    Type
REMARK                         _______ _______ _______ _____ _____    ______ ____
ROOT
ATOM      1  C   UNL     1       2.374  -0.488   3.610  0.00  0.00    +0.014 C 
ATOM      2  C   UNL     1       2.870  -1.063   2.281  0.00  0.00    +0.042 C 
ATOM      3  C   UNL     1       4.388  -0.995   2.234  0.00  0.00    +0.057 A 
ATOM      4  C   UNL     1       5.018  -0.629   1.089  0.00  0.00    +0.015 A 
ATOM      5  S   UNL     1       6.730  -0.715   1.542  0.00  0.00    -0.057 S 
ATOM      6  C   UNL     1       6.490  -1.219   3.188  0.00  0.00    +0.159 A 
ATOM      7  N   UNL     1       5.177  -1.282   3.269  0.00  0.00    -0.229 NA
ATOM      8  N   UNL     1       7.437  -1.484   4.165  0.00  0.00    -0.320 N 
ATOM      9  C   UNL     1       4.399  -0.254  -0.210  0.00  0.00    +0.051 C 
ATOM     10  C   UNL     1       2.918  -0.679  -0.203  0.00  0.00    -0.022 C 
ATOM     11  C   UNL     1       2.272  -0.260   1.120  0.00  0.00    +0.033 C 
ATOM     12  C   UNL     1       0.770  -0.510   1.095  0.00  0.00    +0.123 C 
ATOM     13  C   UNL     1       0.127   0.236  -0.073  0.00  0.00    +0.029 C 
ATOM     14  C   UNL     1       0.739  -0.270  -1.382  0.00  0.00    +0.007 C 
ATOM     15  C   UNL     1       2.236   0.034  -1.374  0.00  0.00    +0.008 C 
ATOM     16  C   UNL     1       2.808  -2.195  -0.379  0.00  0.00    +0.012 C 
ATOM     17  H   UNL     1       7.155  -1.760   5.051  0.00  0.00    +0.148 HD
ENDROOT
BRANCH  13  18
ATOM     18  C   UNL     1       0.388   1.736   0.070  0.00  0.00    +0.077 C 
ATOM     19  C   UNL     1      -0.145   2.221   1.420  0.00  0.00    +0.017 C 
BRANCH  18  20
ATOM     20  C   UNL     1      -0.311   2.477  -1.041  0.00  0.00    +0.216 C 
ATOM     21  O   UNL     1      -0.955   1.864  -1.866  0.00  0.00    -0.276 OA
ATOM     22  N   UNL     1      -0.220   3.819  -1.118  0.00  0.00    -0.317 N 
ATOM     23  H   UNL     1       0.295   4.309  -0.458  0.00  0.00    +0.149 HD
BRANCH  22  24
ATOM     24  C   UNL     1      -0.899   4.538  -2.198  0.00  0.00    +0.085 C 
BRANCH  24  25
ATOM     25  C   UNL     1      -0.638   6.039  -2.055  0.00  0.00    -0.060 C 
BRANCH  25  31
ATOM     26  C   UNL     1      -0.728   6.432  -4.443  0.00  0.00    -0.050 C 
ATOM     27  C   UNL     1      -1.504   7.157  -5.546  0.00  0.00    +0.141 C 
ATOM     28  O   UNL     1      -1.492   8.563  -5.285  0.00  0.00    -0.383 OA
ATOM     29  C   UNL     1      -2.061   8.919  -4.022  0.00  0.00    +0.141 C 
ATOM     30  C   UNL     1      -1.291   8.211  -2.904  0.00  0.00    -0.050 C 
ATOM     31  N   UNL     1      -1.345   6.753  -3.139  0.00  0.00    +0.384 N 
ATOM     32  H   UNL     1      -2.327   6.453  -3.152  0.00  0.00    -0.082 HD
ENDBRANCH  25  31
ENDBRANCH  24  25
ENDBRANCH  22  24
ENDBRANCH  18  20
ENDBRANCH  13  18
BRANCH  12  33
ATOM     33  O   UNL     1       0.187  -0.064   2.320  0.00  0.00    -0.391 OA
ATOM     34  H   UNL     1      -0.767  -0.210   2.378  0.00  0.00    +0.210 HD
ENDBRANCH  12  33
BRANCH   8  35
ATOM     35  C   UNL     1       8.863  -1.349   3.859  0.00  0.00    +0.130 C 
BRANCH  35  36
ATOM     36  C   UNL     1       9.675  -1.693   5.081  0.00  0.00    -0.016 C 
ATOM     37  C   UNL     1      10.602  -2.616   5.014  0.00  0.00    +0.005 C 
ENDBRANCH  35  36
ENDBRANCH   8  35
TORSDOF 8
