REMARK  Name = ZINC38965188
REMARK  4 active torsions:
REMARK  status: ('A' for Active; 'I' for Inactive)
REMARK    1  A    between atoms: C_6  and  C_7
REMARK    2  A    between atoms: N_13  and  N_14
REMARK    3  A    between atoms: C_15  and  C_16
REMARK    4  A    between atoms: C_21  and  O_22
REMARK                            x       y       z     vdW  Elec       q    Type
REMARK                         _______ _______ _______ _____ _____    ______ ____
ROOT
ATOM      1  C   UNL     1      -1.306  -0.782   0.021  0.00  0.00    +0.264 C 
ATOM      2  N   UNL     1      -2.340  -0.051  -0.727  0.00  0.00    -0.189 NA
ATOM      3  N   UNL     1      -2.684  -0.748  -1.686  0.00  0.00    -0.219 N 
ATOM      4  C   UNL     1      -2.025  -1.935  -1.755  0.00  0.00    +0.174 C 
ATOM      5  S   UNL     1      -2.270  -3.124  -2.962  0.00  0.00    -0.015 S 
ATOM      6  N   UNL     1      -1.147  -2.042  -0.729  0.00  0.00    -0.172 N 
ATOM      7  H   UNL     1      -3.358  -0.475  -2.328  0.00  0.00    +0.176 HD
ENDROOT
BRANCH   1  13
ATOM      8  C   UNL     1      -0.037   1.375   0.051  0.00  0.00    +0.010 A 
ATOM      9  C   UNL     1       1.147   2.087   0.061  0.00  0.00    +0.039 A 
ATOM     10  C   UNL     1       2.358   1.415   0.051  0.00  0.00    +0.123 A 
ATOM     11  C   UNL     1       2.381   0.031   0.032  0.00  0.00    +0.039 A 
ATOM     12  C   UNL     1       1.195  -0.679   0.022  0.00  0.00    +0.010 A 
ATOM     13  C   UNL     1      -0.013  -0.007   0.032  0.00  0.00    -0.002 A 
ATOM     14  F   UNL     1       3.517   2.110   0.061  0.00  0.00    -0.205 F 
ENDBRANCH   1  13
BRANCH   6  15
ATOM     15  N   UNL     1      -0.283  -3.107  -0.443  0.00  0.00    -0.183 NA
ATOM     16  C   UNL     1      -0.345  -4.200  -1.143  0.00  0.00    +0.142 C 
BRANCH  16  17
ATOM     17  C   UNL     1       0.485  -5.360  -0.773  0.00  0.00    +0.037 A 
ATOM     18  C   UNL     1       0.425  -6.535  -1.526  0.00  0.00    +0.028 A 
ATOM     19  C   UNL     1       1.205  -7.617  -1.174  0.00  0.00    +0.019 A 
ATOM     20  C   UNL     1       2.047  -7.543  -0.077  0.00  0.00    +0.019 A 
ATOM     21  C   UNL     1       2.115  -6.386   0.676  0.00  0.00    +0.047 A 
ATOM     22  C   UNL     1       1.343  -5.288   0.333  0.00  0.00    +0.126 A 
ATOM     23 BR   UNL     1       1.123  -9.208  -2.193  0.00  0.00    -0.050 Br
BRANCH  22  24
ATOM     24  O   UNL     1       1.413  -4.149   1.069  0.00  0.00    -0.506 OA
ATOM     25  H   UNL     1       0.785  -4.116   1.804  0.00  0.00    +0.292 HD
ENDBRANCH  22  24
ENDBRANCH  16  17
ENDBRANCH   6  15
TORSDOF 4
