REMARK  Name = ZINC09412901
REMARK  8 active torsions:
REMARK  status: ('A' for Active; 'I' for Inactive)
REMARK    1  A    between atoms: C_1  and  C_2
REMARK    2  A    between atoms: N_10  and  C_14
REMARK    3  A    between atoms: C_14  and  N_65
REMARK    4  A    between atoms: C_15  and  N_65
REMARK    5  A    between atoms: C_16  and  C_17
REMARK    6  A    between atoms: C_16  and  N_65
REMARK    7  A    between atoms: N_19  and  C_28
REMARK    8  A    between atoms: C_21  and  C_22
REMARK                            x       y       z     vdW  Elec       q    Type
REMARK                         _______ _______ _______ _____ _____    ______ ____
ROOT
ATOM      1  C   UNL     1       1.346   2.010   0.000  0.00  0.00    -0.037 C 
ENDROOT
BRANCH   1   2
ATOM      2  C   UNL     1       1.296   3.494   0.255  0.00  0.00    -0.018 A 
ATOM      3  C   UNL     1       1.385   4.465  -0.680  0.00  0.00    +0.116 A 
ATOM      4  N   UNL     1       1.294   5.663  -0.046  0.00  0.00    -0.239 N 
ATOM      5  N   UNL     1       1.153   5.418   1.326  0.00  0.00    -0.166 NA
ATOM      6  C   UNL     1       1.154   4.115   1.512  0.00  0.00    +0.094 A 
BRANCH   6   7
ATOM      7  C   UNL     1       1.028   3.421   2.817  0.00  0.00    +0.002 A 
ATOM      8  C   UNL     1       0.338   2.214   2.904  0.00  0.00    +0.010 A 
ATOM      9  C   UNL     1       0.228   1.570   4.119  0.00  0.00    +0.001 A 
ATOM     10  C   UNL     1       0.792   2.127   5.253  0.00  0.00    +0.000 A 
ATOM     11  C   UNL     1       1.473   3.328   5.174  0.00  0.00    +0.001 A 
ATOM     12  C   UNL     1       1.594   3.978   3.963  0.00  0.00    +0.010 A 
ENDBRANCH   6   7
BRANCH   4  13
ATOM     13  C   UNL     1       1.338   6.923  -0.657  0.00  0.00    +0.065 A 
ATOM     14  C   UNL     1       1.487   7.024  -2.034  0.00  0.00    +0.028 A 
ATOM     15  C   UNL     1       1.525   8.267  -2.634  0.00  0.00    +0.002 A 
ATOM     16  C   UNL     1       1.425   9.412  -1.864  0.00  0.00    +0.000 A 
ATOM     17  C   UNL     1       1.282   9.315  -0.492  0.00  0.00    +0.002 A 
ATOM     18  C   UNL     1       1.238   8.074   0.113  0.00  0.00    +0.028 A 
ENDBRANCH   4  13
ENDBRANCH   1   2
BRANCH   1  20
ATOM     19  C   UNL     1      -0.802   1.987  -1.117  0.00  0.00    -0.093 C 
ATOM     20  N   UNL     1      -0.030   1.473   0.034  0.00  0.00    +0.391 N 
ATOM     21  H   UNL     1      -0.486   1.778   0.903  0.00  0.00    -0.079 HD
BRANCH  20  22
ATOM     22  C   UNL     1       0.002  -0.004   0.002  0.00  0.00    +0.043 C 
BRANCH  22  32
ATOM     23  C   UNL     1      -6.998  -2.776   2.708  0.00  0.00    +0.007 C 
ATOM     24  C   UNL     1      -6.000  -2.276   1.662  0.00  0.00    -0.014 C 
ATOM     25  C   UNL     1      -5.562  -0.853   2.014  0.00  0.00    +0.006 C 
ATOM     26  C   UNL     1      -4.573  -0.349   0.960  0.00  0.00    +0.035 C 
ATOM     27  C   UNL     1      -3.362  -1.274   0.912  0.00  0.00    +0.112 C 
ATOM     28  C   UNL     1      -3.786  -2.702   0.586  0.00  0.00    +0.035 C 
ATOM     29  C   UNL     1      -4.778  -3.196   1.641  0.00  0.00    +0.006 C 
ATOM     30  C   UNL     1      -2.360  -0.777  -0.105  0.00  0.00    +0.245 C 
ATOM     31  O   UNL     1      -2.530  -0.643  -1.298  0.00  0.00    -0.273 OA
ATOM     32  N   UNL     1      -1.237  -0.512   0.595  0.00  0.00    -0.241 N 
ATOM     33  C   UNL     1      -1.395  -0.778   1.897  0.00  0.00    +0.308 C 
ATOM     34  O   UNL     1      -0.521  -0.625   2.729  0.00  0.00    -0.252 OA
ATOM     35  N   UNL     1      -2.630  -1.231   2.184  0.00  0.00    -0.285 N 
ATOM     36  H   UNL     1      -2.968  -1.484   3.057  0.00  0.00    +0.151 HD
ENDBRANCH  22  32
ENDBRANCH  20  22
ENDBRANCH   1  20
TORSDOF 6
