REMARK  Name = ZINC39167645
REMARK  5 active torsions:
REMARK  status: ('A' for Active; 'I' for Inactive)
REMARK    1  A    between atoms: C_1  and  C_2
REMARK    2  A    between atoms: C_8  and  C_16
REMARK    3  A    between atoms: C_10  and  C_14
REMARK    4  A    between atoms: C_11  and  N_13
REMARK    5  A    between atoms: C_19  and  O_22
REMARK                            x       y       z     vdW  Elec       q    Type
REMARK                         _______ _______ _______ _____ _____    ______ ____
ROOT
ATOM      1  C   UNL     1      -0.018   1.503   0.010  0.00  0.00    +0.088 C 
ATOM      2  C   UNL     1       0.002  -0.004   0.002  0.00  0.00    +0.125 C 
ATOM      3  N   UNL     1       0.007  -0.714  -1.082  0.00  0.00    -0.222 NA
ATOM      4  C   UNL     1       0.069  -2.118  -0.662  0.00  0.00    +0.341 C 
ATOM      5  C   UNL     1       0.013  -2.004   0.861  0.00  0.00    +0.096 C 
ATOM      6  N   UNL     1       0.023  -0.758   1.128  0.00  0.00    -0.235 NA
ATOM      7  C   UNL     1      -0.112  -3.234   1.724  0.00  0.00    +0.114 C 
ATOM      8  C   UNL     1      -1.047  -4.165   0.976  0.00  0.00    +0.099 C 
ATOM      9  C   UNL     1      -1.440  -3.912  -0.289  0.00  0.00    +0.195 C 
ATOM     10  O   UNL     1      -1.102  -2.844  -1.044  0.00  0.00    -0.448 OA
ENDROOT
BRANCH   7  11
ATOM     11  C   UNL     1       1.237  -3.882   1.906  0.00  0.00    -0.033 A 
ATOM     12  C   UNL     1       1.944  -4.325   0.803  0.00  0.00    +0.008 A 
ATOM     13  C   UNL     1       3.180  -4.919   0.967  0.00  0.00    +0.046 A 
ATOM     14  C   UNL     1       3.712  -5.071   2.239  0.00  0.00    +0.117 A 
ATOM     15  C   UNL     1       3.001  -4.626   3.344  0.00  0.00    +0.046 A 
ATOM     16  C   UNL     1       1.767  -4.027   3.174  0.00  0.00    +0.008 A 
BRANCH  14  17
ATOM     17  O   UNL     1       4.928  -5.656   2.403  0.00  0.00    -0.507 OA
ATOM     18  H   UNL     1       5.669  -5.035   2.382  0.00  0.00    +0.292 HD
ENDBRANCH  14  17
ENDBRANCH   7  11
BRANCH   9  19
ATOM     19  N   UNL     1      -2.263  -4.839  -0.877  0.00  0.00    -0.329 N 
ATOM     20  H   UNL     1      -2.533  -5.630  -0.384  0.00  0.00    +0.145 HD
ATOM     21  H   UNL     1      -2.575  -4.705  -1.786  0.00  0.00    +0.145 HD
ENDBRANCH   9  19
BRANCH   8  22
ATOM     22  C   UNL     1      -1.524  -5.346   1.631  0.00  0.00    +0.101 C 
ATOM     23  N   UNL     1      -1.903  -6.283   2.150  0.00  0.00    -0.191 NA
ENDBRANCH   8  22
TORSDOF 4
