REMARK  Name = ZINC39919880
REMARK  6 active torsions:
REMARK  status: ('A' for Active; 'I' for Inactive)
REMARK    1  A    between atoms: C_1  and  C_2
REMARK    2  A    between atoms: C_2  and  C_3
REMARK    3  A    between atoms: C_2  and  C_4
REMARK    4  A    between atoms: C_7  and  C_10
REMARK    5  A    between atoms: N_21  and  N_22
REMARK    6  A    between atoms: C_23  and  C_25
REMARK                            x       y       z     vdW  Elec       q    Type
REMARK                         _______ _______ _______ _____ _____    ______ ____
ROOT
ATOM      1  C   UNL     1       2.697  -1.913   4.577  0.00  0.00    +0.212 C 
ATOM      2  N   UNL     1       4.118  -2.073   4.246  0.00  0.00    -0.320 N 
ATOM      3  C   UNL     1       4.524  -3.238   3.606  0.00  0.00    +0.041 A 
ATOM      4  C   UNL     1       5.607  -3.263   2.745  0.00  0.00    +0.024 A 
ATOM      5  C   UNL     1       5.967  -4.448   2.133  0.00  0.00    +0.002 A 
ATOM      6  C   UNL     1       5.252  -5.611   2.373  0.00  0.00    +0.001 A 
ATOM      7  C   UNL     1       4.170  -5.604   3.229  0.00  0.00    +0.015 A 
ATOM      8  C   UNL     1       3.798  -4.417   3.855  0.00  0.00    +0.059 A 
ATOM      9  C   UNL     1       2.656  -4.354   4.785  0.00  0.00    +0.266 C 
ATOM     10  O   UNL     1       2.161  -5.377   5.220  0.00  0.00    -0.268 OA
ATOM     11  N   UNL     1       2.170  -3.153   5.148  0.00  0.00    -0.191 N 
ATOM     12  H   UNL     1       4.760  -1.380   4.468  0.00  0.00    +0.148 HD
ENDROOT
BRANCH   1  16
ATOM     13  C   UNL     1       0.519  -0.948   1.032  0.00  0.00    -0.045 A 
ATOM     14  C   UNL     1       0.461  -0.109   2.129  0.00  0.00    +0.004 A 
ATOM     15  C   UNL     1       1.166  -0.421   3.276  0.00  0.00    +0.007 A 
ATOM     16  C   UNL     1       1.928  -1.573   3.327  0.00  0.00    -0.008 A 
ATOM     17  C   UNL     1       1.985  -2.413   2.230  0.00  0.00    +0.007 A 
ATOM     18  C   UNL     1       1.277  -2.103   1.085  0.00  0.00    +0.004 A 
BRANCH  13  20
ATOM     19  C   UNL     1      -1.742  -0.519   0.107  0.00  0.00    +0.012 C 
ATOM     20  C   UNL     1      -0.250  -0.607  -0.219  0.00  0.00    +0.013 C 
ATOM     21  C   UNL     1       0.234   0.738  -0.764  0.00  0.00    +0.012 C 
ENDBRANCH  13  20
ENDBRANCH   1  16
BRANCH  11  22
ATOM     22  N   UNL     1       1.137  -3.091   6.091  0.00  0.00    -0.229 N 
ATOM     23  C   UNL     1      -0.126  -3.391   5.728  0.00  0.00    +0.232 C 
ATOM     24  O   UNL     1      -0.354  -3.804   4.611  0.00  0.00    -0.274 OA
ATOM     25  H   UNL     1       1.330  -2.833   7.006  0.00  0.00    +0.173 HD
BRANCH  23  26
ATOM     26  C   UNL     1      -1.255  -3.213   6.711  0.00  0.00    +0.076 C 
ATOM     27  C   UNL     1      -1.332  -1.746   7.139  0.00  0.00    +0.013 C 
ATOM     28  C   UNL     1      -2.478  -1.565   8.137  0.00  0.00    +0.001 C 
ATOM     29  C   UNL     1      -3.797  -1.974   7.478  0.00  0.00    +0.000 C 
ATOM     30  C   UNL     1      -3.720  -3.440   7.049  0.00  0.00    +0.001 C 
ATOM     31  C   UNL     1      -2.574  -3.621   6.052  0.00  0.00    +0.013 C 
ENDBRANCH  23  26
ENDBRANCH  11  22
TORSDOF 4
