REMARK  Name = ZINC47003570
REMARK  4 active torsions:
REMARK  status: ('A' for Active; 'I' for Inactive)
REMARK    1  A    between atoms: C_1  and  N_2
REMARK    2  A    between atoms: C_7  and  N_12
REMARK    3  A    between atoms: N_15  and  N_16
REMARK    4  A    between atoms: N_16  and  C_17
REMARK                            x       y       z     vdW  Elec       q    Type
REMARK                         _______ _______ _______ _____ _____    ______ ____
ROOT
ATOM      1  N   UNL     1       0.918  -4.546  -1.411  0.00  0.00    -0.291 N 
ATOM      2  C   UNL     1       0.585  -5.369  -0.397  0.00  0.00    +0.316 C 
ATOM      3  O   UNL     1      -0.567  -5.422  -0.010  0.00  0.00    -0.251 OA
ATOM      4  N   UNL     1       1.528  -6.132   0.190  0.00  0.00    -0.220 N 
ATOM      5  H   UNL     1       1.837  -4.504  -1.719  0.00  0.00    +0.151 HD
ATOM      6  H   UNL     1       1.288  -6.724   0.920  0.00  0.00    +0.174 HD
ENDROOT
BRANCH   1  13
ATOM      7  C   UNL     1      -0.689   1.135  -1.003  0.00  0.00    +0.172 C 
ATOM      8  N   UNL     1      -0.538  -0.313  -0.841  0.00  0.00    -0.271 N 
ATOM      9  C   UNL     1      -0.398  -1.210  -1.831  0.00  0.00    +0.044 A 
ATOM     10  C   UNL     1      -0.285  -2.439  -1.266  0.00  0.00    +0.013 A 
ATOM     11  C   UNL     1      -0.362  -2.285   0.116  0.00  0.00    +0.140 A 
ATOM     12  N   UNL     1      -0.508  -1.009   0.377  0.00  0.00    -0.179 NA
ATOM     13  C   UNL     1      -0.107  -3.716  -2.048  0.00  0.00    +0.108 C 
ATOM     14  C   UNL     1       0.332  -3.354  -3.472  0.00  0.00    +0.027 C 
ATOM     15  C   UNL     1      -0.607  -2.286  -4.041  0.00  0.00    +0.008 C 
ATOM     16  C   UNL     1      -0.366  -0.956  -3.317  0.00  0.00    +0.055 C 
ENDBRANCH   1  13
BRANCH   4  17
ATOM     17  N   UNL     1       2.855  -6.071  -0.256  0.00  0.00    -0.258 N 
ATOM     18  H   UNL     1       3.111  -5.424  -0.932  0.00  0.00    +0.170 HD
BRANCH  17  19
ATOM     19  C   UNL     1       3.814  -6.944   0.277  0.00  0.00    +0.121 A 
ATOM     20  C   UNL     1       3.460  -8.245   0.613  0.00  0.00    +0.186 A 
ATOM     21  C   UNL     1       4.409  -9.106   1.138  0.00  0.00    +0.198 A 
ATOM     22  C   UNL     1       5.711  -8.671   1.328  0.00  0.00    +0.199 A 
ATOM     23  C   UNL     1       6.066  -7.374   0.994  0.00  0.00    +0.198 A 
ATOM     24  C   UNL     1       5.121  -6.512   0.463  0.00  0.00    +0.186 A 
ATOM     25  F   UNL     1       5.469  -5.249   0.132  0.00  0.00    -0.200 F 
ATOM     26  F   UNL     1       7.336  -6.953   1.180  0.00  0.00    -0.199 F 
ATOM     27  F   UNL     1       6.635  -9.513   1.841  0.00  0.00    -0.199 F 
ATOM     28  F   UNL     1       4.064 -10.371   1.465  0.00  0.00    -0.199 F 
ATOM     29  F   UNL     1       2.190  -8.669   0.428  0.00  0.00    -0.200 F 
ENDBRANCH  17  19
ENDBRANCH   4  17
TORSDOF 3
