REMARK  Name = ZINC33957448
REMARK  6 active torsions:
REMARK  status: ('A' for Active; 'I' for Inactive)
REMARK    1  A    between atoms: C_1  and  C_2
REMARK    2  A    between atoms: N_6  and  N_7
REMARK    3  A    between atoms: C_8  and  C_10
REMARK    4  A    between atoms: C_13  and  S_16
REMARK    5  A    between atoms: S_16  and  N_19
REMARK    6  A    between atoms: C_30  and  C_37
REMARK                            x       y       z     vdW  Elec       q    Type
REMARK                         _______ _______ _______ _____ _____    ______ ____
ROOT
ATOM      1  C   UNL     1      -0.104   1.620  -0.115  0.00  0.00    +0.016 C 
ATOM      2  C   UNL     1      -0.045   0.092  -0.109  0.00  0.00    -0.007 C 
ATOM      3  C   UNL     1       0.612  -0.422  -1.385  0.00  0.00    +0.017 C 
ATOM      4  C   UNL     1       2.070   0.040  -1.449  0.00  0.00    +0.058 C 
ATOM      5  C   UNL     1       2.785  -0.396  -0.196  0.00  0.00    +0.059 C 
ATOM      6  N   UNL     1       4.071  -0.587  -0.213  0.00  0.00    -0.185 NA
ATOM      7  C   UNL     1       2.032  -0.601   1.044  0.00  0.00    +0.024 C 
ATOM      8  C   UNL     1       0.727  -0.383   1.100  0.00  0.00    -0.062 C 
ATOM      9  C   UNL     1      -0.033  -0.615   2.386  0.00  0.00    +0.031 C 
ATOM     10  C   UNL     1      -1.066  -1.720   2.160  0.00  0.00    +0.008 C 
ATOM     11  C   UNL     1      -1.407  -1.835   0.681  0.00  0.00    -0.003 C 
ATOM     12  C   UNL     1      -1.474  -0.467   0.013  0.00  0.00    +0.002 C 
ATOM     13  C   UNL     1      -2.139  -0.520  -1.352  0.00  0.00    +0.005 C 
ATOM     14  C   UNL     1      -3.542  -1.129  -1.332  0.00  0.00    +0.015 C 
ATOM     15  C   UNL     1      -3.841  -1.784  -0.008  0.00  0.00    +0.029 C 
ATOM     16  C   UNL     1      -2.638  -2.650   0.422  0.00  0.00    +0.006 C 
ATOM     17  C   UNL     1      -3.224  -3.428   1.610  0.00  0.00    +0.012 C 
ATOM     18  C   UNL     1      -4.663  -3.753   1.120  0.00  0.00    +0.075 C 
ATOM     19  C   UNL     1      -4.941  -2.832  -0.062  0.00  0.00    +0.139 C 
ATOM     20  O   UNL     1      -5.828  -2.904  -0.868  0.00  0.00    -0.297 OA
ATOM     21  C   UNL     1      -4.250  -0.762   1.049  0.00  0.00    +0.019 C 
ENDROOT
BRANCH   6  22
ATOM     22  N   UNL     1       4.735  -0.992   0.952  0.00  0.00    -0.203 N 
ATOM     23  C   UNL     1       6.068  -1.191   0.933  0.00  0.00    +0.263 C 
ATOM     24  O   UNL     1       6.694  -1.019  -0.095  0.00  0.00    -0.268 OA
ATOM     25  H   UNL     1       4.236  -1.130   1.772  0.00  0.00    +0.178 HD
BRANCH  23  26
ATOM     26  C   UNL     1       6.769  -1.618   2.163  0.00  0.00    +0.038 A 
ATOM     27  C   UNL     1       6.052  -1.822   3.343  0.00  0.00    +0.015 A 
ATOM     28  C   UNL     1       6.712  -2.221   4.487  0.00  0.00    +0.029 A 
ATOM     29  C   UNL     1       8.081  -2.418   4.466  0.00  0.00    +0.105 A 
ATOM     30  C   UNL     1       8.798  -2.218   3.300  0.00  0.00    +0.029 A 
ATOM     31  C   UNL     1       8.149  -1.825   2.147  0.00  0.00    +0.015 A 
BRANCH  29  32
ATOM     32  S   UNL     1       8.917  -2.926   5.932  0.00  0.00    +0.056 S 
ATOM     33  O   UNL     1      10.270  -2.515   5.792  0.00  0.00    -0.153 OA
ATOM     34  O   UNL     1       8.105  -2.518   7.024  0.00  0.00    -0.153 OA
BRANCH  32  35
ATOM     35  N   UNL     1       8.925  -4.582   5.942  0.00  0.00    -0.204 NA
ATOM     36  H   UNL     1       9.652  -5.061   6.369  0.00  0.00    +0.144 HD
ATOM     37  H   UNL     1       8.202  -5.073   5.521  0.00  0.00    +0.144 HD
ENDBRANCH  32  35
ENDBRANCH  29  32
ENDBRANCH  23  26
ENDBRANCH   6  22
TORSDOF 4
