REMARK  Name = ZINC33114515
REMARK  11 active torsions:
REMARK  status: ('A' for Active; 'I' for Inactive)
REMARK    1  A    between atoms: C_1  and  C_2
REMARK    2  A    between atoms: C_2  and  C_3
REMARK    3  A    between atoms: C_2  and  C_4
REMARK    4  A    between atoms: C_4  and  C_5
REMARK    5  A    between atoms: C_5  and  N_6
REMARK    6  A    between atoms: C_11  and  C_15
REMARK    7  A    between atoms: N_13  and  C_14
REMARK    8  A    between atoms: C_22  and  S_23
REMARK    9  A    between atoms: S_23  and  C_24
REMARK   10  A    between atoms: C_24  and  C_25
REMARK   11  A    between atoms: N_27  and  C_28
REMARK                            x       y       z     vdW  Elec       q    Type
REMARK                         _______ _______ _______ _____ _____    ______ ____
ROOT
ATOM      1  N   UNL     1      -0.097   1.216   4.051  0.00  0.00    -0.286 N 
ATOM      2  C   UNL     1       0.680   0.690   5.022  0.00  0.00    +0.279 A 
ATOM      3  O   UNL     1       0.421   0.880   6.199  0.00  0.00    -0.265 OA
ATOM      4  C   UNL     1       1.800  -0.077   4.646  0.00  0.00    +0.133 A 
ATOM      5  C   UNL     1       2.054  -0.265   3.284  0.00  0.00    +0.104 A 
ATOM      6  C   UNL     1       3.263  -1.088   3.209  0.00  0.00    +0.026 A 
ATOM      7  C   UNL     1       3.648  -1.336   4.491  0.00  0.00    +0.096 A 
ATOM      8  N   UNL     1       2.784  -0.739   5.350  0.00  0.00    -0.344 N 
ATOM      9  C   UNL     1       2.883  -0.789   6.811  0.00  0.00    +0.149 C 
ATOM     10  N   UNL     1       1.236   0.283   2.369  0.00  0.00    -0.221 NA
ATOM     11  C   UNL     1       0.196   0.996   2.735  0.00  0.00    +0.173 A 
ENDROOT
BRANCH   6  12
ATOM     12  C   UNL     1       3.936  -1.560   1.975  0.00  0.00    -0.014 A 
ATOM     13  C   UNL     1       3.200  -2.192   0.974  0.00  0.00    +0.008 A 
ATOM     14  C   UNL     1       3.832  -2.625  -0.174  0.00  0.00    +0.001 A 
ATOM     15  C   UNL     1       5.194  -2.442  -0.328  0.00  0.00    +0.000 A 
ATOM     16  C   UNL     1       5.931  -1.821   0.664  0.00  0.00    +0.001 A 
ATOM     17  C   UNL     1       5.309  -1.379   1.814  0.00  0.00    +0.008 A 
ENDBRANCH   6  12
BRANCH   1  18
ATOM     18  C   UNL     1      -1.265   2.023   4.411  0.00  0.00    +0.128 C 
BRANCH  18  19
ATOM     19  C   UNL     1      -2.488   1.115   4.554  0.00  0.00    +0.025 C 
BRANCH  19  21
ATOM     20  C   UNL     1      -4.954   1.069   4.951  0.00  0.00    +0.007 C 
ATOM     21  C   UNL     1      -3.708   1.957   4.930  0.00  0.00    -0.016 C 
ATOM     22  C   UNL     1      -3.496   2.572   6.315  0.00  0.00    +0.007 C 
ENDBRANCH  19  21
ENDBRANCH  18  19
ENDBRANCH   1  18
BRANCH  11  23
ATOM     23  S   UNL     1      -0.846   1.693   1.497  0.00  0.00    -0.078 S 
BRANCH  23  24
ATOM     24  C   UNL     1      -0.002   1.103   0.008  0.00  0.00    +0.173 C 
BRANCH  24  25
ATOM     25  C   UNL     1      -0.738   1.591  -1.213  0.00  0.00    +0.228 C 
ATOM     26  O   UNL     1      -1.734   2.272  -1.089  0.00  0.00    -0.275 OA
ATOM     27  N   UNL     1      -0.288   1.272  -2.443  0.00  0.00    -0.283 N 
ATOM     28  H   UNL     1       0.655   0.718  -2.557  0.00  0.00    +0.155 HD
BRANCH  27  29
ATOM     29  C   UNL     1      -1.022   1.647  -3.576  0.00  0.00    +0.069 A 
ATOM     30  C   UNL     1      -1.723   2.845  -3.586  0.00  0.00    +0.026 A 
ATOM     31  C   UNL     1      -2.441   3.215  -4.707  0.00  0.00    +0.002 A 
ATOM     32  C   UNL     1      -2.473   2.387  -5.814  0.00  0.00    +0.003 A 
ATOM     33  C   UNL     1      -1.781   1.190  -5.807  0.00  0.00    +0.040 A 
ATOM     34  C   UNL     1      -1.055   0.816  -4.691  0.00  0.00    +0.144 A 
ATOM     35  F   UNL     1      -0.380  -0.354  -4.683  0.00  0.00    -0.204 F 
ENDBRANCH  27  29
ENDBRANCH  24  25
ENDBRANCH  23  24
ENDBRANCH  11  23
TORSDOF 8
