REMARK  Name = ZINC40827008
REMARK  13 active torsions:
REMARK  status: ('A' for Active; 'I' for Inactive)
REMARK    1  A    between atoms: C_1  and  C_2
REMARK    2  A    between atoms: C_5  and  C_37
REMARK    3  A    between atoms: C_6  and  O_8
REMARK    4  A    between atoms: O_8  and  C_9
REMARK    5  A    between atoms: C_9  and  C_11
REMARK    6  A    between atoms: C_12  and  C_36
REMARK    7  A    between atoms: N_20  and  N_21
REMARK    8  A    between atoms: C_22  and  C_24
REMARK    9  A    between atoms: C_24  and  C_25
REMARK   10  A    between atoms: C_30  and  C_35
REMARK   11  A    between atoms: C_32  and  C_34
REMARK   12  A    between atoms: C_37  and  C_38
REMARK   13  A    between atoms: C_37  and  C_39
REMARK                            x       y       z     vdW  Elec       q    Type
REMARK                         _______ _______ _______ _____ _____    ______ ____
ROOT
ATOM      1  C   UNL     1       0.282  -2.771   4.786  0.00  0.00    +0.215 A 
ATOM      2  C   UNL     1       0.386  -2.177   6.014  0.00  0.00    +0.011 A 
ATOM      3  C   UNL     1       0.490  -3.218   6.944  0.00  0.00    +0.042 A 
ATOM      4  C   UNL     1       0.447  -4.402   6.245  0.00  0.00    +0.115 A 
ATOM      5  O   UNL     1       0.314  -4.113   4.953  0.00  0.00    -0.452 OA
ATOM      6  C   UNL     1       0.538  -5.751   6.912  0.00  0.00    +0.075 C 
ATOM      7  C   UNL     1       1.178  -5.593   8.294  0.00  0.00    +0.014 C 
ATOM      8  C   UNL     1       0.442  -4.527   9.112  0.00  0.00    +0.058 C 
ATOM      9  C   UNL     1       0.622  -3.185   8.417  0.00  0.00    +0.070 C 
ATOM     10  N   UNL     1       0.875  -2.092   9.069  0.00  0.00    -0.184 NA
ATOM     11  C   UNL     1       0.388  -0.699   6.306  0.00  0.00    +0.048 C 
ENDROOT
BRANCH  10  12
ATOM     12  N   UNL     1       0.990  -2.120  10.465  0.00  0.00    -0.206 N 
ATOM     13  C   UNL     1       1.252  -0.985  11.143  0.00  0.00    +0.237 C 
ATOM     14  O   UNL     1       1.388   0.061  10.544  0.00  0.00    -0.274 OA
ATOM     15  H   UNL     1       0.881  -2.957  10.944  0.00  0.00    +0.177 HD
BRANCH  13  16
ATOM     16  C   UNL     1       1.376  -1.015  12.644  0.00  0.00    +0.136 C 
BRANCH  16  17
ATOM     17  C   UNL     1       1.669   0.373  13.152  0.00  0.00    +0.007 A 
ATOM     18  C   UNL     1       2.874   0.896  13.415  0.00  0.00    +0.200 A 
ATOM     19  O   UNL     1       2.745   2.161  13.851  0.00  0.00    -0.463 OA
ATOM     20  C   UNL     1       1.448   2.526  13.894  0.00  0.00    +0.136 A 
ATOM     21  C   UNL     1       0.692   1.427  13.452  0.00  0.00    +0.027 A 
ATOM     22  C   UNL     1      -0.698   1.515  13.384  0.00  0.00    -0.039 A 
ATOM     23  C   UNL     1      -1.324   2.686  13.751  0.00  0.00    +0.007 A 
ATOM     24  C   UNL     1      -0.578   3.772  14.184  0.00  0.00    -0.047 A 
ATOM     25  C   UNL     1       0.796   3.695  14.262  0.00  0.00    +0.050 A 
ATOM     26  C   UNL     1      -1.278   5.046  14.581  0.00  0.00    +0.044 C 
ATOM     27  C   UNL     1      -1.510   0.336  12.913  0.00  0.00    +0.044 C 
ENDBRANCH  16  17
ENDBRANCH  13  16
ENDBRANCH  10  12
BRANCH   1  28
ATOM     28  C   UNL     1       0.152  -2.071   3.505  0.00  0.00    +0.380 C 
ATOM     29  O   UNL     1       0.134  -0.856   3.475  0.00  0.00    -0.241 OA
BRANCH  28  30
ATOM     30  O   UNL     1       0.052  -2.776   2.358  0.00  0.00    -0.420 OA
BRANCH  30  36
ATOM     31  C   UNL     1      -2.450  -0.755  -1.313  0.00  0.00    +0.044 C 
ATOM     32  C   UNL     1      -1.147  -1.087  -0.633  0.00  0.00    -0.047 A 
ATOM     33  C   UNL     1       0.050  -0.692  -1.202  0.00  0.00    +0.004 A 
ATOM     34  C   UNL     1       1.247  -0.995  -0.580  0.00  0.00    +0.008 A 
ATOM     35  C   UNL     1       1.250  -1.692   0.612  0.00  0.00    -0.002 A 
ATOM     36  C   UNL     1       0.051  -2.089   1.186  0.00  0.00    +0.136 A 
ATOM     37  C   UNL     1      -1.149  -1.780   0.562  0.00  0.00    +0.050 A 
BRANCH  35  38
ATOM     38  C   UNL     1       2.556  -2.022   1.289  0.00  0.00    +0.016 C 
ATOM     39  C   UNL     1       3.411  -2.882   0.356  0.00  0.00    +0.012 C 
ATOM     40  C   UNL     1       3.302  -0.727   1.617  0.00  0.00    +0.012 C 
ENDBRANCH  35  38
ENDBRANCH  30  36
ENDBRANCH  28  30
ENDBRANCH   1  28
TORSDOF 7
