REMARK  Name = ZINC12055202
REMARK  10 active torsions:
REMARK  status: ('A' for Active; 'I' for Inactive)
REMARK    1  A    between atoms: C_1  and  C_2
REMARK    2  A    between atoms: C_2  and  C_3
REMARK    3  A    between atoms: C_2  and  C_4
REMARK    4  A    between atoms: C_4  and  C_6
REMARK    5  A    between atoms: C_4  and  N_25
REMARK    6  A    between atoms: C_15  and  C_16
REMARK    7  A    between atoms: C_15  and  N_65
REMARK    8  A    between atoms: C_16  and  C_24
REMARK    9  A    between atoms: C_17  and  C_18
REMARK   10  A    between atoms: C_26  and  C_28
REMARK                            x       y       z     vdW  Elec       q    Type
REMARK                         _______ _______ _______ _____ _____    ______ ____
ROOT
ATOM      1  C   UNL     1      -5.905   2.530  -0.550  0.00  0.00    +0.154 A 
ATOM      2  N   UNL     1      -6.038   1.243  -0.366  0.00  0.00    -0.132 NA
ATOM      3  N   UNL     1      -7.030   0.805  -1.060  0.00  0.00    -0.134 NA
ATOM      4  C   UNL     1      -7.575   1.791  -1.710  0.00  0.00    +0.132 A 
ATOM      5  N   UNL     1      -6.871   2.911  -1.412  0.00  0.00    -0.315 N 
ATOM      6  C   UNL     1      -7.118   4.250  -1.946  0.00  0.00    +0.106 C 
ATOM      7  C   UNL     1      -8.601   4.385  -2.301  0.00  0.00    -0.056 C 
ATOM      8  C   UNL     1      -8.476   2.541  -3.884  0.00  0.00    -0.071 C 
ATOM      9  C   UNL     1      -8.777   1.745  -2.617  0.00  0.00    +0.058 C 
ATOM     10  N   UNL     1      -8.808   3.972  -3.708  0.00  0.00    +0.384 N 
ATOM     11  H   UNL     1      -8.192   4.531  -4.310  0.00  0.00    -0.081 HD
ENDROOT
BRANCH   1  12
ATOM     12  C   UNL     1      -4.870   3.423   0.086  0.00  0.00    +0.144 C 
BRANCH  12  13
ATOM     13  N   UNL     1      -3.558   2.775   0.019  0.00  0.00    -0.300 N 
ATOM     14  C   UNL     1      -2.436   3.521   0.042  0.00  0.00    +0.263 C 
ATOM     15  O   UNL     1      -2.512   4.731   0.118  0.00  0.00    -0.269 OA
ATOM     16  H   UNL     1      -3.497   1.808  -0.042  0.00  0.00    +0.150 HD
BRANCH  14  17
ATOM     17  C   UNL     1      -1.109   2.865  -0.025  0.00  0.00    +0.125 A 
ATOM     18  C   UNL     1       0.047   3.641  -0.001  0.00  0.00    +0.033 A 
ATOM     19  C   UNL     1       1.281   3.014  -0.065  0.00  0.00    +0.004 A 
ATOM     20  C   UNL     1       1.316   1.631  -0.150  0.00  0.00    +0.020 A 
ATOM     21  C   UNL     1       0.126   0.921  -0.170  0.00  0.00    +0.111 A 
ATOM     22  N   UNL     1      -1.032   1.543  -0.114  0.00  0.00    -0.250 NA
ENDBRANCH  14  17
ENDBRANCH  12  13
BRANCH  12  24
ATOM     23  C   UNL     1      -4.192   4.579   2.194  0.00  0.00    +0.009 C 
ATOM     24  C   UNL     1      -5.242   3.673   1.549  0.00  0.00    +0.011 C 
ATOM     25  C   UNL     1      -6.612   4.350   1.619  0.00  0.00    +0.009 C 
ENDBRANCH  12  24
ENDBRANCH   1  12
BRANCH  10  26
ATOM     26  C   UNL     1     -10.208   4.213  -4.102  0.00  0.00    -0.048 C 
BRANCH  26  27
ATOM     27  C   UNL     1     -10.336   3.984  -5.586  0.00  0.00    -0.089 C 
ATOM     28  C   UNL     1     -10.757   2.813  -6.042  0.00  0.00    +0.005 C 
ATOM     29  C   UNL     1      -9.986   5.087  -6.552  0.00  0.00    +0.037 C 
BRANCH  28  30
ATOM     30  C   UNL     1     -10.722   2.528  -7.492  0.00  0.00    -0.025 A 
ATOM     31  C   UNL     1     -11.700   1.719  -8.071  0.00  0.00    +0.008 A 
ATOM     32  C   UNL     1     -11.666   1.463  -9.427  0.00  0.00    +0.001 A 
ATOM     33  C   UNL     1     -10.657   1.996 -10.209  0.00  0.00    +0.000 A 
ATOM     34  C   UNL     1      -9.681   2.795  -9.640  0.00  0.00    +0.001 A 
ATOM     35  C   UNL     1      -9.708   3.064  -8.287  0.00  0.00    +0.008 A 
ENDBRANCH  28  30
ENDBRANCH  26  27
ENDBRANCH  10  26
TORSDOF 7
