REMARK  Name = ZINC35840584
REMARK  13 active torsions:
REMARK  status: ('A' for Active; 'I' for Inactive)
REMARK    1  A    between atoms: C_1  and  C_2
REMARK    2  A    between atoms: C_7  and  O_8
REMARK    3  A    between atoms: O_8  and  C_9
REMARK    4  A    between atoms: C_9  and  C_10
REMARK    5  A    between atoms: C_10  and  C_12
REMARK    6  A    between atoms: C_10  and  O_35
REMARK    7  A    between atoms: C_12  and  N_13
REMARK    8  A    between atoms: N_13  and  C_14
REMARK    9  A    between atoms: N_13  and  C_28
REMARK   10  A    between atoms: C_14  and  C_15
REMARK   11  A    between atoms: N_19  and  C_20
REMARK   12  A    between atoms: C_20  and  C_21
REMARK   13  A    between atoms: C_28  and  C_29
REMARK                            x       y       z     vdW  Elec       q    Type
REMARK                         _______ _______ _______ _____ _____    ______ ____
ROOT
ATOM      1  N   UNL     1       0.567   0.471   7.888  0.00  0.00    +0.385 N 
ATOM      2  H   UNL     1       1.169   1.260   7.703  0.00  0.00    -0.081 HD
ENDROOT
BRANCH   1   3
ATOM      3  C   UNL     1       0.292  -0.241   6.633  0.00  0.00    -0.043 C 
BRANCH   3   4
ATOM      4  C   UNL     1       0.003   0.772   5.524  0.00  0.00    +0.135 C 
BRANCH   4   5
ATOM      5  O   UNL     1      -1.233   1.437   5.797  0.00  0.00    -0.390 OA
ATOM      6  H   UNL     1      -1.983   0.838   5.916  0.00  0.00    +0.210 HD
ENDBRANCH   4   5
BRANCH   4   7
ATOM      7  C   UNL     1      -0.094   0.045   4.182  0.00  0.00    +0.258 C 
BRANCH   7   8
ATOM      8  O   UNL     1      -0.249   1.002   3.132  0.00  0.00    -0.489 OA
BRANCH   8  15
ATOM      9  C   UNL     1      -0.554   2.877   1.042  0.00  0.00    +0.047 C 
ATOM     10  C   UNL     1      -0.502   1.391   0.799  0.00  0.00    -0.009 A 
ATOM     11  C   UNL     1      -0.599   0.897  -0.488  0.00  0.00    +0.007 A 
ATOM     12  C   UNL     1      -0.552  -0.467  -0.711  0.00  0.00    +0.000 A 
ATOM     13  C   UNL     1      -0.406  -1.339   0.352  0.00  0.00    +0.004 A 
ATOM     14  C   UNL     1      -0.308  -0.850   1.640  0.00  0.00    +0.046 A 
ATOM     15  C   UNL     1      -0.350   0.518   1.866  0.00  0.00    +0.124 A 
ENDBRANCH   8  15
ENDBRANCH   7   8
ENDBRANCH   4   7
ENDBRANCH   3   4
ENDBRANCH   1   3
BRANCH   1  16
ATOM     16  C   UNL     1       1.229  -0.438   8.833  0.00  0.00    -0.024 C 
BRANCH  16  17
ATOM     17  C   UNL     1       1.689   0.338  10.040  0.00  0.00    +0.003 A 
ATOM     18  C   UNL     1       1.005   0.486  11.193  0.00  0.00    +0.021 A 
ATOM     19  C   UNL     1       1.791   1.281  12.050  0.00  0.00    +0.019 A 
ATOM     20  C   UNL     1       2.925   1.589  11.389  0.00  0.00    +0.086 A 
ATOM     21  N   UNL     1       2.871   1.008  10.156  0.00  0.00    -0.348 N 
BRANCH  21  22
ATOM     22  C   UNL     1       3.909   1.093   9.126  0.00  0.00    +0.156 C 
BRANCH  22  23
ATOM     23  C   UNL     1       3.664   2.305   8.265  0.00  0.00    -0.028 A 
ATOM     24  C   UNL     1       2.982   2.176   7.069  0.00  0.00    +0.008 A 
ATOM     25  C   UNL     1       2.757   3.287   6.279  0.00  0.00    +0.038 A 
ATOM     26  C   UNL     1       3.214   4.529   6.685  0.00  0.00    +0.123 A 
ATOM     27  C   UNL     1       3.897   4.657   7.882  0.00  0.00    +0.038 A 
ATOM     28  C   UNL     1       4.117   3.546   8.674  0.00  0.00    +0.008 A 
ATOM     29  F   UNL     1       2.995   5.616   5.912  0.00  0.00    -0.205 F 
ENDBRANCH  22  23
ENDBRANCH  21  22
ENDBRANCH  16  17
ENDBRANCH   1  16
BRANCH   1  30
ATOM     30  C   UNL     1      -0.696   0.946   8.469  0.00  0.00    -0.075 C 
BRANCH  30  31
ATOM     31  C   UNL     1      -1.320  -0.169   9.312  0.00  0.00    -0.028 C 
ATOM     32  C   UNL     1      -1.613  -1.378   8.421  0.00  0.00    +0.002 C 
ATOM     33  C   UNL     1      -2.237  -2.492   9.264  0.00  0.00    +0.000 C 
ATOM     34  C   UNL     1      -3.541  -1.990   9.888  0.00  0.00    +0.000 C 
ATOM     35  C   UNL     1      -3.248  -0.781  10.778  0.00  0.00    +0.000 C 
ATOM     36  C   UNL     1      -2.624   0.333   9.935  0.00  0.00    +0.002 C 
ENDBRANCH  30  31
ENDBRANCH   1  30
TORSDOF 12
