REMARK  Name = ZINC14543796
REMARK  8 active torsions:
REMARK  status: ('A' for Active; 'I' for Inactive)
REMARK    1  A    between atoms: C_1  and  C_2
REMARK    2  A    between atoms: C_2  and  O_3
REMARK    3  A    between atoms: O_3  and  C_4
REMARK    4  A    between atoms: C_4  and  C_6
REMARK    5  A    between atoms: N_7  and  N_8
REMARK    6  A    between atoms: N_8  and  C_9
REMARK    7  A    between atoms: N_19  and  C_22
REMARK    8  A    between atoms: C_22  and  C_23
REMARK                            x       y       z     vdW  Elec       q    Type
REMARK                         _______ _______ _______ _____ _____    ______ ____
ROOT
ATOM      1  C   UNL     1       0.006   1.255   0.019  0.00  0.00    +0.198 C 
ATOM      2  N   UNL     1      -1.050   2.022  -0.047  0.00  0.00    -0.288 N 
ATOM      3  N   UNL     1       1.280   1.826   0.120  0.00  0.00    -0.308 N 
ATOM      4  C   UNL     1       1.448   3.284   0.227  0.00  0.00    +0.122 C 
ATOM      5  C   UNL     1       2.354   3.578   1.433  0.00  0.00    +0.103 C 
ATOM      6  N   UNL     1       3.603   2.817   1.297  0.00  0.00    -0.295 NA
ATOM      7  C   UNL     1       3.352   1.370   1.321  0.00  0.00    +0.103 C 
ATOM      8  C   UNL     1       2.486   0.985   0.117  0.00  0.00    +0.122 C 
ATOM      9  H   UNL     1      -0.948   3.110   0.077  0.00  0.00    +0.186 HD
ENDROOT
BRANCH   1  10
ATOM     10  C   UNL     1      -0.144  -0.204  -0.007  0.00  0.00    +0.372 C 
ATOM     11  O   UNL     1      -0.853  -0.757   0.813  0.00  0.00    -0.242 OA
BRANCH  10  12
ATOM     12  O   UNL     1       0.504  -0.932  -0.940  0.00  0.00    -0.459 OA
BRANCH  12  14
ATOM     13  C   UNL     1       1.119  -2.999  -2.030  0.00  0.00    +0.048 C 
ATOM     14  C   UNL     1       0.312  -2.348  -0.906  0.00  0.00    +0.229 C 
ENDBRANCH  12  14
ENDBRANCH  10  12
ENDBRANCH   1  10
BRANCH   2  15
ATOM     15  N   UNL     1      -2.312   1.457  -0.274  0.00  0.00    -0.259 N 
ATOM     16  H   UNL     1      -2.404   0.382  -0.485  0.00  0.00    +0.172 HD
BRANCH  15  17
ATOM     17  C   UNL     1      -3.453   2.260  -0.233  0.00  0.00    +0.046 A 
ATOM     18  C   UNL     1      -3.339   3.618   0.038  0.00  0.00    +0.026 A 
ATOM     19  C   UNL     1      -4.469   4.411   0.073  0.00  0.00    +0.017 A 
ATOM     20  C   UNL     1      -5.715   3.852  -0.152  0.00  0.00    +0.018 A 
ATOM     21  C   UNL     1      -5.832   2.499  -0.417  0.00  0.00    +0.017 A 
ATOM     22  C   UNL     1      -4.705   1.702  -0.459  0.00  0.00    +0.026 A 
ATOM     23 BR   UNL     1      -7.261   4.940  -0.098  0.00  0.00    -0.050 Br
ENDBRANCH  15  17
ENDBRANCH   2  15
BRANCH   6  24
ATOM     24  C   UNL     1       4.569   3.201   2.336  0.00  0.00    +0.119 C 
BRANCH  24  25
ATOM     25  C   UNL     1       4.617   4.704   2.446  0.00  0.00    -0.033 A 
ATOM     26  C   UNL     1       5.514   5.424   1.679  0.00  0.00    +0.005 A 
ATOM     27  C   UNL     1       5.555   6.802   1.776  0.00  0.00    +0.000 A 
ATOM     28  C   UNL     1       4.707   7.459   2.648  0.00  0.00    +0.000 A 
ATOM     29  C   UNL     1       3.814   6.738   3.418  0.00  0.00    +0.000 A 
ATOM     30  C   UNL     1       3.769   5.360   3.317  0.00  0.00    +0.005 A 
ENDBRANCH  24  25
ENDBRANCH   6  24
TORSDOF 7
