REMARK  Name = ZINC38989643
REMARK  9 active torsions:
REMARK  status: ('A' for Active; 'I' for Inactive)
REMARK    1  A    between atoms: C_1  and  O_2
REMARK    2  A    between atoms: O_2  and  C_3
REMARK    3  A    between atoms: C_10  and  C_15
REMARK    4  A    between atoms: C_15  and  N_16
REMARK    5  A    between atoms: N_16  and  C_17
REMARK    6  A    between atoms: N_16  and  S_25
REMARK    7  A    between atoms: C_22  and  O_23
REMARK    8  A    between atoms: O_23  and  C_24
REMARK    9  A    between atoms: S_25  and  C_28
REMARK                            x       y       z     vdW  Elec       q    Type
REMARK                         _______ _______ _______ _____ _____    ______ ____
ROOT
ATOM      1  N   UNL     1       3.725  -6.125  -4.267  0.00  0.00    -0.198 N 
ENDROOT
BRANCH   1   2
ATOM      2  C   UNL     1       4.712  -5.529  -5.061  0.00  0.00    +0.093 A 
ATOM      3  C   UNL     1       6.053  -5.744  -4.780  0.00  0.00    +0.028 A 
ATOM      4  C   UNL     1       7.026  -5.155  -5.566  0.00  0.00    +0.002 A 
ATOM      5  C   UNL     1       6.666  -4.351  -6.631  0.00  0.00    +0.004 A 
ATOM      6  C   UNL     1       5.330  -4.132  -6.917  0.00  0.00    +0.047 A 
ATOM      7  C   UNL     1       4.349  -4.723  -6.138  0.00  0.00    +0.143 A 
BRANCH   7   8
ATOM      8  O   UNL     1       3.036  -4.513  -6.420  0.00  0.00    -0.493 OA
ATOM      9  C   UNL     1       2.739  -3.675  -7.539  0.00  0.00    +0.277 C 
ENDBRANCH   7   8
ENDBRANCH   1   2
BRANCH   1  10
ATOM     10  S   UNL     1       3.064  -7.575  -4.718  0.00  0.00    +0.075 S 
ATOM     11  O   UNL     1       4.019  -8.214  -5.554  0.00  0.00    -0.150 OA
ATOM     12  O   UNL     1       2.564  -8.179  -3.532  0.00  0.00    -0.150 OA
BRANCH  10  13
ATOM     13  C   UNL     1       1.666  -7.219  -5.729  0.00  0.00    +0.109 A 
ATOM     14  C   UNL     1       0.420  -7.057  -5.153  0.00  0.00    +0.030 A 
ATOM     15  C   UNL     1      -0.677  -6.777  -5.946  0.00  0.00    +0.022 A 
ATOM     16  C   UNL     1      -0.528  -6.660  -7.316  0.00  0.00    +0.041 A 
ATOM     17  C   UNL     1       0.720  -6.822  -7.892  0.00  0.00    +0.022 A 
ATOM     18  C   UNL     1       1.817  -7.096  -7.098  0.00  0.00    +0.030 A 
ATOM     19 CL   UNL     1      -1.905  -6.309  -8.313  0.00  0.00    -0.084 Cl
ENDBRANCH  10  13
ENDBRANCH   1  10
BRANCH   1  20
ATOM     20  C   UNL     1       3.276  -5.466  -3.038  0.00  0.00    +0.148 C 
BRANCH  20  28
ATOM     21  C   UNL     1       3.595  -4.670   2.737  0.00  0.00    +0.121 A 
ATOM     22  C   UNL     1       3.887  -6.022   2.954  0.00  0.00    +0.047 A 
ATOM     23  C   UNL     1       4.223  -6.868   1.947  0.00  0.00    +0.027 A 
ATOM     24  C   UNL     1       4.292  -6.409   0.618  0.00  0.00    +0.041 A 
ATOM     25  N   UNL     1       4.622  -7.251  -0.361  0.00  0.00    -0.284 N 
ATOM     26  C   UNL     1       4.706  -6.887  -1.629  0.00  0.00    +0.226 C 
ATOM     27  O   UNL     1       5.012  -7.702  -2.479  0.00  0.00    -0.275 OA
ATOM     28  C   UNL     1       4.418  -5.455  -2.019  0.00  0.00    +0.118 C 
ATOM     29  C   UNL     1       4.042  -4.493  -0.910  0.00  0.00    -0.003 C 
ATOM     30  C   UNL     1       3.989  -4.990   0.358  0.00  0.00    -0.004 A 
ATOM     31  C   UNL     1       3.628  -4.131   1.486  0.00  0.00    +0.055 A 
ATOM     32  H   UNL     1       4.811  -8.175  -0.132  0.00  0.00    +0.155 HD
BRANCH  21  34
ATOM     33  C   UNL     1       3.247  -4.498   5.083  0.00  0.00    +0.277 C 
ATOM     34  O   UNL     1       3.267  -3.881   3.794  0.00  0.00    -0.495 OA
ENDBRANCH  21  34
ENDBRANCH  20  28
ENDBRANCH   1  20
TORSDOF 7
