REMARK  Name = ZINC58775548
REMARK  12 active torsions:
REMARK  status: ('A' for Active; 'I' for Inactive)
REMARK    1  A    between atoms: C_1  and  C_2
REMARK    2  A    between atoms: N_5  and  C_8
REMARK    3  A    between atoms: C_8  and  C_10
REMARK    4  A    between atoms: C_8  and  C_32
REMARK    5  A    between atoms: C_10  and  N_11
REMARK    6  A    between atoms: C_12  and  C_14
REMARK    7  A    between atoms: C_18  and  C_19
REMARK    8  A    between atoms: C_19  and  C_20
REMARK    9  A    between atoms: C_19  and  C_21
REMARK   10  A    between atoms: C_25  and  C_28
REMARK   11  A    between atoms: C_32  and  C_33
REMARK   12  A    between atoms: C_32  and  C_34
REMARK                            x       y       z     vdW  Elec       q    Type
REMARK                         _______ _______ _______ _____ _____    ______ ____
ROOT
ATOM      1  C   UNL     1       1.831  -3.705  -4.659  0.00  0.00    +0.078 A 
ATOM      2  C   UNL     1       0.759  -2.789  -4.766  0.00  0.00    +0.148 A 
ATOM      3  N   UNL     1       0.522  -2.591  -6.034  0.00  0.00    -0.172 NA
ATOM      4  N   UNL     1       1.416  -3.359  -6.788  0.00  0.00    -0.218 N 
ATOM      5  C   UNL     1       2.217  -4.033  -5.942  0.00  0.00    +0.061 A 
ATOM      6  C   UNL     1       1.471  -3.412  -8.184  0.00  0.00    +0.154 A 
ATOM      7  C   UNL     1       0.327  -3.155  -8.928  0.00  0.00    +0.049 A 
ATOM      8  C   UNL     1       0.395  -3.211 -10.310  0.00  0.00    +0.017 A 
ATOM      9  C   UNL     1       1.612  -3.524 -10.900  0.00  0.00    +0.073 A 
ATOM     10  C   UNL     1       2.709  -3.768 -10.098  0.00  0.00    +0.125 A 
ATOM     11  N   UNL     1       2.614  -3.703  -8.784  0.00  0.00    -0.236 NA
ENDROOT
BRANCH   1  13
ATOM     12  N   UNL     1       1.875  -3.892  -2.221  0.00  0.00    -0.313 N 
ATOM     13  C   UNL     1       2.427  -4.210  -3.409  0.00  0.00    +0.247 C 
ATOM     14  O   UNL     1       3.418  -4.914  -3.449  0.00  0.00    -0.270 OA
ATOM     15  H   UNL     1       1.085  -3.330  -2.189  0.00  0.00    +0.149 HD
BRANCH  12  16
ATOM     16  C   UNL     1       2.468  -4.394  -0.980  0.00  0.00    +0.089 C 
BRANCH  16  17
ATOM     17  C   UNL     1       1.767  -3.749   0.218  0.00  0.00    -0.049 C 
BRANCH  17  22
ATOM     18  C   UNL     1       3.956   1.487  -0.350  0.00  0.00    +0.007 C 
ATOM     19  C   UNL     1       3.608   0.013  -0.568  0.00  0.00    -0.018 C 
ATOM     20  C   UNL     1       4.054  -0.804   0.648  0.00  0.00    -0.016 C 
ATOM     21  C   UNL     1       3.633  -2.263   0.458  0.00  0.00    -0.078 C 
ATOM     22  N   UNL     1       2.173  -2.341   0.322  0.00  0.00    +0.383 N 
ATOM     23  C   UNL     1       1.746  -1.619  -0.883  0.00  0.00    -0.078 C 
ATOM     24  C   UNL     1       2.094  -0.136  -0.744  0.00  0.00    -0.016 C 
ATOM     25  H   UNL     1       1.739  -1.927   1.133  0.00  0.00    -0.081 HD
ENDBRANCH  17  22
BRANCH  17  26
ATOM     26  C   UNL     1       2.159  -4.489   1.498  0.00  0.00    -0.029 C 
ATOM     27  C   UNL     1       1.481  -3.826   2.699  0.00  0.00    +0.005 C 
ATOM     28  C   UNL     1       1.712  -5.948   1.401  0.00  0.00    +0.005 C 
ENDBRANCH  17  26
ENDBRANCH  16  17
ENDBRANCH  12  16
ENDBRANCH   1  13
BRANCH   9  29
ATOM     29  C   UNL     1       1.734  -3.597 -12.400  0.00  0.00    +0.419 C 
ATOM     30  F   UNL     1       2.083  -2.338 -12.902  0.00  0.00    -0.166 F 
ATOM     31  F   UNL     1       2.722  -4.526 -12.743  0.00  0.00    -0.166 F 
ATOM     32  F   UNL     1       0.509  -3.994 -12.949  0.00  0.00    -0.166 F 
ENDBRANCH   9  29
BRANCH   5  33
ATOM     33  C   UNL     1       3.330  -4.974  -6.326  0.00  0.00    +0.032 C 
ATOM     34  C   UNL     1       4.662  -4.427  -5.810  0.00  0.00    +0.014 C 
ATOM     35  C   UNL     1       3.070  -6.350  -5.708  0.00  0.00    +0.014 C 
ENDBRANCH   5  33
TORSDOF 7
