REMARK  Name = ZINC32624539
REMARK  6 active torsions:
REMARK  status: ('A' for Active; 'I' for Inactive)
REMARK    1  A    between atoms: C_1  and  O_2
REMARK    2  A    between atoms: O_2  and  C_3
REMARK    3  A    between atoms: C_6  and  C_9
REMARK    4  A    between atoms: C_9  and  C_11
REMARK    5  A    between atoms: C_9  and  N_27
REMARK    6  A    between atoms: C_11  and  N_12
REMARK                            x       y       z     vdW  Elec       q    Type
REMARK                         _______ _______ _______ _____ _____    ______ ____
ROOT
ATOM      1  C   UNL     1       1.717  -2.289   2.363  0.00  0.00    +0.115 C 
ENDROOT
BRANCH   1   2
ATOM      2  N   UNL     1       1.299  -1.714   3.644  0.00  0.00    -0.300 N 
ATOM      3  C   UNL     1       1.764  -0.497   4.034  0.00  0.00    +0.202 A 
ATOM      4  N   UNL     1       1.427   0.066   5.149  0.00  0.00    -0.235 NA
ATOM      5  C   UNL     1       0.571  -0.539   6.038  0.00  0.00    +0.107 A 
ATOM      6  C   UNL     1       0.129  -0.039   7.281  0.00  0.00    +0.081 A 
ATOM      7  C   UNL     1      -0.730  -0.835   8.002  0.00  0.00    +0.070 A 
ATOM      8  S   UNL     1      -0.965  -2.276   7.013  0.00  0.00    -0.073 S 
ATOM      9  C   UNL     1       0.082  -1.804   5.658  0.00  0.00    +0.105 A 
ATOM     10  C   UNL     1       0.450  -2.392   4.453  0.00  0.00    +0.268 A 
ATOM     11  O   UNL     1       0.020  -3.488   4.133  0.00  0.00    -0.266 OA
ATOM     12  S   UNL     1      -1.398  -0.420   9.569  0.00  0.00    -0.107 S 
ATOM     13  C   UNL     1      -0.139   0.739  10.199  0.00  0.00    +0.171 C 
ATOM     14  C   UNL     1       0.345   1.601   9.068  0.00  0.00    +0.227 C 
ATOM     15  O   UNL     1       0.601   2.757   9.334  0.00  0.00    -0.275 OA
ATOM     16  N   UNL     1       0.521   1.225   7.804  0.00  0.00    -0.282 N 
ATOM     17  H   UNL     1       1.004   1.966   7.150  0.00  0.00    +0.155 HD
ENDBRANCH   1   2
BRANCH   1  18
ATOM     18  C   UNL     1       0.655  -1.996   1.301  0.00  0.00    -0.017 C 
BRANCH  18  19
ATOM     19  N   UNL     1       0.402  -0.549   1.249  0.00  0.00    +0.385 N 
ATOM     20  C   UNL     1      -0.526  -0.139   2.310  0.00  0.00    -0.078 C 
ATOM     21  C   UNL     1      -0.653   1.386   2.317  0.00  0.00    -0.019 C 
ATOM     22  C   UNL     1      -1.167   1.857   0.954  0.00  0.00    -0.004 C 
ATOM     23  C   UNL     1      -0.208   1.375  -0.138  0.00  0.00    -0.019 C 
ATOM     24  C   UNL     1      -0.094  -0.150  -0.074  0.00  0.00    -0.078 C 
ATOM     25  H   UNL     1       1.357  -0.031   1.420  0.00  0.00    -0.081 HD
ENDBRANCH  18  19
BRANCH  18  29
ATOM     26  C   UNL     1       2.043  -3.337  -2.511  0.00  0.00    +0.120 A 
ATOM     27  C   UNL     1       0.942  -3.940  -1.921  0.00  0.00    +0.046 A 
ATOM     28  C   UNL     1       0.495  -3.504  -0.689  0.00  0.00    +0.005 A 
ATOM     29  C   UNL     1       1.145  -2.469  -0.043  0.00  0.00    -0.059 A 
ATOM     30  C   UNL     1       2.240  -1.863  -0.631  0.00  0.00    +0.005 A 
ATOM     31  C   UNL     1       2.694  -2.298  -1.861  0.00  0.00    +0.046 A 
BRANCH  26  33
ATOM     32  C   UNL     1       3.624  -3.096  -4.271  0.00  0.00    +0.277 C 
ATOM     33  O   UNL     1       2.484  -3.763  -3.724  0.00  0.00    -0.495 OA
ENDBRANCH  26  33
ENDBRANCH  18  29
ENDBRANCH   1  18
TORSDOF 5
