REMARK  Name = ZINC39689244
REMARK  9 active torsions:
REMARK  status: ('A' for Active; 'I' for Inactive)
REMARK    1  A    between atoms: C_1  and  C_2
REMARK    2  A    between atoms: C_2  and  C_3
REMARK    3  A    between atoms: C_3  and  C_5
REMARK    4  A    between atoms: C_3  and  C_6
REMARK    5  A    between atoms: C_6  and  C_7
REMARK    6  A    between atoms: C_11  and  C_20
REMARK    7  A    between atoms: N_22  and  C_23
REMARK    8  A    between atoms: C_23  and  C_24
REMARK    9  A    between atoms: N_27  and  C_30
REMARK                            x       y       z     vdW  Elec       q    Type
REMARK                         _______ _______ _______ _____ _____    ______ ____
ROOT
ATOM      1  C   UNL     1       1.328  -2.519  -2.757  0.00  0.00    +0.216 C 
ATOM      2  O   UNL     1       1.737  -1.738  -3.589  0.00  0.00    -0.276 OA
ATOM      3  N   UNL     1       1.312  -3.840  -3.023  0.00  0.00    -0.300 N 
ATOM      4  C   UNL     1       0.848  -4.939  -2.144  0.00  0.00    +0.121 C 
ATOM      5  C   UNL     1       0.117  -5.916  -3.092  0.00  0.00    +0.100 C 
ATOM      6  C   UNL     1       0.719  -5.639  -4.480  0.00  0.00    -0.004 C 
ATOM      7  C   UNL     1       1.750  -4.522  -4.265  0.00  0.00    +0.115 C 
ATOM      8  C   UNL     1      -0.367  -5.168  -5.443  0.00  0.00    -0.010 C 
ATOM      9  C   UNL     1       0.245  -4.954  -6.830  0.00  0.00    -0.082 C 
ATOM     10  N   UNL     1       0.836  -6.211  -7.305  0.00  0.00    +0.379 N 
ATOM     11  C   UNL     1       1.941  -6.609  -6.425  0.00  0.00    -0.082 C 
ATOM     12  C   UNL     1       1.401  -6.892  -5.020  0.00  0.00    -0.010 C 
ATOM     13  H   UNL     1       0.131  -6.933  -7.306  0.00  0.00    -0.086 HD
ATOM     14  H   UNL     1       1.184  -6.084  -8.243  0.00  0.00    -0.086 HD
ENDROOT
BRANCH   5  15
ATOM     15  C   UNL     1       0.378  -7.341  -2.679  0.00  0.00    +0.218 C 
ATOM     16  O   UNL     1       1.427  -7.637  -2.147  0.00  0.00    -0.275 OA
ATOM     17  N   UNL     1      -0.555  -8.289  -2.902  0.00  0.00    -0.315 N 
ATOM     18  H   UNL     1      -1.394  -8.053  -3.328  0.00  0.00    +0.149 HD
BRANCH  17  19
ATOM     19  C   UNL     1      -0.301  -9.675  -2.501  0.00  0.00    +0.107 C 
BRANCH  19  20
ATOM     20  C   UNL     1      -1.510 -10.540  -2.864  0.00  0.00    +0.003 C 
ATOM     21  C   UNL     1      -2.720 -10.103  -2.035  0.00  0.00    -0.014 C 
ATOM     22  C   UNL     1      -3.903 -11.023  -2.345  0.00  0.00    -0.078 C 
ATOM     23  N   UNL     1      -3.552 -12.408  -2.008  0.00  0.00    +0.382 N 
ATOM     24  C   UNL     1      -2.437 -12.858  -2.851  0.00  0.00    -0.078 C 
ATOM     25  C   UNL     1      -1.198 -12.008  -2.560  0.00  0.00    -0.014 C 
ATOM     26  H   UNL     1      -3.280 -12.458  -1.038  0.00  0.00    -0.081 HD
BRANCH  23  27
ATOM     27  C   UNL     1      -4.716 -13.275  -2.234  0.00  0.00    -0.069 C 
ATOM     28  C   UNL     1      -4.415 -14.720  -1.763  0.00  0.00    -0.015 C 
ATOM     29  C   UNL     1      -5.828 -15.295  -1.498  0.00  0.00    -0.002 C 
ATOM     30  C   UNL     1      -6.608 -14.113  -0.885  0.00  0.00    -0.002 C 
ATOM     31  C   UNL     1      -5.901 -12.829  -1.353  0.00  0.00    -0.015 C 
ENDBRANCH  23  27
ENDBRANCH  19  20
ENDBRANCH  17  19
ENDBRANCH   5  15
BRANCH   1  32
ATOM     32  C   UNL     1       0.837  -2.014  -1.425  0.00  0.00    +0.099 C 
BRANCH  32  33
ATOM     33  C   UNL     1       0.961  -0.489  -1.381  0.00  0.00    -0.006 C 
ATOM     34  C   UNL     1       2.438  -0.096  -1.444  0.00  0.00    +0.008 C 
BRANCH  33  36
ATOM     35  C   UNL     1       0.360   1.565  -0.092  0.00  0.00    +0.004 C 
ATOM     36  C   UNL     1       0.348   0.035  -0.081  0.00  0.00    +0.000 C 
ENDBRANCH  33  36
ENDBRANCH  32  33
ENDBRANCH   1  32
TORSDOF 7
