REMARK  Name = ZINC04082630
REMARK  12 active torsions:
REMARK  status: ('A' for Active; 'I' for Inactive)
REMARK    1  A    between atoms: C_1  and  C_2
REMARK    2  A    between atoms: C_2  and  C_3
REMARK    3  A    between atoms: C_3  and  O_4
REMARK    4  A    between atoms: O_4  and  C_5
REMARK    5  A    between atoms: C_8  and  C_13
REMARK    6  A    between atoms: C_10  and  O_11
REMARK    7  A    between atoms: O_11  and  C_12
REMARK    8  A    between atoms: C_18  and  C_23
REMARK    9  A    between atoms: C_26  and  O_31
REMARK   10  A    between atoms: C_27  and  O_29
REMARK   11  A    between atoms: O_29  and  C_30
REMARK   12  A    between atoms: O_31  and  C_32
REMARK                            x       y       z     vdW  Elec       q    Type
REMARK                         _______ _______ _______ _____ _____    ______ ____
ROOT
ATOM      1  C   UNL     1       3.230   1.310  -1.291  0.00  0.00    +0.136 C 
ATOM      2  C   UNL     1       3.701   2.730  -1.499  0.00  0.00    +0.036 C 
ATOM      3  C   UNL     1       3.262   3.811  -0.834  0.00  0.00    +0.017 C 
ATOM      4  C   UNL     1       3.800   5.192  -1.172  0.00  0.00    +0.059 C 
ATOM      5  C   UNL     1       5.262   5.088  -1.603  0.00  0.00    +0.032 C 
ATOM      6  C   UNL     1       5.321   4.181  -2.838  0.00  0.00    +0.088 C 
ATOM      7  C   UNL     1       4.697   2.862  -2.495  0.00  0.00    +0.163 C 
ATOM      8  O   UNL     1       5.061   1.869  -3.094  0.00  0.00    -0.292 OA
ATOM      9  N   UNL     1       2.329   3.791   0.151  0.00  0.00    -0.316 N 
ATOM     10  C   UNL     1       1.120   3.108   0.084  0.00  0.00    +0.052 A 
ATOM     11  C   UNL     1      -0.101   3.760   0.103  0.00  0.00    +0.025 A 
ATOM     12  C   UNL     1      -1.268   3.016   0.093  0.00  0.00    +0.002 A 
ATOM     13  C   UNL     1      -1.215   1.635   0.059  0.00  0.00    +0.002 A 
ATOM     14  C   UNL     1       0.004   0.981   0.029  0.00  0.00    +0.025 A 
ATOM     15  C   UNL     1       1.174   1.723   0.024  0.00  0.00    +0.049 A 
ATOM     16  N   UNL     1       2.421   1.114  -0.106  0.00  0.00    -0.331 N 
ATOM     17  H   UNL     1       2.519   4.290   0.961  0.00  0.00    +0.152 HD
ATOM     18  H   UNL     1       2.753   0.550   0.609  0.00  0.00    +0.147 HD
ENDROOT
BRANCH   1  22
ATOM     19  C   UNL     1       0.941   0.130  -4.705  0.00  0.00    +0.162 A 
ATOM     20  C   UNL     1       0.503   1.169  -3.899  0.00  0.00    +0.050 A 
ATOM     21  C   UNL     1       1.246   1.548  -2.796  0.00  0.00    +0.009 A 
ATOM     22  C   UNL     1       2.425   0.892  -2.494  0.00  0.00    -0.019 A 
ATOM     23  C   UNL     1       2.869  -0.142  -3.297  0.00  0.00    +0.055 A 
ATOM     24  C   UNL     1       2.127  -0.530  -4.401  0.00  0.00    +0.162 A 
BRANCH  24  25
ATOM     25  O   UNL     1       2.560  -1.551  -5.188  0.00  0.00    -0.491 OA
ATOM     26  C   UNL     1       3.786  -2.183  -4.815  0.00  0.00    +0.277 C 
ENDBRANCH  24  25
BRANCH  19  27
ATOM     27  O   UNL     1       0.212  -0.244  -5.791  0.00  0.00    -0.488 OA
BRANCH  27  28
ATOM     28  C   UNL     1      -0.995   0.479  -6.042  0.00  0.00    +0.229 C 
BRANCH  28  30
ATOM     29  C   UNL     1      -2.965   0.695  -7.564  0.00  0.00    +0.007 C 
ATOM     30  C   UNL     1      -1.672  -0.079  -7.295  0.00  0.00    +0.038 C 
ENDBRANCH  28  30
ENDBRANCH  27  28
ENDBRANCH  19  27
ENDBRANCH   1  22
BRANCH   5  31
ATOM     31  C   UNL     1       5.793   6.455  -1.947  0.00  0.00    -0.040 A 
ATOM     32  C   UNL     1       5.181   7.204  -2.935  0.00  0.00    +0.008 A 
ATOM     33  C   UNL     1       5.664   8.460  -3.254  0.00  0.00    +0.049 A 
ATOM     34  C   UNL     1       6.764   8.970  -2.583  0.00  0.00    +0.161 A 
ATOM     35  C   UNL     1       7.380   8.216  -1.588  0.00  0.00    +0.162 A 
ATOM     36  C   UNL     1       6.887   6.961  -1.270  0.00  0.00    +0.053 A 
BRANCH  35  37
ATOM     37  O   UNL     1       8.460   8.712  -0.927  0.00  0.00    -0.491 OA
ATOM     38  C   UNL     1       9.040   7.883   0.081  0.00  0.00    +0.277 C 
ENDBRANCH  35  37
BRANCH  34  39
ATOM     39  O   UNL     1       7.240  10.205  -2.894  0.00  0.00    -0.491 OA
ATOM     40  C   UNL     1       6.558  10.922  -3.925  0.00  0.00    +0.277 C 
ENDBRANCH  34  39
ENDBRANCH   5  31
TORSDOF 8
