REMARK  Name = ZINC40041176
REMARK  8 active torsions:
REMARK  status: ('A' for Active; 'I' for Inactive)
REMARK    1  A    between atoms: C_1  and  C_2
REMARK    2  A    between atoms: C_2  and  O_3
REMARK    3  A    between atoms: O_3  and  C_4
REMARK    4  A    between atoms: C_6  and  C_11
REMARK    5  A    between atoms: C_9  and  O_10
REMARK    6  A    between atoms: C_18  and  C_34
REMARK    7  A    between atoms: C_20  and  C_33
REMARK    8  A    between atoms: C_30  and  C_32
REMARK                            x       y       z     vdW  Elec       q    Type
REMARK                         _______ _______ _______ _____ _____    ______ ____
ROOT
ATOM      1  C   UNL     1      -0.217  -4.963  -0.535  0.00  0.00    +0.152 C 
ATOM      2  C   UNL     1       0.855  -5.469  -1.443  0.00  0.00    +0.072 A 
ATOM      3  C   UNL     1       1.766  -4.764  -2.351  0.00  0.00    +0.199 A 
ATOM      4  O   UNL     1       1.886  -3.552  -2.365  0.00  0.00    -0.287 OA
ATOM      5  C   UNL     1       2.528  -5.668  -3.249  0.00  0.00    +0.065 A 
ATOM      6  C   UNL     1       3.283  -5.148  -4.300  0.00  0.00    +0.018 A 
ATOM      7  C   UNL     1       3.974  -5.993  -5.122  0.00  0.00    -0.049 A 
ATOM      8  C   UNL     1       3.927  -7.364  -4.912  0.00  0.00    +0.010 A 
ATOM      9  C   UNL     1       3.188  -7.895  -3.879  0.00  0.00    -0.007 A 
ATOM     10  C   UNL     1       2.475  -7.053  -3.026  0.00  0.00    +0.142 A 
ATOM     11  O   UNL     1       1.764  -7.596  -2.011  0.00  0.00    -0.449 OA
ATOM     12  C   UNL     1       0.894  -6.830  -1.323  0.00  0.00    +0.199 A 
ATOM     13  C   UNL     1      -0.138  -7.238  -0.356  0.00  0.00    +0.289 C 
ATOM     14  O   UNL     1      -0.368  -8.385  -0.025  0.00  0.00    -0.266 OA
ATOM     15  N   UNL     1      -0.793  -6.154   0.111  0.00  0.00    -0.230 N 
ATOM     16  C   UNL     1      -1.827  -6.159   1.038  0.00  0.00    +0.191 A 
ATOM     17  N   UNL     1      -2.525  -5.151   1.544  0.00  0.00    -0.125 NA
ATOM     18  N   UNL     1      -3.443  -5.335   2.388  0.00  0.00    -0.145 NA
ATOM     19  C   UNL     1      -3.769  -6.538   2.820  0.00  0.00    +0.101 A 
ATOM     20  S   UNL     1      -2.607  -7.530   1.886  0.00  0.00    -0.035 S 
ATOM     21  C   UNL     1      -4.823  -6.958   3.812  0.00  0.00    +0.075 C 
ATOM     22  C   UNL     1       3.150  -9.387  -3.670  0.00  0.00    +0.047 C 
ATOM     23  C   UNL     1       4.792  -5.435  -6.258  0.00  0.00    +0.044 C 
ENDROOT
BRANCH   1  26
ATOM     24  C   UNL     1       0.802  -1.825   1.306  0.00  0.00    +0.162 A 
ATOM     25  C   UNL     1       0.261  -2.673   0.353  0.00  0.00    +0.055 A 
ATOM     26  C   UNL     1       0.372  -4.043   0.502  0.00  0.00    -0.018 A 
ATOM     27  C   UNL     1       1.024  -4.570   1.602  0.00  0.00    +0.009 A 
ATOM     28  C   UNL     1       1.566  -3.730   2.557  0.00  0.00    +0.049 A 
ATOM     29  C   UNL     1       1.462  -2.356   2.410  0.00  0.00    +0.158 A 
BRANCH  29  30
ATOM     30  O   UNL     1       2.000  -1.528   3.345  0.00  0.00    -0.503 OA
ATOM     31  H   UNL     1       1.395  -1.301   4.064  0.00  0.00    +0.292 HD
ENDBRANCH  29  30
BRANCH  24  32
ATOM     32  O   UNL     1       0.693  -0.477   1.160  0.00  0.00    -0.489 OA
BRANCH  32  34
ATOM     33  C   UNL     1      -0.019   1.526   0.010  0.00  0.00    +0.048 C 
ATOM     34  C   UNL     1       0.002  -0.004   0.002  0.00  0.00    +0.226 C 
ENDBRANCH  32  34
ENDBRANCH  24  32
ENDBRANCH   1  26
TORSDOF 4
