REMARK  Name = ZINC54201596
REMARK  6 active torsions:
REMARK  status: ('A' for Active; 'I' for Inactive)
REMARK    1  A    between atoms: C_1  and  O_2
REMARK    2  A    between atoms: O_2  and  C_3
REMARK    3  A    between atoms: C_6  and  C_9
REMARK    4  A    between atoms: C_12  and  C_15
REMARK    5  A    between atoms: C_27  and  C_28
REMARK    6  A    between atoms: C_33  and  O_34
REMARK                            x       y       z     vdW  Elec       q    Type
REMARK                         _______ _______ _______ _____ _____    ______ ____
ROOT
ATOM      1  C   UNL     1       3.264  -2.576   3.954  0.00  0.00    +0.069 C 
ATOM      2  N   UNL     1       3.704  -1.968   5.002  0.00  0.00    -0.182 NA
ATOM      3  N   UNL     1       4.220  -2.817   5.978  0.00  0.00    -0.195 N 
ATOM      4  C   UNL     1       4.106  -4.207   5.508  0.00  0.00    +0.136 C 
ATOM      5  C   UNL     1       3.447  -4.067   4.122  0.00  0.00    +0.087 C 
ATOM      6  C   UNL     1       4.747  -2.423   7.179  0.00  0.00    +0.174 C 
ATOM      7  N   UNL     1       5.256  -3.178   8.141  0.00  0.00    -0.152 NA
ATOM      8  C   UNL     1       5.733  -2.672   9.256  0.00  0.00    +0.276 C 
ATOM      9  O   UNL     1       6.200  -3.378  10.136  0.00  0.00    -0.267 OA
ATOM     10  C   UNL     1       5.674  -1.198   9.387  0.00  0.00    +0.080 C 
ATOM     11  C   UNL     1       6.083  -0.398  10.405  0.00  0.00    +0.032 C 
ATOM     12  S   UNL     1       4.920  -0.766   7.824  0.00  0.00    -0.050 S 
ENDROOT
BRANCH   4  13
ATOM     13  C   UNL     1       5.469  -4.841   5.395  0.00  0.00    -0.025 A 
ATOM     14  C   UNL     1       6.541  -4.099   4.936  0.00  0.00    +0.007 A 
ATOM     15  C   UNL     1       7.790  -4.681   4.832  0.00  0.00    +0.020 A 
ATOM     16  C   UNL     1       7.968  -6.006   5.188  0.00  0.00    +0.041 A 
ATOM     17  C   UNL     1       6.895  -6.748   5.648  0.00  0.00    +0.020 A 
ATOM     18  C   UNL     1       5.647  -6.164   5.757  0.00  0.00    +0.007 A 
ATOM     19 CL   UNL     1       9.537  -6.737   5.057  0.00  0.00    -0.084 Cl
ENDBRANCH   4  13
BRANCH   1  23
ATOM     20  C   UNL     1       1.552  -0.684   0.561  0.00  0.00    +0.120 A 
ATOM     21  C   UNL     1       1.996   0.083   1.631  0.00  0.00    +0.046 A 
ATOM     22  C   UNL     1       2.553  -0.527   2.734  0.00  0.00    +0.013 A 
ATOM     23  C   UNL     1       2.669  -1.919   2.776  0.00  0.00    -0.002 A 
ATOM     24  C   UNL     1       2.221  -2.687   1.698  0.00  0.00    +0.013 A 
ATOM     25  C   UNL     1       1.661  -2.068   0.601  0.00  0.00    +0.046 A 
BRANCH  20  27
ATOM     26  C   UNL     1       0.922   1.347  -0.500  0.00  0.00    +0.277 C 
ATOM     27  O   UNL     1       1.004  -0.079  -0.524  0.00  0.00    -0.495 OA
ENDBRANCH  20  27
ENDBRANCH   1  23
BRANCH  11  28
ATOM     28  C   UNL     1       6.069   1.061  10.244  0.00  0.00    +0.018 A 
ATOM     29  C   UNL     1       6.008   1.628   8.966  0.00  0.00    +0.011 A 
ATOM     30  C   UNL     1       5.994   2.998   8.823  0.00  0.00    +0.001 A 
ATOM     31  C   UNL     1       6.041   3.818   9.938  0.00  0.00    +0.004 A 
ATOM     32  C   UNL     1       6.101   3.273  11.206  0.00  0.00    +0.046 A 
ATOM     33  C   UNL     1       6.110   1.897  11.372  0.00  0.00    +0.124 A 
BRANCH  33  34
ATOM     34  O   UNL     1       6.164   1.361  12.617  0.00  0.00    -0.506 OA
ATOM     35  H   UNL     1       7.062   1.210  12.942  0.00  0.00    +0.292 HD
ENDBRANCH  33  34
ENDBRANCH  11  28
TORSDOF 5
