REMARK  Name = ZINC39623228
REMARK  9 active torsions:
REMARK  status: ('A' for Active; 'I' for Inactive)
REMARK    1  A    between atoms: C_1  and  C_2
REMARK    2  A    between atoms: C_2  and  C_3
REMARK    3  A    between atoms: C_3  and  C_4
REMARK    4  A    between atoms: C_4  and  C_5
REMARK    5  A    between atoms: C_5  and  C_7
REMARK    6  A    between atoms: C_5  and  C_8
REMARK    7  A    between atoms: C_12  and  C_21
REMARK    8  A    between atoms: N_23  and  C_24
REMARK    9  A    between atoms: C_24  and  C_25
REMARK                            x       y       z     vdW  Elec       q    Type
REMARK                         _______ _______ _______ _____ _____    ______ ____
ROOT
ATOM      1  C   UNL     1       1.879  -3.936   2.212  0.00  0.00    +0.218 C 
ATOM      2  O   UNL     1       1.609  -4.582   1.222  0.00  0.00    -0.275 OA
ATOM      3  N   UNL     1       2.328  -4.558   3.320  0.00  0.00    -0.300 N 
ATOM      4  C   UNL     1       2.599  -3.961   4.649  0.00  0.00    +0.121 C 
ATOM      5  C   UNL     1       2.101  -5.018   5.660  0.00  0.00    +0.100 C 
ATOM      6  C   UNL     1       2.146  -6.349   4.891  0.00  0.00    -0.004 C 
ATOM      7  C   UNL     1       2.656  -5.994   3.487  0.00  0.00    +0.115 C 
ATOM      8  C   UNL     1       3.105  -7.321   5.573  0.00  0.00    -0.010 C 
ATOM      9  C   UNL     1       3.089  -8.656   4.823  0.00  0.00    -0.082 C 
ATOM     10  N   UNL     1       1.727  -9.202   4.822  0.00  0.00    +0.379 N 
ATOM     11  C   UNL     1       0.829  -8.306   4.084  0.00  0.00    -0.082 C 
ATOM     12  C   UNL     1       0.749  -6.955   4.802  0.00  0.00    -0.010 C 
ATOM     13  H   UNL     1       1.730 -10.110   4.381  0.00  0.00    -0.086 HD
ATOM     14  H   UNL     1       1.401  -9.294   5.773  0.00  0.00    -0.086 HD
ENDROOT
BRANCH   5  15
ATOM     15  C   UNL     1       0.691  -4.707   6.093  0.00  0.00    +0.218 C 
ATOM     16  O   UNL     1      -0.040  -4.071   5.364  0.00  0.00    -0.275 OA
ATOM     17  N   UNL     1       0.243  -5.136   7.289  0.00  0.00    -0.311 N 
ATOM     18  H   UNL     1       0.828  -5.645   7.872  0.00  0.00    +0.149 HD
BRANCH  17  19
ATOM     19  C   UNL     1      -1.127  -4.834   7.710  0.00  0.00    +0.141 C 
BRANCH  19  20
ATOM     20  C   UNL     1      -1.375  -5.421   9.075  0.00  0.00    -0.012 A 
ATOM     21  C   UNL     1      -2.052  -6.620   9.199  0.00  0.00    +0.006 A 
ATOM     22  C   UNL     1      -2.280  -7.160  10.451  0.00  0.00    +0.000 A 
ATOM     23  C   UNL     1      -1.831  -6.500  11.580  0.00  0.00    +0.001 A 
ATOM     24  C   UNL     1      -1.154  -5.302  11.458  0.00  0.00    +0.020 A 
ATOM     25  C   UNL     1      -0.921  -4.764  10.204  0.00  0.00    +0.046 A 
ATOM     26 CL   UNL     1      -0.065  -3.262  10.049  0.00  0.00    -0.083 Cl
ENDBRANCH  19  20
ENDBRANCH  17  19
ENDBRANCH   5  15
BRANCH   1  27
ATOM     27  C   UNL     1       1.714  -2.438   2.203  0.00  0.00    +0.072 C 
ATOM     28  C   UNL     1       0.507  -2.064   1.339  0.00  0.00    +0.017 C 
BRANCH  27  29
ATOM     29  C   UNL     1       2.974  -1.790   1.627  0.00  0.00    +0.012 C 
BRANCH  29  30
ATOM     30  C   UNL     1       2.858  -0.268   1.732  0.00  0.00    +0.000 C 
BRANCH  30  32
ATOM     31  C   UNL     1       4.002   1.903   1.261  0.00  0.00    +0.004 C 
ATOM     32  C   UNL     1       4.118   0.381   1.156  0.00  0.00    -0.003 C 
ENDBRANCH  30  32
ENDBRANCH  29  30
ENDBRANCH  27  29
ENDBRANCH   1  27
TORSDOF 7
