REMARK  Name = ZINC52010668
REMARK  3 active torsions:
REMARK  status: ('A' for Active; 'I' for Inactive)
REMARK    1  A    between atoms: C_9  and  C_12
REMARK    2  A    between atoms: N_14  and  C_15
REMARK    3  A    between atoms: C_21  and  O_23
REMARK                            x       y       z     vdW  Elec       q    Type
REMARK                         _______ _______ _______ _____ _____    ______ ____
ROOT
ATOM      1  C   UNL     1       4.989  -2.655   0.076  0.00  0.00    +0.234 C 
ATOM      2  O   UNL     1       5.694  -2.060   0.863  0.00  0.00    -0.274 OA
ATOM      3  N   UNL     1       5.393  -3.837  -0.430  0.00  0.00    -0.308 N 
ATOM      4  H   UNL     1       4.829  -4.313  -1.060  0.00  0.00    +0.149 HD
ENDROOT
BRANCH   1  13
ATOM      5  C   UNL     1      -0.017   1.377   0.010  0.00  0.00    +0.000 A 
ATOM      6  C   UNL     1       1.170   2.088   0.002  0.00  0.00    +0.002 A 
ATOM      7  C   UNL     1       2.375   1.416  -0.011  0.00  0.00    +0.023 A 
ATOM      8  C   UNL     1       2.396   0.025  -0.019  0.00  0.00    +0.031 A 
ATOM      9  C   UNL     1       1.207  -0.687  -0.015  0.00  0.00    -0.026 A 
ATOM     10  C   UNL     1       0.002  -0.004   0.002  0.00  0.00    +0.005 A 
ATOM     11  C   UNL     1       1.191  -2.192  -0.033  0.00  0.00    +0.039 C 
ATOM     12  C   UNL     1       2.531  -2.748   0.451  0.00  0.00    +0.036 C 
ATOM     13  C   UNL     1       3.661  -2.073  -0.337  0.00  0.00    +0.157 C 
ATOM     14  N   UNL     1       3.629  -0.637  -0.028  0.00  0.00    -0.333 N 
ATOM     15  H   UNL     1       4.448  -0.156   0.166  0.00  0.00    +0.147 HD
ENDBRANCH   1  13
BRANCH   3  16
ATOM     16  C   UNL     1       6.683  -4.403  -0.029  0.00  0.00    +0.101 C 
ATOM     17  C   UNL     1       6.514  -5.186   1.275  0.00  0.00    +0.025 C 
ATOM     18  C   UNL     1       7.861  -5.777   1.693  0.00  0.00    +0.002 C 
ATOM     19  C   UNL     1       8.369  -6.716   0.597  0.00  0.00    +0.003 C 
ATOM     20  C   UNL     1       8.538  -5.933  -0.707  0.00  0.00    +0.033 C 
ATOM     21  C   UNL     1       7.191  -5.342  -1.125  0.00  0.00    +0.135 C 
BRANCH  21  22
ATOM     22  O   UNL     1       7.349  -4.612  -2.343  0.00  0.00    -0.390 OA
ATOM     23  H   UNL     1       7.668  -5.145  -3.083  0.00  0.00    +0.210 HD
ENDBRANCH  21  22
ENDBRANCH   3  16
TORSDOF 3
