REMARK  Name = ZINC35486911
REMARK  17 active torsions:
REMARK  status: ('A' for Active; 'I' for Inactive)
REMARK    1  A    between atoms: C_1  and  C_2
REMARK    2  A    between atoms: C_2  and  O_3
REMARK    3  A    between atoms: O_3  and  C_4
REMARK    4  A    between atoms: C_6  and  C_16
REMARK    5  A    between atoms: C_9  and  O_10
REMARK    6  A    between atoms: O_10  and  C_11
REMARK    7  A    between atoms: C_11  and  C_12
REMARK    8  A    between atoms: C_12  and  C_13
REMARK    9  A    between atoms: C_13  and  C_14
REMARK   10  A    between atoms: C_13  and  C_15
REMARK   11  A    between atoms: C_23  and  C_38
REMARK   12  A    between atoms: N_31  and  C_32
REMARK   13  A    between atoms: C_32  and  C_33
REMARK   14  A    between atoms: C_33  and  C_34
REMARK   15  A    between atoms: C_34  and  N_35
REMARK   16  A    between atoms: N_35  and  C_36
REMARK   17  A    between atoms: N_35  and  C_37
REMARK                            x       y       z     vdW  Elec       q    Type
REMARK                         _______ _______ _______ _____ _____    ______ ____
ROOT
ATOM      1  C   UNL     1       0.654  -4.954  -0.018  0.00  0.00    +0.145 C 
ATOM      2  C   UNL     1       0.892  -5.511   1.347  0.00  0.00    +0.072 A 
ATOM      3  C   UNL     1       1.194  -4.849   2.621  0.00  0.00    +0.199 A 
ATOM      4  O   UNL     1       1.126  -3.643   2.779  0.00  0.00    -0.287 OA
ATOM      5  C   UNL     1       1.589  -5.790   3.700  0.00  0.00    +0.065 A 
ATOM      6  C   UNL     1       2.096  -5.308   4.906  0.00  0.00    +0.018 A 
ATOM      7  C   UNL     1       2.461  -6.188   5.888  0.00  0.00    -0.050 A 
ATOM      8  C   UNL     1       2.328  -7.554   5.686  0.00  0.00    +0.007 A 
ATOM      9  C   UNL     1       1.828  -8.047   4.502  0.00  0.00    +0.047 A 
ATOM     10  C   UNL     1       1.446  -7.171   3.486  0.00  0.00    +0.139 A 
ATOM     11  O   UNL     1       0.948  -7.676   2.334  0.00  0.00    -0.450 OA
ATOM     12  C   UNL     1       0.791  -6.870   1.266  0.00  0.00    +0.199 A 
ATOM     13  C   UNL     1       0.496  -7.229  -0.132  0.00  0.00    +0.283 C 
ATOM     14  O   UNL     1       0.348  -8.363  -0.543  0.00  0.00    -0.267 OA
ATOM     15  N   UNL     1       0.413  -6.115  -0.891  0.00  0.00    -0.284 N 
ATOM     16  C   UNL     1       3.009  -5.671   7.193  0.00  0.00    +0.044 C 
ENDROOT
BRANCH   1  19
ATOM     17  C   UNL     1      -1.498  -1.849   0.006  0.00  0.00    +0.162 A 
ATOM     18  C   UNL     1      -0.389  -2.680  -0.003  0.00  0.00    +0.055 A 
ATOM     19  C   UNL     1      -0.553  -4.052  -0.008  0.00  0.00    -0.019 A 
ATOM     20  C   UNL     1      -1.823  -4.600  -0.005  0.00  0.00    +0.009 A 
ATOM     21  C   UNL     1      -2.934  -3.777   0.004  0.00  0.00    +0.050 A 
ATOM     22  C   UNL     1      -2.776  -2.400   0.016  0.00  0.00    +0.162 A 
BRANCH  17  23
ATOM     23  O   UNL     1      -1.339  -0.499   0.012  0.00  0.00    -0.489 OA
BRANCH  23  25
ATOM     24  C   UNL     1      -0.019   1.526   0.010  0.00  0.00    +0.048 C 
ATOM     25  C   UNL     1       0.002  -0.004   0.002  0.00  0.00    +0.226 C 
ENDBRANCH  23  25
ENDBRANCH  17  23
BRANCH  22  26
ATOM     26  O   UNL     1      -3.868  -1.589   0.030  0.00  0.00    -0.488 OA
BRANCH  26  27
ATOM     27  C   UNL     1      -5.148  -2.225   0.039  0.00  0.00    +0.229 C 
BRANCH  27  28
ATOM     28  C   UNL     1      -6.246  -1.159   0.055  0.00  0.00    +0.044 C 
BRANCH  28  29
ATOM     29  C   UNL     1      -7.616  -1.839   0.065  0.00  0.00    -0.014 C 
ATOM     30  C   UNL     1      -8.711  -0.780   0.206  0.00  0.00    +0.007 C 
ATOM     31  C   UNL     1      -7.815  -2.605  -1.245  0.00  0.00    +0.007 C 
ENDBRANCH  28  29
ENDBRANCH  27  28
ENDBRANCH  26  27
ENDBRANCH  22  26
ENDBRANCH   1  19
BRANCH  15  32
ATOM     32  C   UNL     1       0.134  -6.068  -2.328  0.00  0.00    +0.107 C 
BRANCH  32  33
ATOM     33  C   UNL     1       1.449  -6.136  -3.106  0.00  0.00    +0.000 C 
BRANCH  33  34
ATOM     34  C   UNL     1       1.157  -6.087  -4.607  0.00  0.00    -0.078 C 
BRANCH  34  35
ATOM     35  N   UNL     1       2.420  -6.152  -5.354  0.00  0.00    +0.376 N 
ATOM     36  C   UNL     1       2.134  -6.226  -6.793  0.00  0.00    -0.097 C 
ATOM     37  C   UNL     1       3.217  -4.950  -5.075  0.00  0.00    -0.097 C 
ATOM     38  H   UNL     1       2.936  -6.972  -5.072  0.00  0.00    -0.083 HD
ENDBRANCH  34  35
ENDBRANCH  33  34
ENDBRANCH  32  33
ENDBRANCH  15  32
TORSDOF 11
