REMARK  Name = ZINC38223211
REMARK  6 active torsions:
REMARK  status: ('A' for Active; 'I' for Inactive)
REMARK    1  A    between atoms: C_1  and  C_2
REMARK    2  A    between atoms: C_6  and  N_8
REMARK    3  A    between atoms: C_13  and  C_17
REMARK    4  A    between atoms: C_13  and  N_18
REMARK    5  A    between atoms: N_18  and  C_19
REMARK    6  A    between atoms: C_22  and  C_25
REMARK                            x       y       z     vdW  Elec       q    Type
REMARK                         _______ _______ _______ _____ _____    ______ ____
ROOT
ATOM      1  N   UNL     1      -0.032  -2.916   2.270  0.00  0.00    -0.216 N 
ATOM      2  C   UNL     1      -0.625  -4.096   2.563  0.00  0.00    +0.142 A 
ATOM      3  C   UNL     1      -0.335  -4.376   3.894  0.00  0.00    +0.055 A 
ATOM      4  C   UNL     1       0.447  -3.352   4.385  0.00  0.00    +0.144 A 
ATOM      5  N   UNL     1       0.640  -2.478   3.423  0.00  0.00    -0.172 NA
ATOM      6  C   UNL     1      -0.865  -5.624   4.559  0.00  0.00    +0.126 C 
ATOM      7  N   UNL     1      -1.167  -6.573   3.470  0.00  0.00    -0.312 N 
ATOM      8  C   UNL     1      -1.670  -6.122   2.281  0.00  0.00    +0.158 C 
ATOM      9  N   UNL     1      -1.389  -4.936   1.807  0.00  0.00    -0.334 N 
ATOM     10  C   UNL     1      -2.138  -5.302   5.344  0.00  0.00    +0.058 C 
ATOM     11  H   UNL     1      -1.718  -4.659   0.938  0.00  0.00    +0.168 HD
ATOM     12  H   UNL     1      -1.007  -7.521   3.597  0.00  0.00    +0.149 HD
ENDROOT
BRANCH   1  18
ATOM     13  C   UNL     1      -0.178   1.292  -0.271  0.00  0.00    +0.044 C 
ATOM     14  C   UNL     1      -0.148  -0.214  -0.223  0.00  0.00    -0.048 A 
ATOM     15  C   UNL     1      -0.164  -0.942  -1.399  0.00  0.00    +0.003 A 
ATOM     16  C   UNL     1      -0.136  -2.324  -1.359  0.00  0.00    +0.002 A 
ATOM     17  C   UNL     1      -0.093  -2.981  -0.145  0.00  0.00    +0.028 A 
ATOM     18  C   UNL     1      -0.076  -2.252   1.037  0.00  0.00    +0.068 A 
ATOM     19  C   UNL     1      -0.099  -0.864   0.994  0.00  0.00    +0.031 A 
ENDBRANCH   1  18
BRANCH   6  20
ATOM     20  N   UNL     1       0.150  -6.189   5.451  0.00  0.00    -0.320 N 
ATOM     21  H   UNL     1       0.021  -6.161   6.412  0.00  0.00    +0.148 HD
BRANCH  20  22
ATOM     22  C   UNL     1       1.304  -6.766   4.920  0.00  0.00    +0.029 A 
ATOM     23  C   UNL     1       1.563  -6.671   3.557  0.00  0.00    +0.023 A 
ATOM     24  C   UNL     1       2.702  -7.241   3.030  0.00  0.00    +0.010 A 
ATOM     25  C   UNL     1       3.595  -7.912   3.864  0.00  0.00    -0.018 A 
ATOM     26  C   UNL     1       3.334  -8.006   5.230  0.00  0.00    +0.010 A 
ATOM     27  C   UNL     1       2.196  -7.431   5.754  0.00  0.00    +0.023 A 
BRANCH  25  28
ATOM     28  C   UNL     1       4.821  -8.527   3.298  0.00  0.00    -0.018 A 
ATOM     29  C   UNL     1       5.087  -8.429   1.933  0.00  0.00    +0.008 A 
ATOM     30  C   UNL     1       6.229  -9.002   1.413  0.00  0.00    +0.001 A 
ATOM     31  C   UNL     1       7.110  -9.672   2.243  0.00  0.00    +0.000 A 
ATOM     32  C   UNL     1       6.851  -9.772   3.598  0.00  0.00    +0.001 A 
ATOM     33  C   UNL     1       5.715  -9.198   4.130  0.00  0.00    +0.008 A 
ENDBRANCH  25  28
ENDBRANCH  20  22
ENDBRANCH   6  20
TORSDOF 4
