REMARK  Name = ZINC63137364
REMARK  13 active torsions:
REMARK  status: ('A' for Active; 'I' for Inactive)
REMARK    1  A    between atoms: C_1  and  C_2
REMARK    2  A    between atoms: C_2  and  C_3
REMARK    3  A    between atoms: C_3  and  C_4
REMARK    4  A    between atoms: C_4  and  O_5
REMARK    5  A    between atoms: O_5  and  C_6
REMARK    6  A    between atoms: C_6  and  C_7
REMARK    7  A    between atoms: C_7  and  C_8
REMARK    8  A    between atoms: C_8  and  N_9
REMARK    9  A    between atoms: C_29  and  C_31
REMARK   10  A    between atoms: C_34  and  O_39
REMARK   11  A    between atoms: C_36  and  O_37
REMARK   12  A    between atoms: O_37  and  C_38
REMARK   13  A    between atoms: O_39  and  C_40
REMARK                            x       y       z     vdW  Elec       q    Type
REMARK                         _______ _______ _______ _____ _____    ______ ____
ROOT
ATOM      1  N   UNL     1       2.996  -6.174  -5.184  0.00  0.00    -0.291 N 
ATOM      2  C   UNL     1       2.274  -6.370  -6.455  0.00  0.00    +0.203 C 
ATOM      3  C   UNL     1       3.025  -5.644  -7.551  0.00  0.00    +0.234 C 
ATOM      4  O   UNL     1       2.446  -4.973  -8.379  0.00  0.00    -0.274 OA
ATOM      5  N   UNL     1       4.392  -5.781  -7.564  0.00  0.00    -0.279 N 
ATOM      6  C   UNL     1       4.936  -6.676  -6.565  0.00  0.00    +0.167 C 
ATOM      7  C   UNL     1       4.351  -6.340  -5.217  0.00  0.00    +0.237 C 
ATOM      8  O   UNL     1       5.040  -6.229  -4.224  0.00  0.00    -0.274 OA
ATOM      9  C   UNL     1       6.430  -6.863  -6.511  0.00  0.00    +0.065 C 
ATOM     10  C   UNL     1       7.104  -5.864  -7.411  0.00  0.00    -0.034 C 
ATOM     11  C   UNL     1       8.200  -5.133  -7.265  0.00  0.00    -0.001 A 
ATOM     12  C   UNL     1       9.194  -5.061  -6.181  0.00  0.00    +0.010 A 
ATOM     13  C   UNL     1      10.211  -4.176  -6.356  0.00  0.00    +0.001 A 
ATOM     14  C   UNL     1      10.338  -3.365  -7.488  0.00  0.00    +0.002 A 
ATOM     15  C   UNL     1       9.474  -3.369  -8.534  0.00  0.00    +0.026 A 
ATOM     16  C   UNL     1       8.365  -4.261  -8.467  0.00  0.00    +0.043 A 
ATOM     17  N   UNL     1       7.406  -4.474  -9.318  0.00  0.00    -0.375 N 
ATOM     18  C   UNL     1       6.527  -5.522  -8.783  0.00  0.00    +0.131 C 
ATOM     19  C   UNL     1       5.127  -4.984  -8.535  0.00  0.00    +0.137 C 
ATOM     20  H   UNL     1       7.290  -4.017 -10.165  0.00  0.00    +0.160 HD
ENDROOT
BRANCH  19  21
ATOM     21  C   UNL     1       5.269  -3.579  -8.008  0.00  0.00    +0.017 A 
ATOM     22  C   UNL     1       5.232  -3.345  -6.647  0.00  0.00    +0.013 A 
ATOM     23  C   UNL     1       5.362  -2.058  -6.161  0.00  0.00    +0.046 A 
ATOM     24  C   UNL     1       5.532  -0.997  -7.039  0.00  0.00    +0.124 A 
ATOM     25  C   UNL     1       5.570  -1.229  -8.405  0.00  0.00    +0.091 A 
ATOM     26  C   UNL     1       5.444  -2.522  -8.890  0.00  0.00    +0.129 A 
BRANCH  26  27
ATOM     27  O   UNL     1       5.487  -2.753 -10.229  0.00  0.00    -0.495 OA
ATOM     28  C   UNL     1       5.670  -1.619 -11.078  0.00  0.00    +0.277 C 
ENDBRANCH  26  27
BRANCH  24  29
ATOM     29  O   UNL     1       5.660   0.268  -6.561  0.00  0.00    -0.495 OA
ATOM     30  C   UNL     1       5.611   0.433  -5.142  0.00  0.00    +0.277 C 
ENDBRANCH  24  29
ENDBRANCH  19  21
BRANCH   1  31
ATOM     31  C   UNL     1       2.295  -5.812  -3.950  0.00  0.00    +0.110 C 
BRANCH  31  32
ATOM     32  C   UNL     1       2.215  -4.289  -3.836  0.00  0.00    +0.047 C 
BRANCH  32  33
ATOM     33  C   UNL     1       1.483  -3.911  -2.547  0.00  0.00    +0.161 C 
BRANCH  33  34
ATOM     34  O   UNL     1       1.408  -2.488  -2.441  0.00  0.00    -0.380 OA
BRANCH  34  35
ATOM     35  C   UNL     1       0.739  -2.027  -1.265  0.00  0.00    +0.160 C 
BRANCH  35  36
ATOM     36  C   UNL     1       0.718  -0.497  -1.257  0.00  0.00    +0.028 C 
BRANCH  36  38
ATOM     37  C   UNL     1      -0.019   1.526   0.010  0.00  0.00    +0.004 C 
ATOM     38  C   UNL     1       0.002  -0.004   0.002  0.00  0.00    -0.001 C 
ENDBRANCH  36  38
ENDBRANCH  35  36
ENDBRANCH  34  35
ENDBRANCH  33  34
ENDBRANCH  32  33
ENDBRANCH  31  32
ENDBRANCH   1  31
TORSDOF 10
