REMARK  Name = ZINC08193150
REMARK  5 active torsions:
REMARK  status: ('A' for Active; 'I' for Inactive)
REMARK    1  A    between atoms: C_1  and  C_2
REMARK    2  A    between atoms: C_2  and  C_4
REMARK    3  A    between atoms: C_2  and  S_13
REMARK    4  A    between atoms: N_6  and  C_7
REMARK    5  A    between atoms: S_13  and  C_14
REMARK                            x       y       z     vdW  Elec       q    Type
REMARK                         _______ _______ _______ _____ _____    ______ ____
ROOT
ATOM      1  S   UNL     1       3.641   2.263  -1.572  0.00  0.00    -0.076 S 
ENDROOT
BRANCH   1   2
ATOM      2  C   UNL     1       2.311   1.345  -0.869  0.00  0.00    +0.178 C 
ATOM      3  N   UNL     1       2.117   0.068  -1.156  0.00  0.00    -0.224 NA
ATOM      4  C   UNL     1       1.107  -0.646  -0.571  0.00  0.00    +0.072 A 
ATOM      5  C   UNL     1       1.152  -2.043  -0.573  0.00  0.00    +0.028 A 
ATOM      6  C   UNL     1       0.131  -2.765   0.007  0.00  0.00    +0.002 A 
ATOM      7  C   UNL     1      -0.942  -2.117   0.593  0.00  0.00    +0.000 A 
ATOM      8  C   UNL     1      -0.996  -0.733   0.603  0.00  0.00    +0.007 A 
ATOM      9  C   UNL     1       0.017  -0.002   0.030  0.00  0.00    +0.001 A 
ATOM     10  C   UNL     1      -0.007   1.505   0.029  0.00  0.00    +0.137 C 
ATOM     11  N   UNL     1       1.418   1.918   0.010  0.00  0.00    -0.194 N 
ATOM     12  N   UNL     1       1.630   2.827   1.031  0.00  0.00    -0.190 NA
ATOM     13  C   UNL     1       0.644   2.951   1.828  0.00  0.00    +0.105 C 
ATOM     14  C   UNL     1      -0.496   2.063   1.374  0.00  0.00    +0.078 C 
ENDBRANCH   1   2
BRANCH   1  16
ATOM     15  C   UNL     1       3.430   0.561  -3.698  0.00  0.00    +0.029 C 
ATOM     16  C   UNL     1       4.404   0.979  -2.594  0.00  0.00    +0.137 C 
BRANCH  16  17
ATOM     17  C   UNL     1       5.667   1.516  -3.216  0.00  0.00    +0.230 C 
ATOM     18  O   UNL     1       5.838   2.714  -3.302  0.00  0.00    -0.274 OA
ATOM     19  N   UNL     1       6.606   0.666  -3.675  0.00  0.00    -0.285 N 
ATOM     20  H   UNL     1       6.500  -0.289  -3.546  0.00  0.00    +0.155 HD
BRANCH  19  21
ATOM     21  C   UNL     1       7.734   1.162  -4.339  0.00  0.00    +0.033 A 
ATOM     22  C   UNL     1       8.297   0.444  -5.386  0.00  0.00    +0.023 A 
ATOM     23  C   UNL     1       9.406   0.939  -6.043  0.00  0.00    +0.002 A 
ATOM     24  C   UNL     1       9.964   2.142  -5.651  0.00  0.00    +0.000 A 
ATOM     25  C   UNL     1       9.409   2.857  -4.605  0.00  0.00    +0.002 A 
ATOM     26  C   UNL     1       8.296   2.370  -3.948  0.00  0.00    +0.023 A 
ENDBRANCH  19  21
ENDBRANCH  16  17
ENDBRANCH   1  16
TORSDOF 4
