REMARK  Name = ZINC62977252
REMARK  8 active torsions:
REMARK  status: ('A' for Active; 'I' for Inactive)
REMARK    1  A    between atoms: C_1  and  C_2
REMARK    2  A    between atoms: C_2  and  N_3
REMARK    3  A    between atoms: N_3  and  C_4
REMARK    4  A    between atoms: N_3  and  C_6
REMARK    5  A    between atoms: C_4  and  C_5
REMARK    6  A    between atoms: C_9  and  C_12
REMARK    7  A    between atoms: C_20  and  C_23
REMARK    8  A    between atoms: N_26  and  C_28
REMARK                            x       y       z     vdW  Elec       q    Type
REMARK                         _______ _______ _______ _____ _____    ______ ____
ROOT
ATOM      1  C   UNL     1      -1.303  -6.134   0.445  0.00  0.00    +0.058 C 
ATOM      2  C   UNL     1      -1.817  -6.736   1.545  0.00  0.00    +0.176 C 
ATOM      3  C   UNL     1      -1.772  -8.175   1.850  0.00  0.00    +0.231 C 
ATOM      4  O   UNL     1      -1.276  -9.065   1.182  0.00  0.00    -0.283 OA
ATOM      5  C   UNL     1      -2.463  -8.299   3.147  0.00  0.00    +0.068 A 
ATOM      6  C   UNL     1      -2.756  -9.384   3.973  0.00  0.00    +0.024 A 
ATOM      7  C   UNL     1      -3.426  -9.188   5.149  0.00  0.00    +0.010 A 
ATOM      8  C   UNL     1      -3.816  -7.907   5.526  0.00  0.00    +0.133 A 
ATOM      9  C   UNL     1      -3.532  -6.819   4.711  0.00  0.00    +0.034 A 
ATOM     10  C   UNL     1      -2.853  -7.001   3.514  0.00  0.00    +0.146 A 
ATOM     11  O   UNL     1      -2.459  -6.122   2.567  0.00  0.00    -0.451 OA
ATOM     12  C   UNL     1      -3.962  -5.436   5.128  0.00  0.00    +0.051 C 
ATOM     13  O   UNL     1      -4.475  -7.698   6.696  0.00  0.00    -0.476 OA
ATOM     14  C   UNL     1      -5.065  -8.838   7.324  0.00  0.00    +0.319 C 
ATOM     15  N   UNL     1      -4.062  -9.915   7.382  0.00  0.00    -0.263 NA
ATOM     16  C   UNL     1      -3.735 -10.376   6.026  0.00  0.00    +0.126 C 
ENDROOT
BRANCH   1  20
ATOM     17  C   UNL     1      -1.344  -1.906   0.127  0.00  0.00    +0.013 A 
ATOM     18  C   UNL     1      -1.982  -2.522   1.189  0.00  0.00    +0.022 A 
ATOM     19  C   UNL     1      -1.973  -3.896   1.300  0.00  0.00    +0.010 A 
ATOM     20  C   UNL     1      -1.317  -4.668   0.334  0.00  0.00    -0.021 A 
ATOM     21  C   UNL     1      -0.675  -4.037  -0.737  0.00  0.00    +0.010 A 
ATOM     22  C   UNL     1      -0.698  -2.662  -0.836  0.00  0.00    +0.022 A 
BRANCH  17  23
ATOM     23  N   UNL     1      -1.358  -0.512   0.022  0.00  0.00    -0.394 NA
ATOM     24  H   UNL     1      -0.854  -0.232  -0.807  0.00  0.00    +0.126 HD
BRANCH  23  26
ATOM     25  C   UNL     1      -2.758   1.470  -0.306  0.00  0.00    +0.022 C 
ATOM     26  C   UNL     1      -2.746  -0.041  -0.067  0.00  0.00    +0.081 C 
ENDBRANCH  23  26
BRANCH  23  27
ATOM     27  C   UNL     1      -0.716   0.075   1.206  0.00  0.00    +0.081 C 
ATOM     28  C   UNL     1       0.763  -0.315   1.230  0.00  0.00    +0.022 C 
ENDBRANCH  23  27
ENDBRANCH  17  23
ENDBRANCH   1  20
BRANCH  15  29
ATOM     29  C   UNL     1      -4.533 -11.028   8.217  0.00  0.00    +0.060 C 
ATOM     30  C   UNL     1      -5.888 -11.546   7.693  0.00  0.00    +0.019 C 
ATOM     31  C   UNL     1      -6.679 -11.906   8.975  0.00  0.00    +0.002 C 
ATOM     32  C   UNL     1      -6.271 -10.780   9.956  0.00  0.00    +0.002 C 
ATOM     33  C   UNL     1      -4.776 -10.541   9.657  0.00  0.00    +0.019 C 
ENDBRANCH  15  29
TORSDOF 5
