REMARK  Name = ZINC09831966
REMARK  11 active torsions:
REMARK  status: ('A' for Active; 'I' for Inactive)
REMARK    1  A    between atoms: C_1  and  C_2
REMARK    2  A    between atoms: C_2  and  O_3
REMARK    3  A    between atoms: O_3  and  C_4
REMARK    4  A    between atoms: C_4  and  C_6
REMARK    5  A    between atoms: C_10  and  N_11
REMARK    6  A    between atoms: C_12  and  C_14
REMARK    7  A    between atoms: C_14  and  C_15
REMARK    8  A    between atoms: C_15  and  S_16
REMARK    9  A    between atoms: S_16  and  C_19
REMARK   10  A    between atoms: C_28  and  C_29
REMARK   11  A    between atoms: C_28  and  N_63
REMARK                            x       y       z     vdW  Elec       q    Type
REMARK                         _______ _______ _______ _____ _____    ______ ____
ROOT
ATOM      1  C   UNL     1       3.767   5.680  -5.249  0.00  0.00    +0.091 A 
ATOM      2  C   UNL     1       3.535   5.293  -3.869  0.00  0.00    -0.025 A 
ATOM      3  C   UNL     1       2.241   5.092  -3.535  0.00  0.00    -0.021 A 
ATOM      4  S   UNL     1       1.335   5.411  -5.021  0.00  0.00    -0.079 S 
ATOM      5  C   UNL     1       2.655   5.804  -6.073  0.00  0.00    +0.086 A 
ATOM      6  C   UNL     1       1.723   4.687  -2.190  0.00  0.00    -0.035 C 
ATOM      7  C   UNL     1       3.982   5.141  -1.440  0.00  0.00    -0.073 C 
ATOM      8  C   UNL     1       4.632   5.111  -2.826  0.00  0.00    +0.018 C 
ATOM      9  N   UNL     1       2.867   4.171  -1.400  0.00  0.00    +0.386 N 
ATOM     10  H   UNL     1       3.182   3.283  -1.808  0.00  0.00    -0.081 HD
ENDROOT
BRANCH   5  11
ATOM     11  N   UNL     1       2.612   6.157  -7.413  0.00  0.00    -0.279 N 
ATOM     12  C   UNL     1       1.428   6.227  -8.054  0.00  0.00    +0.219 C 
ATOM     13  O   UNL     1       0.401   5.980  -7.458  0.00  0.00    -0.275 OA
ATOM     14  H   UNL     1       3.433   6.355  -7.889  0.00  0.00    +0.155 HD
BRANCH  12  15
ATOM     15  C   UNL     1       1.381   6.611  -9.510  0.00  0.00    +0.119 C 
BRANCH  15  16
ATOM     16  C   UNL     1      -0.071   6.614  -9.990  0.00  0.00    +0.181 C 
BRANCH  16  17
ATOM     17  S   UNL     1      -0.128   7.077 -11.743  0.00  0.00    -0.003 S 
ATOM     18  O   UNL     1       0.258   8.435 -11.904  0.00  0.00    -0.169 OA
ATOM     19  O   UNL     1       0.462   6.057 -12.538  0.00  0.00    -0.169 OA
BRANCH  17  20
ATOM     20  C   UNL     1      -1.838   7.042 -12.166  0.00  0.00    +0.088 A 
ATOM     21  C   UNL     1      -2.409   5.878 -12.644  0.00  0.00    +0.027 A 
ATOM     22  C   UNL     1      -3.752   5.849 -12.971  0.00  0.00    +0.002 A 
ATOM     23  C   UNL     1      -4.522   6.989 -12.829  0.00  0.00    +0.000 A 
ATOM     24  C   UNL     1      -3.950   8.155 -12.356  0.00  0.00    +0.002 A 
ATOM     25  C   UNL     1      -2.608   8.182 -12.024  0.00  0.00    +0.027 A 
ENDBRANCH  17  20
ENDBRANCH  16  17
ENDBRANCH  15  16
ENDBRANCH  12  15
ENDBRANCH   5  11
BRANCH   1  26
ATOM     26  C   UNL     1       5.119   5.930  -5.752  0.00  0.00    +0.342 C 
ATOM     27  O   UNL     1       5.768   5.019  -6.231  0.00  0.00    -0.245 OA
BRANCH  26  28
ATOM     28  O   UNL     1       5.645   7.170  -5.684  0.00  0.00    -0.461 OA
BRANCH  28  30
ATOM     29  C   UNL     1       7.413   8.806  -6.041  0.00  0.00    +0.048 C 
ATOM     30  C   UNL     1       6.990   7.344  -6.202  0.00  0.00    +0.229 C 
ENDBRANCH  28  30
ENDBRANCH  26  28
ENDBRANCH   1  26
BRANCH   9  31
ATOM     31  C   UNL     1       2.451   3.937  -0.001  0.00  0.00    -0.043 C 
BRANCH  31  32
ATOM     32  C   UNL     1       1.156   3.165   0.008  0.00  0.00    -0.064 A 
ATOM     33  C   UNL     1       1.175   1.783   0.000  0.00  0.00    +0.002 A 
ATOM     34  C   UNL     1      -0.013   1.076   0.008  0.00  0.00    +0.000 A 
ATOM     35  C   UNL     1      -1.219   1.751   0.017  0.00  0.00    +0.000 A 
ATOM     36  C   UNL     1      -1.238   3.133   0.030  0.00  0.00    +0.000 A 
ATOM     37  C   UNL     1      -0.050   3.840   0.023  0.00  0.00    +0.002 A 
ENDBRANCH  31  32
ENDBRANCH   9  31
TORSDOF 10
