REMARK  Name = ZINC43069556
REMARK  10 active torsions:
REMARK  status: ('A' for Active; 'I' for Inactive)
REMARK    1  A    between atoms: C_1  and  C_2
REMARK    2  A    between atoms: C_2  and  C_3
REMARK    3  A    between atoms: C_2  and  C_4
REMARK    4  A    between atoms: C_4  and  C_5
REMARK    5  A    between atoms: C_5  and  C_6
REMARK    6  A    between atoms: C_6  and  C_34
REMARK    7  A    between atoms: C_9  and  C_17
REMARK    8  A    between atoms: C_24  and  N_29
REMARK    9  A    between atoms: N_29  and  S_30
REMARK   10  A    between atoms: S_30  and  C_33
REMARK                            x       y       z     vdW  Elec       q    Type
REMARK                         _______ _______ _______ _____ _____    ______ ____
ROOT
ATOM      1  C   UNL     1      -2.886  -2.478  -0.161  0.00  0.00    +0.107 C 
ATOM      2  C   UNL     1      -3.559  -1.697  -1.269  0.00  0.00    +0.196 C 
ATOM      3  O   UNL     1      -3.553  -0.481  -1.267  0.00  0.00    -0.289 OA
ATOM      4  C   UNL     1      -4.193  -2.414  -2.305  0.00  0.00    +0.112 C 
ATOM      5  C   UNL     1      -4.196  -3.809  -2.301  0.00  0.00    +0.218 C 
ATOM      6  C   UNL     1      -3.576  -4.558  -1.280  0.00  0.00    +0.110 A 
ATOM      7  N   UNL     1      -2.931  -3.942  -0.226  0.00  0.00    -0.314 N 
ATOM      8  C   UNL     1      -2.450  -4.909   0.571  0.00  0.00    +0.200 A 
ATOM      9  N   UNL     1      -2.761  -6.079   0.068  0.00  0.00    -0.243 NA
ATOM     10  C   UNL     1      -3.448  -5.917  -1.062  0.00  0.00    +0.142 A 
ATOM     11  O   UNL     1      -4.813  -4.463  -3.308  0.00  0.00    -0.285 OA
ATOM     12  C   UNL     1      -3.523  -2.050   1.163  0.00  0.00    +0.043 C 
ENDROOT
BRANCH   4  13
ATOM     13  C   UNL     1      -4.858  -1.685  -3.398  0.00  0.00    +0.179 C 
ATOM     14  N   UNL     1      -4.822  -0.389  -3.356  0.00  0.00    -0.111 NA
ATOM     15  S   UNL     1      -5.550   0.521  -4.535  0.00  0.00    +0.102 S 
ATOM     16  O   UNL     1      -4.527   0.915  -5.439  0.00  0.00    -0.146 OA
ATOM     17  O   UNL     1      -6.387   1.458  -3.872  0.00  0.00    -0.146 OA
ATOM     18  C   UNL     1      -6.609  -0.581  -5.415  0.00  0.00    +0.137 A 
ATOM     19  C   UNL     1      -7.577  -0.098  -6.267  0.00  0.00    +0.057 A 
ATOM     20  C   UNL     1      -8.402  -0.985  -6.948  0.00  0.00    +0.076 A 
ATOM     21  C   UNL     1      -8.247  -2.353  -6.766  0.00  0.00    +0.028 A 
ATOM     22  C   UNL     1      -7.276  -2.834  -5.911  0.00  0.00    +0.029 A 
ATOM     23  C   UNL     1      -6.448  -1.950  -5.230  0.00  0.00    +0.082 A 
ATOM     24  N   UNL     1      -5.455  -2.430  -4.374  0.00  0.00    -0.192 NA
BRANCH  20  25
ATOM     25  N   UNL     1      -9.388  -0.500  -7.816  0.00  0.00    -0.103 NA
BRANCH  25  26
ATOM     26  S   UNL     1     -10.370  -1.559  -8.626  0.00  0.00    +0.059 S 
ATOM     27  O   UNL     1      -9.495  -2.287  -9.477  0.00  0.00    -0.154 OA
ATOM     28  O   UNL     1     -11.108  -2.221  -7.608  0.00  0.00    -0.154 OA
ATOM     29  C   UNL     1     -11.472  -0.509  -9.614  0.00  0.00    +0.220 C 
ENDBRANCH  25  26
ENDBRANCH  20  25
ENDBRANCH   4  13
BRANCH   1  30
ATOM     30  C   UNL     1      -1.416  -2.058  -0.121  0.00  0.00    +0.037 C 
BRANCH  30  31
ATOM     31  C   UNL     1      -0.714  -2.538  -1.393  0.00  0.00    +0.006 C 
BRANCH  31  33
ATOM     32  C   UNL     1       1.503  -2.817  -2.512  0.00  0.00    +0.007 C 
ATOM     33  C   UNL     1       0.781  -2.227  -1.299  0.00  0.00    -0.017 C 
ATOM     34  C   UNL     1       0.986  -0.711  -1.271  0.00  0.00    +0.007 C 
ENDBRANCH  31  33
ENDBRANCH  30  31
ENDBRANCH   1  30
TORSDOF 6
