REMARK  Name = ZINC13117264
REMARK  9 active torsions:
REMARK  status: ('A' for Active; 'I' for Inactive)
REMARK    1  A    between atoms: C_1  and  C_2
REMARK    2  A    between atoms: C_5  and  S_25
REMARK    3  A    between atoms: C_7  and  C_8
REMARK    4  A    between atoms: N_10  and  C_11
REMARK    5  A    between atoms: C_11  and  C_12
REMARK    6  A    between atoms: C_12  and  C_14
REMARK    7  A    between atoms: C_12  and  N_66
REMARK    8  A    between atoms: C_21  and  C_24
REMARK    9  A    between atoms: S_25  and  N_28
REMARK                            x       y       z     vdW  Elec       q    Type
REMARK                         _______ _______ _______ _____ _____    ______ ____
ROOT
ATOM      1  C   UNL     1      -2.306   0.405   5.164  0.00  0.00    +0.244 C 
ATOM      2  O   UNL     1      -2.674   0.361   6.321  0.00  0.00    -0.270 OA
ATOM      3  N   UNL     1      -2.603  -0.605   4.323  0.00  0.00    -0.313 N 
ATOM      4  H   UNL     1      -2.309  -0.570   3.399  0.00  0.00    +0.149 HD
ENDROOT
BRANCH   1  11
ATOM      5  C   UNL     1      -1.897   2.680   6.905  0.00  0.00    +0.044 C 
ATOM      6  C   UNL     1      -1.329   2.671   5.509  0.00  0.00    -0.038 A 
ATOM      7  C   UNL     1      -0.606   3.752   5.050  0.00  0.00    +0.006 A 
ATOM      8  C   UNL     1      -0.079   3.743   3.770  0.00  0.00    +0.029 A 
ATOM      9  C   UNL     1      -0.282   2.655   2.940  0.00  0.00    +0.106 A 
ATOM     10  C   UNL     1      -1.002   1.567   3.387  0.00  0.00    +0.041 A 
ATOM     11  C   UNL     1      -1.532   1.568   4.678  0.00  0.00    +0.041 A 
BRANCH   9  12
ATOM     12  S   UNL     1       0.388   2.657   1.310  0.00  0.00    +0.061 S 
ATOM     13  O   UNL     1       0.528   1.295   0.927  0.00  0.00    -0.153 OA
ATOM     14  O   UNL     1       1.484   3.561   1.322  0.00  0.00    -0.153 OA
BRANCH  12  15
ATOM     15  N   UNL     1      -0.757   3.314   0.310  0.00  0.00    -0.172 NA
ATOM     16  C   UNL     1      -1.761   2.466  -0.351  0.00  0.00    +0.137 C 
ATOM     17  C   UNL     1      -3.149   3.073  -0.089  0.00  0.00    +0.177 C 
ATOM     18  O   UNL     1      -3.136   4.453  -0.465  0.00  0.00    -0.377 OA
ATOM     19  C   UNL     1      -2.228   5.257   0.292  0.00  0.00    +0.177 C 
ATOM     20  C   UNL     1      -0.797   4.762   0.053  0.00  0.00    +0.137 C 
ENDBRANCH  12  15
ENDBRANCH   9  12
ENDBRANCH   1  11
BRANCH   3  21
ATOM     21  C   UNL     1      -3.370  -1.757   4.804  0.00  0.00    +0.094 C 
BRANCH  21  22
ATOM     22  C   UNL     1      -3.568  -2.752   3.659  0.00  0.00    -0.013 C 
BRANCH  22  29
ATOM     23  C   UNL     1      -1.303  -3.451   4.153  0.00  0.00    -0.078 C 
ATOM     24  C   UNL     1       0.080  -3.680   3.539  0.00  0.00    -0.015 C 
ATOM     25  C   UNL     1      -0.002  -4.818   2.518  0.00  0.00    -0.018 C 
ATOM     26  C   UNL     1      -1.042  -4.462   1.451  0.00  0.00    -0.015 C 
ATOM     27  C   UNL     1      -2.392  -4.211   2.126  0.00  0.00    -0.078 C 
ATOM     28  C   UNL     1       1.364  -5.010   1.856  0.00  0.00    +0.007 C 
ATOM     29  N   UNL     1      -2.252  -3.089   3.078  0.00  0.00    +0.386 N 
ATOM     30  H   UNL     1      -1.889  -2.270   2.577  0.00  0.00    -0.081 HD
ENDBRANCH  22  29
BRANCH  22  31
ATOM     31  C   UNL     1      -4.248  -3.991   4.182  0.00  0.00    -0.022 A 
ATOM     32  C   UNL     1      -5.521  -4.414   3.983  0.00  0.00    +0.009 A 
ATOM     33  C   UNL     1      -5.931  -5.599   4.566  0.00  0.00    +0.008 A 
ATOM     34  C   UNL     1      -5.053  -6.296   5.327  0.00  0.00    +0.045 A 
ATOM     35  S   UNL     1      -3.590  -5.278   5.230  0.00  0.00    -0.103 S 
ENDBRANCH  22  31
ENDBRANCH  21  22
ENDBRANCH   3  21
TORSDOF 7
