REMARK  Name = ZINC09452047
REMARK  11 active torsions:
REMARK  status: ('A' for Active; 'I' for Inactive)
REMARK    1  A    between atoms: C_1  and  C_2
REMARK    2  A    between atoms: C_2  and  C_3
REMARK    3  A    between atoms: C_3  and  C_4
REMARK    4  A    between atoms: C_4  and  C_5
REMARK    5  A    between atoms: C_5  and  C_6
REMARK    6  A    between atoms: C_18  and  C_20
REMARK    7  A    between atoms: C_28  and  C_31
REMARK    8  A    between atoms: C_34  and  C_37
REMARK    9  A    between atoms: C_37  and  C_38
REMARK   10  A    between atoms: C_37  and  C_39
REMARK   11  A    between atoms: C_37  and  C_40
REMARK                            x       y       z     vdW  Elec       q    Type
REMARK                         _______ _______ _______ _____ _____    ______ ____
ROOT
ATOM      1  C   UNL     1       0.739  -2.004  -1.265  0.00  0.00    +0.221 C 
ATOM      2  O   UNL     1       0.230  -2.623  -0.354  0.00  0.00    -0.275 OA
ATOM      3  N   UNL     1       1.322  -2.665  -2.285  0.00  0.00    -0.255 N 
ATOM      4  C   UNL     1       1.898  -1.945  -3.330  0.00  0.00    +0.058 A 
ATOM      5  C   UNL     1       3.025  -1.156  -3.122  0.00  0.00    +0.025 A 
ATOM      6  C   UNL     1       3.609  -0.508  -4.195  0.00  0.00    +0.002 A 
ATOM      7  C   UNL     1       3.083  -0.644  -5.468  0.00  0.00    +0.002 A 
ATOM      8  C   UNL     1       1.948  -1.410  -5.674  0.00  0.00    +0.025 A 
ATOM      9  C   UNL     1       1.350  -2.038  -4.596  0.00  0.00    +0.053 A 
ATOM     10  N   UNL     1       0.174  -2.771  -4.717  0.00  0.00    -0.316 N 
ATOM     11  C   UNL     1       0.061  -4.104  -4.484  0.00  0.00    +0.017 C 
ATOM     12  C   UNL     1       0.553  -4.744  -3.410  0.00  0.00    +0.040 C 
ATOM     13  C   UNL     1       1.336  -4.112  -2.283  0.00  0.00    +0.182 C 
ATOM     14  C   UNL     1       0.359  -6.138  -3.258  0.00  0.00    +0.163 C 
ATOM     15  O   UNL     1       0.796  -6.686  -2.265  0.00  0.00    -0.292 OA
ATOM     16  C   UNL     1      -0.367  -6.960  -4.280  0.00  0.00    +0.088 C 
ATOM     17  C   UNL     1      -0.188  -6.298  -5.652  0.00  0.00    +0.032 C 
ATOM     18  C   UNL     1      -0.711  -4.867  -5.548  0.00  0.00    +0.059 C 
ATOM     19  H   UNL     1      -0.625  -2.294  -4.990  0.00  0.00    +0.152 HD
ENDROOT
BRANCH  17  20
ATOM     20  C   UNL     1      -0.973  -7.055  -6.691  0.00  0.00    -0.043 A 
ATOM     21  C   UNL     1      -2.343  -7.188  -6.562  0.00  0.00    +0.004 A 
ATOM     22  C   UNL     1      -3.064  -7.878  -7.518  0.00  0.00    +0.004 A 
ATOM     23  C   UNL     1      -2.413  -8.444  -8.599  0.00  0.00    -0.042 A 
ATOM     24  C   UNL     1      -1.043  -8.316  -8.726  0.00  0.00    +0.004 A 
ATOM     25  C   UNL     1      -0.323  -7.621  -7.772  0.00  0.00    +0.004 A 
BRANCH  23  26
ATOM     26  C   UNL     1      -3.199  -9.201  -9.639  0.00  0.00    -0.013 C 
ATOM     27  C   UNL     1      -2.696 -10.645  -9.706  0.00  0.00    +0.015 C 
ATOM     28  C   UNL     1      -4.682  -9.194  -9.263  0.00  0.00    +0.015 C 
ATOM     29  C   UNL     1      -3.015  -8.534 -11.003  0.00  0.00    +0.015 C 
ENDBRANCH  23  26
ENDBRANCH  17  20
BRANCH  13  30
ATOM     30  C   UNL     1       2.766  -4.577  -2.379  0.00  0.00    +0.130 A 
ATOM     31  C   UNL     1       3.303  -5.613  -1.711  0.00  0.00    +0.047 A 
ATOM     32  C   UNL     1       4.661  -5.691  -2.098  0.00  0.00    +0.041 A 
ATOM     33  C   UNL     1       4.872  -4.698  -2.981  0.00  0.00    +0.195 A 
ATOM     34  O   UNL     1       3.719  -4.030  -3.151  0.00  0.00    -0.466 OA
ENDBRANCH  13  30
BRANCH   1  35
ATOM     35  C   UNL     1       0.718  -0.497  -1.257  0.00  0.00    +0.096 C 
BRANCH  35  36
ATOM     36  C   UNL     1       0.002  -0.004   0.002  0.00  0.00    +0.009 C 
BRANCH  36  37
ATOM     37  C   UNL     1      -0.019   1.526   0.010  0.00  0.00    +0.000 C 
BRANCH  37  39
ATOM     38  C   UNL     1      -0.756   3.549   1.278  0.00  0.00    +0.004 C 
ATOM     39  C   UNL     1      -0.735   2.019   1.269  0.00  0.00    -0.003 C 
ENDBRANCH  37  39
ENDBRANCH  36  37
ENDBRANCH  35  36
ENDBRANCH   1  35
TORSDOF 7
