REMARK  Name = ZINC38818379
REMARK  6 active torsions:
REMARK  status: ('A' for Active; 'I' for Inactive)
REMARK    1  A    between atoms: C_4  and  C_7
REMARK    2  A    between atoms: C_7  and  N_8
REMARK    3  A    between atoms: C_11  and  C_12
REMARK    4  A    between atoms: C_14  and  C_17
REMARK    5  A    between atoms: C_26  and  C_27
REMARK    6  A    between atoms: C_29  and  C_32
REMARK                            x       y       z     vdW  Elec       q    Type
REMARK                         _______ _______ _______ _____ _____    ______ ____
ROOT
ATOM      1  N   UNL     1       4.623  -1.303   1.446  0.00  0.00    +0.388 N 
ATOM      2  C   UNL     1       3.624  -2.178   2.072  0.00  0.00    -0.038 C 
ATOM      3  C   UNL     1       3.968  -2.375   3.527  0.00  0.00    -0.014 C 
ATOM      4  C   UNL     1       2.984  -2.585   4.440  0.00  0.00    +0.051 C 
ATOM      5  C   UNL     1       5.326  -2.340   3.937  0.00  0.00    +0.182 C 
ATOM      6  O   UNL     1       5.621  -2.495   5.111  0.00  0.00    -0.287 OA
ATOM      7  C   UNL     1       6.336  -2.122   2.964  0.00  0.00    -0.014 C 
ATOM      8  C   UNL     1       7.643  -2.086   3.333  0.00  0.00    +0.051 C 
ATOM      9  C   UNL     1       5.949  -1.930   1.520  0.00  0.00    -0.038 C 
ATOM     10  H   UNL     1       4.643  -0.418   1.930  0.00  0.00    -0.080 HD
ENDROOT
BRANCH   4  11
ATOM     11  C   UNL     1       1.658  -2.819   4.008  0.00  0.00    +0.129 A 
ATOM     12  O   UNL     1       1.262  -3.000   2.731  0.00  0.00    -0.455 OA
ATOM     13  C   UNL     1      -0.068  -3.195   2.699  0.00  0.00    +0.136 A 
ATOM     14  C   UNL     1      -0.550  -3.140   3.987  0.00  0.00    +0.050 A 
ATOM     15  C   UNL     1       0.544  -2.906   4.823  0.00  0.00    +0.050 A 
BRANCH  13  16
ATOM     16  C   UNL     1      -0.875  -3.429   1.486  0.00  0.00    +0.017 A 
ATOM     17  C   UNL     1      -2.269  -3.489   1.571  0.00  0.00    +0.011 A 
ATOM     18  C   UNL     1      -3.017  -3.708   0.433  0.00  0.00    +0.001 A 
ATOM     19  C   UNL     1      -2.391  -3.869  -0.790  0.00  0.00    +0.000 A 
ATOM     20  C   UNL     1      -1.011  -3.811  -0.882  0.00  0.00    +0.001 A 
ATOM     21  C   UNL     1      -0.250  -3.586   0.246  0.00  0.00    +0.011 A 
ENDBRANCH  13  16
ENDBRANCH   4  11
BRANCH   8  22
ATOM     22  C   UNL     1       8.654  -2.041   2.346  0.00  0.00    +0.129 A 
ATOM     23  O   UNL     1       8.456  -1.982   1.013  0.00  0.00    -0.455 OA
ATOM     24  C   UNL     1       9.646  -1.952   0.385  0.00  0.00    +0.136 A 
ATOM     25  C   UNL     1      10.643  -1.993   1.334  0.00  0.00    +0.050 A 
ATOM     26  C   UNL     1      10.017  -2.043   2.582  0.00  0.00    +0.050 A 
BRANCH  24  27
ATOM     27  C   UNL     1       9.848  -1.888  -1.075  0.00  0.00    +0.017 A 
ATOM     28  C   UNL     1      11.140  -1.869  -1.605  0.00  0.00    +0.011 A 
ATOM     29  C   UNL     1      11.322  -1.809  -2.970  0.00  0.00    +0.001 A 
ATOM     30  C   UNL     1      10.227  -1.767  -3.816  0.00  0.00    +0.000 A 
ATOM     31  C   UNL     1       8.944  -1.785  -3.299  0.00  0.00    +0.001 A 
ATOM     32  C   UNL     1       8.747  -1.852  -1.935  0.00  0.00    +0.011 A 
ENDBRANCH  24  27
ENDBRANCH   8  22
BRANCH   1  33
ATOM     33  C   UNL     1       4.265  -1.082   0.039  0.00  0.00    -0.042 C 
BRANCH  33  37
ATOM     34  C   UNL     1       0.427   0.780  -0.181  0.00  0.00    +0.000 A 
ATOM     35  C   UNL     1       1.557   1.548   0.032  0.00  0.00    +0.000 A 
ATOM     36  C   UNL     1       2.799   0.946   0.103  0.00  0.00    +0.002 A 
ATOM     37  C   UNL     1       2.911  -0.425  -0.038  0.00  0.00    -0.064 A 
ATOM     38  C   UNL     1       1.781  -1.193  -0.249  0.00  0.00    +0.002 A 
ATOM     39  C   UNL     1       0.539  -0.590  -0.322  0.00  0.00    +0.000 A 
ENDBRANCH  33  37
ENDBRANCH   1  33
TORSDOF 6
