REMARK  Name = ZINC63161066
REMARK  5 active torsions:
REMARK  status: ('A' for Active; 'I' for Inactive)
REMARK    1  A    between atoms: C_7  and  C_10
REMARK    2  A    between atoms: C_10  and  C_11
REMARK    3  A    between atoms: N_15  and  C_19
REMARK    4  A    between atoms: C_19  and  C_20
REMARK    5  A    between atoms: C_26  and  C_29
REMARK                            x       y       z     vdW  Elec       q    Type
REMARK                         _______ _______ _______ _____ _____    ______ ____
ROOT
ATOM      1  C   UNL     1       0.457  -3.653  -1.462  0.00  0.00    +0.165 C 
ATOM      2  C   UNL     1      -0.542  -4.793  -1.496  0.00  0.00    +0.244 C 
ATOM      3  O   UNL     1      -1.698  -4.765  -1.132  0.00  0.00    -0.273 OA
ATOM      4  N   UNL     1       0.122  -5.844  -2.015  0.00  0.00    -0.216 N 
ATOM      5  C   UNL     1       1.388  -5.530  -2.312  0.00  0.00    +0.310 C 
ATOM      6  O   UNL     1       2.184  -6.314  -2.792  0.00  0.00    -0.252 OA
ATOM      7  N   UNL     1       1.684  -4.247  -2.020  0.00  0.00    -0.287 N 
ATOM      8  H   UNL     1       2.535  -3.802  -2.151  0.00  0.00    +0.151 HD
ENDROOT
BRANCH   1   9
ATOM      9  C   UNL     1       0.691  -3.186  -0.024  0.00  0.00    +0.065 C 
BRANCH   9  16
ATOM     10  C   UNL     1      -0.016   1.348   0.009  0.00  0.00    +0.001 A 
ATOM     11  C   UNL     1       1.166   2.101   0.002  0.00  0.00    +0.002 A 
ATOM     12  C   UNL     1       2.391   1.535  -0.013  0.00  0.00    +0.026 A 
ATOM     13  C   UNL     1       2.529   0.120  -0.022  0.00  0.00    +0.043 A 
ATOM     14  N   UNL     1       3.587  -0.654  -0.037  0.00  0.00    -0.380 N 
ATOM     15  C   UNL     1       3.143  -2.053  -0.041  0.00  0.00    +0.144 C 
ATOM     16  C   UNL     1       1.631  -2.008  -0.025  0.00  0.00    -0.039 C 
ATOM     17  C   UNL     1       1.295  -0.698  -0.014  0.00  0.00    -0.001 A 
ATOM     18  C   UNL     1       0.002  -0.004   0.002  0.00  0.00    +0.010 A 
ATOM     19  H   UNL     1       4.509  -0.353  -0.045  0.00  0.00    +0.160 HD
ENDBRANCH   9  16
ENDBRANCH   1   9
BRANCH   4  20
ATOM     20  C   UNL     1      -0.470  -7.167  -2.229  0.00  0.00    +0.213 C 
BRANCH  20  21
ATOM     21  C   UNL     1      -1.075  -7.230  -3.608  0.00  0.00    +0.234 C 
ATOM     22  O   UNL     1      -1.018  -6.265  -4.340  0.00  0.00    -0.274 OA
ATOM     23  N   UNL     1      -1.680  -8.359  -4.027  0.00  0.00    -0.300 N 
ATOM     24  C   UNL     1      -1.762  -9.535  -3.150  0.00  0.00    +0.108 C 
ATOM     25  C   UNL     1      -1.194 -10.747  -3.895  0.00  0.00    +0.020 C 
ATOM     26  C   UNL     1      -1.923 -10.907  -5.231  0.00  0.00    +0.013 C 
ATOM     27  C   UNL     1      -1.696  -9.662  -6.091  0.00  0.00    +0.062 C 
ATOM     28  C   UNL     1      -2.275  -8.436  -5.369  0.00  0.00    +0.118 C 
BRANCH  27  29
ATOM     29  C   UNL     1      -2.386  -9.835  -7.419  0.00  0.00    +0.084 A 
ATOM     30  N   UNL     1      -3.655 -10.019  -7.640  0.00  0.00    -0.244 NA
ATOM     31  C   UNL     1      -4.155 -10.160  -8.885  0.00  0.00    +0.078 A 
ATOM     32  C   UNL     1      -5.485 -10.365  -9.309  0.00  0.00    +0.029 A 
ATOM     33  C   UNL     1      -5.779 -10.484 -10.633  0.00  0.00    +0.002 A 
ATOM     34  C   UNL     1      -4.792 -10.410 -11.606  0.00  0.00    +0.001 A 
ATOM     35  C   UNL     1      -3.477 -10.210 -11.230  0.00  0.00    +0.017 A 
ATOM     36  C   UNL     1      -3.170 -10.088  -9.896  0.00  0.00    +0.039 A 
ATOM     37  S   UNL     1      -1.692  -9.826  -8.952  0.00  0.00    -0.072 S 
ENDBRANCH  27  29
ENDBRANCH  20  21
ENDBRANCH   4  20
TORSDOF 5
