REMARK  Name = ZINC09724042
REMARK  7 active torsions:
REMARK  status: ('A' for Active; 'I' for Inactive)
REMARK    1  A    between atoms: C_1  and  C_2
REMARK    2  A    between atoms: C_2  and  C_26
REMARK    3  A    between atoms: N_5  and  C_9
REMARK    4  A    between atoms: C_9  and  C_10
REMARK    5  A    between atoms: C_10  and  C_12
REMARK    6  A    between atoms: N_21  and  S_22
REMARK    7  A    between atoms: S_22  and  C_25
REMARK                            x       y       z     vdW  Elec       q    Type
REMARK                         _______ _______ _______ _____ _____    ______ ____
ROOT
ATOM      1  C   UNL     1      -1.953  -0.865   9.892  0.00  0.00    +0.047 C 
ATOM      2  C   UNL     1      -0.909  -0.866   8.774  0.00  0.00    +0.136 C 
ATOM      3  C   UNL     1      -1.463  -0.204   7.527  0.00  0.00    +0.251 C 
ATOM      4  O   UNL     1      -2.422  -0.557   6.876  0.00  0.00    -0.272 OA
ATOM      5  N   UNL     1      -0.665   0.857   7.293  0.00  0.00    -0.216 N 
ATOM      6  C   UNL     1       0.300   0.961   8.213  0.00  0.00    +0.310 C 
ATOM      7  O   UNL     1       1.139   1.840   8.216  0.00  0.00    -0.252 OA
ATOM      8  N   UNL     1       0.239  -0.017   9.135  0.00  0.00    -0.281 N 
ATOM      9  H   UNL     1       0.835  -0.139   9.891  0.00  0.00    +0.152 HD
ENDROOT
BRANCH   2  10
ATOM     10  C   UNL     1      -0.456  -2.272   8.476  0.00  0.00    -0.008 A 
ATOM     11  C   UNL     1       0.857  -2.609   8.600  0.00  0.00    +0.007 A 
ATOM     12  C   UNL     1       1.294  -3.905   8.335  0.00  0.00    +0.001 A 
ATOM     13  C   UNL     1       0.422  -4.870   7.932  0.00  0.00    +0.008 A 
ATOM     14  C   UNL     1      -0.940  -4.558   7.787  0.00  0.00    -0.018 A 
ATOM     15  C   UNL     1      -1.385  -3.241   8.062  0.00  0.00    -0.012 A 
ATOM     16  C   UNL     1      -2.748  -2.930   7.916  0.00  0.00    +0.009 A 
ATOM     17  C   UNL     1      -3.620  -3.895   7.513  0.00  0.00    +0.001 A 
ATOM     18  C   UNL     1      -3.182  -5.190   7.242  0.00  0.00    +0.001 A 
ATOM     19  C   UNL     1      -1.870  -5.528   7.372  0.00  0.00    +0.008 A 
ENDBRANCH   2  10
BRANCH   5  20
ATOM     20  C   UNL     1      -0.839   1.785   6.174  0.00  0.00    +0.197 C 
BRANCH  20  21
ATOM     21  C   UNL     1      -0.048   1.296   4.988  0.00  0.00    +0.181 C 
ATOM     22  O   UNL     1       0.597   0.272   5.070  0.00  0.00    -0.290 OA
BRANCH  21  23
ATOM     23  C   UNL     1      -0.059   2.058   3.734  0.00  0.00    +0.019 A 
ATOM     24  C   UNL     1      -0.803   3.241   3.637  0.00  0.00    +0.013 A 
ATOM     25  C   UNL     1      -0.808   3.943   2.466  0.00  0.00    +0.026 A 
ATOM     26  C   UNL     1      -0.077   3.487   1.369  0.00  0.00    +0.054 A 
ATOM     27  C   UNL     1       0.662   2.316   1.457  0.00  0.00    -0.024 A 
ATOM     28  C   UNL     1       0.675   1.605   2.631  0.00  0.00    +0.017 A 
ATOM     29  C   UNL     1       1.470   1.801   0.295  0.00  0.00    +0.038 C 
ATOM     30  C   UNL     1       0.959   2.403  -1.014  0.00  0.00    +0.025 C 
ATOM     31  C   UNL     1       0.879   3.927  -0.860  0.00  0.00    +0.131 C 
ATOM     32  N   UNL     1      -0.107   4.223   0.188  0.00  0.00    -0.207 N 
BRANCH  32  33
ATOM     33  S   UNL     1      -1.236   5.413  -0.032  0.00  0.00    +0.043 S 
ATOM     34  O   UNL     1      -1.259   5.636  -1.435  0.00  0.00    -0.155 OA
ATOM     35  O   UNL     1      -2.393   4.946   0.646  0.00  0.00    -0.155 OA
ATOM     36  C   UNL     1      -0.556   6.864   0.819  0.00  0.00    +0.218 C 
ENDBRANCH  32  33
ENDBRANCH  21  23
ENDBRANCH  20  21
ENDBRANCH   5  20
TORSDOF 5
