REMARK  Name = ZINC63573491
REMARK  8 active torsions:
REMARK  status: ('A' for Active; 'I' for Inactive)
REMARK    1  A    between atoms: C_1  and  C_2
REMARK    2  A    between atoms: C_5  and  C_8
REMARK    3  A    between atoms: C_15  and  O_20
REMARK    4  A    between atoms: O_20  and  C_21
REMARK    5  A    between atoms: N_27  and  C_28
REMARK    6  A    between atoms: C_30  and  C_36
REMARK    7  A    between atoms: C_33  and  O_34
REMARK    8  A    between atoms: O_34  and  C_35
REMARK                            x       y       z     vdW  Elec       q    Type
REMARK                         _______ _______ _______ _____ _____    ______ ____
ROOT
ATOM      1  C   UNL     1       0.445  -4.770   0.170  0.00  0.00    +0.134 C 
ATOM      2  C   UNL     1       1.815  -5.191   0.714  0.00  0.00    +0.131 C 
ATOM      3  C   UNL     1       1.966  -4.522   2.075  0.00  0.00    -0.035 C 
ATOM      4  C   UNL     1       3.088  -3.814   2.022  0.00  0.00    +0.003 A 
ATOM      5  C   UNL     1       3.794  -3.015   3.035  0.00  0.00    +0.055 A 
ATOM      6  C   UNL     1       4.939  -2.396   2.636  0.00  0.00    +0.121 A 
ATOM      7  C   UNL     1       5.464  -2.481   1.338  0.00  0.00    +0.047 A 
ATOM      8  C   UNL     1       4.898  -3.192   0.330  0.00  0.00    +0.029 A 
ATOM      9  C   UNL     1       3.655  -3.911   0.641  0.00  0.00    +0.043 A 
ATOM     10  N   UNL     1       2.909  -4.690  -0.119  0.00  0.00    -0.375 N 
ATOM     11  C   UNL     1       0.927  -4.652   3.162  0.00  0.00    +0.052 C 
ATOM     12  C   UNL     1      -0.429  -4.303   2.522  0.00  0.00    +0.114 C 
ATOM     13  N   UNL     1      -0.550  -4.990   1.231  0.00  0.00    -0.276 N 
ATOM     14  C   UNL     1      -1.582  -5.830   1.014  0.00  0.00    +0.307 C 
ATOM     15  O   UNL     1      -1.645  -6.460  -0.024  0.00  0.00    -0.252 OA
ATOM     16  N   UNL     1      -2.543  -5.972   1.949  0.00  0.00    -0.266 N 
ATOM     17  H   UNL     1      -2.508  -5.448   2.764  0.00  0.00    +0.156 HD
ATOM     18  H   UNL     1       3.047  -4.894  -1.058  0.00  0.00    +0.160 HD
ENDROOT
BRANCH   1  23
ATOM     19  C   UNL     1       0.555   0.822  -1.283  0.00  0.00    +0.044 C 
ATOM     20  C   UNL     1       0.526  -0.636  -0.904  0.00  0.00    -0.050 A 
ATOM     21  C   UNL     1       0.869  -1.024   0.378  0.00  0.00    +0.004 A 
ATOM     22  C   UNL     1       0.843  -2.362   0.725  0.00  0.00    +0.006 A 
ATOM     23  C   UNL     1       0.473  -3.312  -0.209  0.00  0.00    -0.025 A 
ATOM     24  C   UNL     1       0.130  -2.924  -1.490  0.00  0.00    +0.006 A 
ATOM     25  C   UNL     1       0.152  -1.585  -1.837  0.00  0.00    +0.004 A 
ENDBRANCH   1  23
BRANCH  16  26
ATOM     26  C   UNL     1      -3.593  -6.877   1.742  0.00  0.00    +0.077 A 
ATOM     27  C   UNL     1      -3.908  -7.295   0.458  0.00  0.00    +0.030 A 
ATOM     28  C   UNL     1      -4.944  -8.188   0.257  0.00  0.00    -0.048 A 
ATOM     29  C   UNL     1      -5.668  -8.666   1.333  0.00  0.00    +0.007 A 
ATOM     30  C   UNL     1      -5.359  -8.254   2.616  0.00  0.00    +0.048 A 
ATOM     31  C   UNL     1      -4.319  -7.364   2.827  0.00  0.00    +0.141 A 
ATOM     32  C   UNL     1      -5.285  -8.641  -1.140  0.00  0.00    +0.044 C 
BRANCH  31  33
ATOM     33  O   UNL     1      -4.010  -6.962   4.089  0.00  0.00    -0.493 OA
ATOM     34  C   UNL     1      -4.797  -7.503   5.152  0.00  0.00    +0.277 C 
ENDBRANCH  31  33
ENDBRANCH  16  26
BRANCH   6  35
ATOM     35  O   UNL     1       5.613  -1.649   3.550  0.00  0.00    -0.495 OA
ATOM     36  C   UNL     1       6.811  -1.009   3.107  0.00  0.00    +0.277 C 
ENDBRANCH   6  35
TORSDOF 4
