REMARK  Name = ZINC33052694
REMARK  12 active torsions:
REMARK  status: ('A' for Active; 'I' for Inactive)
REMARK    1  A    between atoms: C_1  and  C_2
REMARK    2  A    between atoms: C_2  and  O_3
REMARK    3  A    between atoms: O_3  and  C_4
REMARK    4  A    between atoms: C_4  and  C_5
REMARK    5  A    between atoms: C_5  and  C_6
REMARK    6  A    between atoms: C_6  and  N_7
REMARK    7  A    between atoms: C_13  and  C_39
REMARK    8  A    between atoms: N_15  and  C_33
REMARK    9  A    between atoms: C_22  and  C_24
REMARK   10  A    between atoms: C_28  and  O_30
REMARK   11  A    between atoms: O_30  and  C_31
REMARK   12  A    between atoms: C_31  and  C_32
REMARK                            x       y       z     vdW  Elec       q    Type
REMARK                         _______ _______ _______ _____ _____    ______ ____
ROOT
ATOM      1  N   UNL     1       1.110   3.950  -1.502  0.00  0.00    -0.299 N 
ATOM      2  C   UNL     1       1.936   3.250  -0.700  0.00  0.00    +0.303 C 
ATOM      3  O   UNL     1       3.089   3.607  -0.554  0.00  0.00    -0.253 OA
ATOM      4  N   UNL     1       1.484   2.153  -0.061  0.00  0.00    -0.269 N 
ATOM      5  C   UNL     1       0.088   1.679  -0.208  0.00  0.00    +0.151 C 
ATOM      6  C   UNL     1       0.019   0.182  -0.281  0.00  0.00    +0.035 A 
ATOM      7  C   UNL     1      -0.268  -0.632  -1.373  0.00  0.00    +0.067 A 
ATOM      8  N   UNL     1      -0.253  -1.882  -0.972  0.00  0.00    -0.169 NA
ATOM      9  N   UNL     1       0.046  -1.905   0.401  0.00  0.00    -0.215 N 
ATOM     10  C   UNL     1       0.240  -0.632   0.793  0.00  0.00    +0.146 A 
ATOM     11  N   UNL     1       0.657  -0.099   2.017  0.00  0.00    -0.303 N 
ATOM     12  C   UNL     1       0.250  -0.366   3.279  0.00  0.00    +0.093 A 
ATOM     13  C   UNL     1       0.904   0.474   4.113  0.00  0.00    +0.020 A 
ATOM     14  C   UNL     1       1.763   1.272   3.326  0.00  0.00    +0.025 A 
ATOM     15  C   UNL     1       1.614   0.884   2.049  0.00  0.00    +0.050 A 
ATOM     16  C   UNL     1       2.355   1.352   0.831  0.00  0.00    +0.155 C 
ATOM     17  C   UNL     1      -0.548  -0.159  -2.776  0.00  0.00    +0.068 C 
ATOM     18  H   UNL     1       0.067   3.627  -1.635  0.00  0.00    +0.150 HD
ENDROOT
BRANCH  16  19
ATOM     19  C   UNL     1       2.863   0.152   0.073  0.00  0.00    -0.018 A 
ATOM     20  C   UNL     1       3.321  -0.956   0.761  0.00  0.00    +0.006 A 
ATOM     21  C   UNL     1       3.787  -2.058   0.068  0.00  0.00    +0.004 A 
ATOM     22  C   UNL     1       3.795  -2.055  -1.313  0.00  0.00    +0.045 A 
ATOM     23  C   UNL     1       3.336  -0.944  -2.006  0.00  0.00    +0.121 A 
ATOM     24  C   UNL     1       2.865   0.159  -1.308  0.00  0.00    +0.051 A 
BRANCH  23  25
ATOM     25  O   UNL     1       3.343  -0.938  -3.365  0.00  0.00    -0.492 OA
BRANCH  25  26
ATOM     26  C   UNL     1       3.836  -2.111  -4.016  0.00  0.00    +0.225 C 
ATOM     27  C   UNL     1       3.767  -1.919  -5.532  0.00  0.00    +0.048 C 
ENDBRANCH  25  26
ENDBRANCH  23  25
ENDBRANCH  16  19
BRANCH   9  28
ATOM     28  C   UNL     1       0.127  -3.045   1.213  0.00  0.00    +0.068 A 
ATOM     29  C   UNL     1       1.060  -3.102   2.240  0.00  0.00    +0.028 A 
ATOM     30  C   UNL     1       1.135  -4.225   3.041  0.00  0.00    +0.002 A 
ATOM     31  C   UNL     1       0.288  -5.295   2.815  0.00  0.00    +0.000 A 
ATOM     32  C   UNL     1      -0.638  -5.243   1.790  0.00  0.00    +0.002 A 
ATOM     33  C   UNL     1      -0.721  -4.121   0.988  0.00  0.00    +0.028 A 
ENDBRANCH   9  28
BRANCH   1  34
ATOM     34  C   UNL     1       1.601   5.143  -2.197  0.00  0.00    +0.108 C 
BRANCH  34  35
ATOM     35  C   UNL     1       0.472   5.746  -3.035  0.00  0.00    +0.047 C 
BRANCH  35  36
ATOM     36  C   UNL     1       0.985   6.991  -3.761  0.00  0.00    +0.161 C 
BRANCH  36  37
ATOM     37  O   UNL     1      -0.070   7.555  -4.544  0.00  0.00    -0.380 OA
BRANCH  37  39
ATOM     38  C   UNL     1      -0.894   9.243  -6.064  0.00  0.00    +0.034 C 
ATOM     39  C   UNL     1       0.306   8.729  -5.266  0.00  0.00    +0.156 C 
ENDBRANCH  37  39
ENDBRANCH  36  37
ENDBRANCH  35  36
ENDBRANCH  34  35
ENDBRANCH   1  34
TORSDOF 9
