REMARK  Name = ZINC63853761
REMARK  8 active torsions:
REMARK  status: ('A' for Active; 'I' for Inactive)
REMARK    1  A    between atoms: C_1  and  C_2
REMARK    2  A    between atoms: C_2  and  C_4
REMARK    3  A    between atoms: C_2  and  N_13
REMARK    4  A    between atoms: N_13  and  C_14
REMARK    5  A    between atoms: C_15  and  C_17
REMARK    6  A    between atoms: C_17  and  N_18
REMARK    7  A    between atoms: C_21  and  C_26
REMARK    8  A    between atoms: C_26  and  C_27
REMARK                            x       y       z     vdW  Elec       q    Type
REMARK                         _______ _______ _______ _____ _____    ______ ____
ROOT
ATOM      1  N   UNL     1       3.666  -2.523  -1.951  0.00  0.00    -0.216 N 
ATOM      2  C   UNL     1       4.899  -2.017  -1.749  0.00  0.00    +0.244 C 
ATOM      3  O   UNL     1       5.239  -0.858  -1.846  0.00  0.00    -0.273 OA
ATOM      4  C   UNL     1       5.771  -3.199  -1.373  0.00  0.00    +0.165 C 
ATOM      5  N   UNL     1       4.841  -4.341  -1.411  0.00  0.00    -0.287 N 
ATOM      6  C   UNL     1       3.637  -3.846  -1.753  0.00  0.00    +0.310 C 
ATOM      7  O   UNL     1       2.637  -4.525  -1.871  0.00  0.00    -0.252 OA
ATOM      8  H   UNL     1       5.054  -5.268  -1.224  0.00  0.00    +0.151 HD
ENDROOT
BRANCH   1   9
ATOM      9  C   UNL     1       2.501  -1.723  -2.334  0.00  0.00    +0.213 C 
BRANCH   9  12
ATOM     10  N   UNL     1       0.688  -0.476  -1.203  0.00  0.00    -0.294 N 
ATOM     11  C   UNL     1       0.170  -0.122  -2.527  0.00  0.00    +0.132 C 
ATOM     12  C   UNL     1       1.795  -1.237  -1.094  0.00  0.00    +0.234 C 
ATOM     13  O   UNL     1       2.224  -1.530   0.002  0.00  0.00    -0.274 OA
BRANCH  10  15
ATOM     14  C   UNL     1      -0.019   1.526   0.010  0.00  0.00    +0.035 C 
ATOM     15  C   UNL     1       0.002  -0.004   0.002  0.00  0.00    +0.128 C 
BRANCH  15  16
ATOM     16  C   UNL     1      -1.412  -0.526   0.013  0.00  0.00    +0.100 A 
ATOM     17  N   UNL     1      -2.260  -0.552  -0.974  0.00  0.00    -0.242 NA
ATOM     18  C   UNL     1      -3.506  -1.049  -0.837  0.00  0.00    +0.079 A 
ATOM     19  C   UNL     1      -4.546  -1.157  -1.784  0.00  0.00    +0.029 A 
ATOM     20  C   UNL     1      -5.746  -1.698  -1.435  0.00  0.00    +0.002 A 
ATOM     21  C   UNL     1      -5.990  -2.159  -0.149  0.00  0.00    +0.001 A 
ATOM     22  C   UNL     1      -4.995  -2.070   0.806  0.00  0.00    +0.017 A 
ATOM     23  C   UNL     1      -3.780  -1.526   0.465  0.00  0.00    +0.039 A 
ATOM     24  S   UNL     1      -2.248  -1.213   1.302  0.00  0.00    -0.070 S 
ENDBRANCH  15  16
ENDBRANCH  10  15
ENDBRANCH   9  12
ENDBRANCH   1   9
BRANCH   4  25
ATOM     25  C   UNL     1       6.348  -3.017   0.032  0.00  0.00    +0.065 C 
BRANCH  25  26
ATOM     26  C   UNL     1       7.305  -4.142   0.331  0.00  0.00    -0.039 C 
ATOM     27  C   UNL     1       8.649  -4.130   0.174  0.00  0.00    -0.001 A 
ATOM     28  C   UNL     1       9.585  -3.105  -0.303  0.00  0.00    +0.010 A 
ATOM     29  C   UNL     1      10.906  -3.393  -0.349  0.00  0.00    +0.001 A 
ATOM     30  C   UNL     1      11.401  -4.643   0.048  0.00  0.00    +0.002 A 
ATOM     31  C   UNL     1      10.604  -5.635   0.498  0.00  0.00    +0.026 A 
ATOM     32  C   UNL     1       9.198  -5.441   0.588  0.00  0.00    +0.043 A 
ATOM     33  N   UNL     1       8.231  -6.233   0.984  0.00  0.00    -0.380 N 
ATOM     34  C   UNL     1       6.959  -5.511   0.873  0.00  0.00    +0.144 C 
ATOM     35  H   UNL     1       8.339  -7.143   1.302  0.00  0.00    +0.160 HD
ENDBRANCH  25  26
ENDBRANCH   4  25
TORSDOF 6
