REMARK  Name = ZINC36059171
REMARK  6 active torsions:
REMARK  status: ('A' for Active; 'I' for Inactive)
REMARK    1  A    between atoms: C_2  and  C_3
REMARK    2  A    between atoms: C_3  and  N_4
REMARK    3  A    between atoms: N_4  and  C_5
REMARK    4  A    between atoms: C_5  and  C_6
REMARK    5  A    between atoms: C_17  and  C_20
REMARK    6  A    between atoms: C_23  and  C_26
REMARK                            x       y       z     vdW  Elec       q    Type
REMARK                         _______ _______ _______ _____ _____    ______ ____
ROOT
ATOM      1  C   UNL     1       2.616  -3.433   2.444  0.00  0.00    +0.199 C 
ATOM      2  O   UNL     1       1.762  -3.370   3.304  0.00  0.00    -0.278 OA
ATOM      3  N   UNL     1       3.705  -4.205   2.631  0.00  0.00    -0.300 N 
ATOM      4  C   UNL     1       4.750  -4.286   1.601  0.00  0.00    +0.126 C 
ATOM      5  C   UNL     1       6.095  -3.913   2.237  0.00  0.00    +0.125 C 
ATOM      6  N   UNL     1       6.260  -4.688   3.475  0.00  0.00    -0.311 N 
ATOM      7  C   UNL     1       5.215  -4.607   4.505  0.00  0.00    +0.125 C 
ATOM      8  C   UNL     1       3.872  -4.974   3.872  0.00  0.00    +0.126 C 
ATOM      9  C   UNL     1       7.383  -5.483   3.668  0.00  0.00    +0.144 A 
ATOM     10  C   UNL     1       8.466  -5.387   2.793  0.00  0.00    +0.047 A 
ATOM     11  C   UNL     1       9.562  -6.198   3.025  0.00  0.00    +0.033 A 
ATOM     12  C   UNL     1       9.517  -7.064   4.123  0.00  0.00    +0.093 A 
ATOM     13  N   UNL     1       8.444  -7.087   4.901  0.00  0.00    -0.147 NA
ATOM     14  N   UNL     1       7.429  -6.330   4.687  0.00  0.00    -0.134 NA
ENDROOT
BRANCH  12  15
ATOM     15  C   UNL     1      10.666  -7.954   4.415  0.00  0.00    +0.002 A 
ATOM     16  C   UNL     1      11.796  -7.925   3.598  0.00  0.00    +0.010 A 
ATOM     17  C   UNL     1      12.864  -8.752   3.870  0.00  0.00    +0.009 A 
ATOM     18  C   UNL     1      12.814  -9.619   4.961  0.00  0.00    -0.018 A 
ATOM     19  C   UNL     1      11.684  -9.649   5.778  0.00  0.00    +0.009 A 
ATOM     20  C   UNL     1      10.619  -8.817   5.510  0.00  0.00    +0.010 A 
BRANCH  18  21
ATOM     21  C   UNL     1      13.963 -10.510   5.254  0.00  0.00    -0.018 A 
ATOM     22  C   UNL     1      15.097 -10.479   4.442  0.00  0.00    +0.008 A 
ATOM     23  C   UNL     1      16.163 -11.310   4.719  0.00  0.00    +0.001 A 
ATOM     24  C   UNL     1      16.109 -12.173   5.799  0.00  0.00    +0.000 A 
ATOM     25  C   UNL     1      14.987 -12.208   6.607  0.00  0.00    +0.001 A 
ATOM     26  C   UNL     1      13.917 -11.377   6.344  0.00  0.00    +0.008 A 
ENDBRANCH  18  21
ENDBRANCH  12  15
BRANCH   1  27
ATOM     27  C   UNL     1       2.458  -2.649   1.167  0.00  0.00    +0.015 C 
BRANCH  27  28
ATOM     28  N   UNL     1       1.198  -1.895   1.207  0.00  0.00    +0.387 N 
ATOM     29  H   UNL     1       1.210  -1.261   1.992  0.00  0.00    -0.085 HD
ATOM     30  H   UNL     1       0.425  -2.537   1.306  0.00  0.00    -0.085 HD
BRANCH  28  31
ATOM     31  C   UNL     1       1.044  -1.131  -0.038  0.00  0.00    -0.055 C 
BRANCH  31  33
ATOM     32  C   UNL     1      -0.242   0.939  -0.182  0.00  0.00    +0.002 C 
ATOM     33  C   UNL     1      -0.249  -0.358   0.004  0.00  0.00    -0.054 C 
ENDBRANCH  31  33
ENDBRANCH  28  31
ENDBRANCH  27  28
ENDBRANCH   1  27
TORSDOF 6
