REMARK  Name = ZINC28872701
REMARK  12 active torsions:
REMARK  status: ('A' for Active; 'I' for Inactive)
REMARK    1  A    between atoms: C_1  and  C_2
REMARK    2  A    between atoms: C_2  and  O_3
REMARK    3  A    between atoms: O_3  and  C_4
REMARK    4  A    between atoms: C_11  and  C_18
REMARK    5  A    between atoms: C_13  and  O_14
REMARK    6  A    between atoms: C_18  and  S_19
REMARK    7  A    between atoms: S_19  and  C_20
REMARK    8  A    between atoms: C_23  and  C_25
REMARK    9  A    between atoms: C_25  and  O_26
REMARK   10  A    between atoms: O_26  and  C_27
REMARK   11  A    between atoms: C_29  and  C_34
REMARK   12  A    between atoms: C_32  and  C_33
REMARK                            x       y       z     vdW  Elec       q    Type
REMARK                         _______ _______ _______ _____ _____    ______ ____
ROOT
ATOM      1  C   UNL     1       0.324   9.918   4.872  0.00  0.00    +0.405 C 
ATOM      2  O   UNL     1      -0.154  10.448   3.888  0.00  0.00    -0.226 OA
ATOM      3  N   UNL     1       0.664   8.615   4.838  0.00  0.00    -0.251 N 
ATOM      4  C   UNL     1       0.571   7.901   3.642  0.00  0.00    +0.040 A 
ATOM      5  C   UNL     1       0.226   6.550   3.668  0.00  0.00    +0.024 A 
ATOM      6  C   UNL     1       0.132   5.838   2.508  0.00  0.00    +0.013 A 
ATOM      7  C   UNL     1       0.378   6.470   1.283  0.00  0.00    +0.022 A 
ATOM      8  C   UNL     1       0.291   5.729   0.022  0.00  0.00    -0.020 A 
ATOM      9  C   UNL     1       0.548   6.396  -1.133  0.00  0.00    +0.092 A 
ATOM     10  C   UNL     1       0.892   7.762  -1.093  0.00  0.00    +0.285 A 
ATOM     11  O   UNL     1       0.975   8.434   0.066  0.00  0.00    -0.425 OA
ATOM     12  C   UNL     1       0.733   7.831   1.250  0.00  0.00    +0.141 A 
ATOM     13  C   UNL     1       0.824   8.540   2.438  0.00  0.00    +0.070 A 
ATOM     14  H   UNL     1       1.014   8.113   5.752  0.00  0.00    +0.158 HD
ENDROOT
BRANCH  10  15
ATOM     15  O   UNL     1       1.119   8.348  -2.136  0.00  0.00    -0.480 OA
ATOM     16  H   UNL     1       1.389   9.415  -2.120  0.00  0.00    +0.295 HD
ENDBRANCH  10  15
BRANCH   1  17
ATOM     17  O   UNL     1       0.514  10.634   5.996  0.00  0.00    -0.450 OA
BRANCH  17  19
ATOM     18  C   UNL     1       0.413  12.677   7.319  0.00  0.00    +0.048 C 
ATOM     19  C   UNL     1       0.125  12.033   5.961  0.00  0.00    +0.230 C 
ENDBRANCH  17  19
ENDBRANCH   1  17
BRANCH   8  20
ATOM     20  C   UNL     1      -0.079   4.268   0.007  0.00  0.00    +0.115 C 
BRANCH  20  21
ATOM     21  S   UNL     1       1.422   3.264   0.126  0.00  0.00    -0.061 S 
BRANCH  21  22
ATOM     22  C   UNL     1       0.715   1.651   0.087  0.00  0.00    +0.278 A 
ATOM     23  N   UNL     1      -0.561   1.363  -0.005  0.00  0.00    -0.101 NA
ATOM     24  N   UNL     1      -0.710   0.085  -0.006  0.00  0.00    -0.108 NA
ATOM     25  C   UNL     1       0.454  -0.489   0.084  0.00  0.00    +0.255 A 
ATOM     26  O   UNL     1       1.384   0.484   0.145  0.00  0.00    -0.412 OA
BRANCH  25  27
ATOM     27  C   UNL     1       0.714  -1.973   0.116  0.00  0.00    +0.326 C 
BRANCH  27  28
ATOM     28  O   UNL     1       0.896  -2.453  -1.218  0.00  0.00    -0.482 OA
BRANCH  28  29
ATOM     29  C   UNL     1       1.142  -3.781  -1.368  0.00  0.00    +0.124 A 
ATOM     30  C   UNL     1       1.207  -4.606  -0.254  0.00  0.00    +0.049 A 
ATOM     31  C   UNL     1       1.458  -5.955  -0.409  0.00  0.00    -0.047 A 
ATOM     32  C   UNL     1       1.642  -6.485  -1.673  0.00  0.00    +0.004 A 
ATOM     33  C   UNL     1       1.578  -5.665  -2.784  0.00  0.00    +0.007 A 
ATOM     34  C   UNL     1       1.322  -4.316  -2.635  0.00  0.00    -0.009 A 
ATOM     35  C   UNL     1       1.246  -3.424  -3.848  0.00  0.00    +0.047 C 
ATOM     36  C   UNL     1       1.529  -6.851   0.801  0.00  0.00    +0.044 C 
ENDBRANCH  28  29
ENDBRANCH  27  28
ENDBRANCH  25  27
ENDBRANCH  21  22
ENDBRANCH  20  21
ENDBRANCH   8  20
TORSDOF 9
