REMARK  Name = ZINC39677020
REMARK  9 active torsions:
REMARK  status: ('A' for Active; 'I' for Inactive)
REMARK    1  A    between atoms: C_1  and  C_2
REMARK    2  A    between atoms: C_5  and  C_39
REMARK    3  A    between atoms: C_6  and  C_8
REMARK    4  A    between atoms: C_8  and  C_9
REMARK    5  A    between atoms: C_9  and  N_10
REMARK    6  A    between atoms: C_11  and  C_13
REMARK    7  A    between atoms: C_24  and  C_26
REMARK    8  A    between atoms: C_31  and  O_32
REMARK    9  A    between atoms: O_32  and  C_33
REMARK                            x       y       z     vdW  Elec       q    Type
REMARK                         _______ _______ _______ _____ _____    ______ ____
ROOT
ATOM      1  C   UNL     1       2.516  -5.626   6.043  0.00  0.00    +0.100 C 
ATOM      2  C   UNL     1       2.154  -4.546   7.087  0.00  0.00    +0.121 C 
ATOM      3  N   UNL     1       3.067  -4.805   8.225  0.00  0.00    -0.296 N 
ATOM      4  C   UNL     1       4.357  -5.163   7.589  0.00  0.00    +0.115 C 
ATOM      5  C   UNL     1       3.962  -6.028   6.375  0.00  0.00    -0.004 C 
ATOM      6  C   UNL     1       4.030  -7.508   6.739  0.00  0.00    -0.010 C 
ATOM      7  C   UNL     1       5.486  -7.897   7.010  0.00  0.00    -0.082 C 
ATOM      8  N   UNL     1       6.296  -7.628   5.816  0.00  0.00    +0.379 N 
ATOM      9  C   UNL     1       6.302  -6.189   5.528  0.00  0.00    -0.082 C 
ATOM     10  C   UNL     1       4.880  -5.728   5.194  0.00  0.00    -0.010 C 
ATOM     11  C   UNL     1       2.787  -4.731   9.541  0.00  0.00    +0.252 C 
ATOM     12  O   UNL     1       3.672  -4.882  10.361  0.00  0.00    -0.270 OA
ATOM     13  H   UNL     1       7.242  -7.941   5.976  0.00  0.00    -0.086 HD
ATOM     14  H   UNL     1       5.909  -8.126   5.029  0.00  0.00    -0.086 HD
ENDROOT
BRANCH  11  15
ATOM     15  C   UNL     1       1.406  -4.468   9.988  0.00  0.00    +0.099 A 
ATOM     16  C   UNL     1       0.567  -3.624   9.250  0.00  0.00    +0.020 A 
ATOM     17  C   UNL     1      -0.720  -3.410   9.712  0.00  0.00    +0.021 A 
ATOM     18  C   UNL     1      -1.136  -4.028  10.877  0.00  0.00    +0.114 A 
ATOM     19  N   UNL     1      -0.329  -4.819  11.557  0.00  0.00    -0.220 NA
ATOM     20  C   UNL     1       0.908  -5.062  11.158  0.00  0.00    +0.233 A 
BRANCH  20  21
ATOM     21  O   UNL     1       1.700  -5.885  11.884  0.00  0.00    -0.437 OA
BRANCH  21  22
ATOM     22  C   UNL     1       1.215  -6.364  13.060  0.00  0.00    +0.130 A 
ATOM     23  C   UNL     1       1.614  -5.795  14.260  0.00  0.00    +0.046 A 
ATOM     24  C   UNL     1       1.119  -6.283  15.454  0.00  0.00    +0.004 A 
ATOM     25  C   UNL     1       0.227  -7.339  15.452  0.00  0.00    +0.000 A 
ATOM     26  C   UNL     1      -0.172  -7.909  14.258  0.00  0.00    +0.004 A 
ATOM     27  C   UNL     1       0.315  -7.421  13.061  0.00  0.00    +0.046 A 
ENDBRANCH  21  22
ENDBRANCH  20  21
ENDBRANCH  11  15
BRANCH   1  29
ATOM     28  N   UNL     1       2.183  -5.868   3.604  0.00  0.00    -0.315 N 
ATOM     29  C   UNL     1       2.437  -5.057   4.650  0.00  0.00    +0.218 C 
ATOM     30  O   UNL     1       2.601  -3.869   4.470  0.00  0.00    -0.275 OA
ATOM     31  H   UNL     1       2.051  -6.819   3.748  0.00  0.00    +0.149 HD
BRANCH  28  32
ATOM     32  C   UNL     1       2.106  -5.315   2.249  0.00  0.00    +0.109 C 
BRANCH  32  33
ATOM     33  C   UNL     1       1.809  -6.440   1.255  0.00  0.00    +0.054 C 
BRANCH  33  39
ATOM     34  C   UNL     1      -0.906  -4.621  -2.536  0.00  0.00    +0.044 C 
ATOM     35  C   UNL     1       0.431  -5.001  -1.952  0.00  0.00    -0.050 A 
ATOM     36  C   UNL     1       1.584  -4.827  -2.694  0.00  0.00    +0.003 A 
ATOM     37  C   UNL     1       2.810  -5.176  -2.159  0.00  0.00    +0.004 A 
ATOM     38  C   UNL     1       2.882  -5.697  -0.881  0.00  0.00    -0.047 A 
ATOM     39  C   UNL     1       1.730  -5.870  -0.138  0.00  0.00    -0.043 A 
ATOM     40  C   UNL     1       0.504  -5.518  -0.672  0.00  0.00    +0.007 A 
ATOM     41  C   UNL     1       4.219  -6.078  -0.297  0.00  0.00    +0.044 C 
ENDBRANCH  33  39
ENDBRANCH  32  33
ENDBRANCH  28  32
ENDBRANCH   1  29
TORSDOF 7
