REMARK  Name = ZINC16768798
REMARK  8 active torsions:
REMARK  status: ('A' for Active; 'I' for Inactive)
REMARK    1  A    between atoms: C_1  and  C_2
REMARK    2  A    between atoms: C_5  and  N_8
REMARK    3  A    between atoms: C_9  and  C_26
REMARK    4  A    between atoms: N_11  and  C_14
REMARK    5  A    between atoms: C_14  and  C_15
REMARK    6  A    between atoms: N_17  and  C_18
REMARK    7  A    between atoms: C_21  and  C_25
REMARK    8  A    between atoms: C_23  and  C_24
REMARK                            x       y       z     vdW  Elec       q    Type
REMARK                         _______ _______ _______ _____ _____    ______ ____
ROOT
ATOM      1  N   UNL     1      -1.247   2.075   0.036  0.00  0.00    -0.271 N 
ATOM      2  C   UNL     1      -1.714   2.888   1.052  0.00  0.00    +0.167 A 
ATOM      3  N   UNL     1      -2.879   3.357   0.705  0.00  0.00    -0.150 NA
ATOM      4  N   UNL     1      -3.192   2.848  -0.563  0.00  0.00    -0.231 N 
ATOM      5  C   UNL     1      -2.165   2.066  -0.952  0.00  0.00    +0.183 A 
ATOM      6  S   UNL     1      -2.049   1.212  -2.431  0.00  0.00    -0.011 S 
ENDROOT
BRANCH   1  11
ATOM      7  C   UNL     1       3.691  -0.721  -0.004  0.00  0.00    +0.044 C 
ATOM      8  C   UNL     1       2.379   0.022   0.008  0.00  0.00    -0.050 A 
ATOM      9  C   UNL     1       1.188  -0.681   0.021  0.00  0.00    +0.005 A 
ATOM     10  C   UNL     1      -0.015  -0.003   0.032  0.00  0.00    +0.026 A 
ATOM     11  C   UNL     1      -0.028   1.385   0.030  0.00  0.00    +0.050 A 
ATOM     12  C   UNL     1       1.169   2.088   0.017  0.00  0.00    +0.026 A 
ATOM     13  C   UNL     1       2.369   1.405   0.005  0.00  0.00    +0.005 A 
ENDBRANCH   1  11
BRANCH   2  14
ATOM     14  C   UNL     1      -1.009   3.176   2.321  0.00  0.00    +0.021 A 
ATOM     15  C   UNL     1      -1.420   4.240   3.125  0.00  0.00    +0.011 A 
ATOM     16  C   UNL     1      -0.759   4.503   4.307  0.00  0.00    +0.002 A 
ATOM     17  C   UNL     1       0.309   3.716   4.696  0.00  0.00    +0.015 A 
ATOM     18  C   UNL     1       0.722   2.659   3.904  0.00  0.00    +0.019 A 
ATOM     19  C   UNL     1       0.066   2.382   2.720  0.00  0.00    +0.027 A 
ATOM     20 BR   UNL     1       2.184   1.588   4.445  0.00  0.00    -0.050 Br
ENDBRANCH   2  14
BRANCH   4  21
ATOM     21  C   UNL     1      -4.411   3.122  -1.329  0.00  0.00    +0.242 C 
BRANCH  21  22
ATOM     22  C   UNL     1      -4.197   4.335  -2.197  0.00  0.00    +0.239 C 
ATOM     23  O   UNL     1      -3.131   4.914  -2.177  0.00  0.00    -0.273 OA
ATOM     24  N   UNL     1      -5.189   4.776  -2.994  0.00  0.00    -0.284 N 
ATOM     25  H   UNL     1      -6.012   4.269  -3.071  0.00  0.00    +0.155 HD
BRANCH  24  26
ATOM     26  C   UNL     1      -5.033   5.967  -3.712  0.00  0.00    +0.036 A 
ATOM     27  C   UNL     1      -4.152   6.942  -3.260  0.00  0.00    +0.024 A 
ATOM     28  C   UNL     1      -4.000   8.116  -3.971  0.00  0.00    +0.005 A 
ATOM     29  C   UNL     1      -4.723   8.322  -5.132  0.00  0.00    -0.050 A 
ATOM     30  C   UNL     1      -5.600   7.354  -5.585  0.00  0.00    +0.008 A 
ATOM     31  C   UNL     1      -5.753   6.175  -4.881  0.00  0.00    -0.029 A 
ATOM     32  C   UNL     1      -6.704   5.117  -5.379  0.00  0.00    +0.045 C 
ATOM     33  C   UNL     1      -4.554   9.604  -5.905  0.00  0.00    +0.044 C 
ENDBRANCH  24  26
ENDBRANCH  21  22
ENDBRANCH   4  21
TORSDOF 5
