REMARK  Name = ZINC35870375
REMARK  9 active torsions:
REMARK  status: ('A' for Active; 'I' for Inactive)
REMARK    1  A    between atoms: C_1  and  C_2
REMARK    2  A    between atoms: C_2  and  C_3
REMARK    3  A    between atoms: C_3  and  C_5
REMARK    4  A    between atoms: C_3  and  N_6
REMARK    5  A    between atoms: C_7  and  C_9
REMARK    6  A    between atoms: C_14  and  N_34
REMARK    7  A    between atoms: N_22  and  C_25
REMARK    8  A    between atoms: C_30  and  O_31
REMARK    9  A    between atoms: O_31  and  C_32
REMARK                            x       y       z     vdW  Elec       q    Type
REMARK                         _______ _______ _______ _____ _____    ______ ____
ROOT
ATOM      1  C   UNL     1       4.314   0.445   2.231  0.00  0.00    +0.101 C 
ATOM      2  C   UNL     1       4.413   1.817   1.564  0.00  0.00    +0.051 C 
ATOM      3  C   UNL     1       5.854   2.257   1.575  0.00  0.00    -0.023 A 
ATOM      4  C   UNL     1       6.320   3.091   0.575  0.00  0.00    +0.038 A 
ATOM      5  C   UNL     1       7.643   3.492   0.570  0.00  0.00    +0.127 A 
ATOM      6  C   UNL     1       8.503   3.059   1.563  0.00  0.00    +0.034 A 
ATOM      7  C   UNL     1       8.041   2.229   2.565  0.00  0.00    +0.025 A 
ATOM      8  C   UNL     1       6.707   1.829   2.575  0.00  0.00    +0.033 A 
ATOM      9  N   UNL     1       6.261   1.006   3.624  0.00  0.00    -0.323 N 
ATOM     10  C   UNL     1       4.896   0.511   3.647  0.00  0.00    +0.103 C 
ATOM     11  C   UNL     1       4.763  -0.863   4.283  0.00  0.00    +0.128 C 
ATOM     12  N   UNL     1       5.722  -1.091   5.345  0.00  0.00    -0.324 N 
ATOM     13  C   UNL     1       7.108  -0.662   5.253  0.00  0.00    +0.124 C 
ATOM     14  C   UNL     1       7.220   0.737   4.694  0.00  0.00    +0.124 C 
ENDROOT
BRANCH  12  15
ATOM     15  C   UNL     1       5.297  -1.748   6.505  0.00  0.00    +0.073 A 
ATOM     16  C   UNL     1       5.385  -3.130   6.593  0.00  0.00    +0.046 A 
ATOM     17  C   UNL     1       4.964  -3.777   7.741  0.00  0.00    +0.043 A 
ATOM     18  C   UNL     1       4.456  -3.050   8.803  0.00  0.00    +0.024 A 
ATOM     19  C   UNL     1       4.366  -1.672   8.721  0.00  0.00    +0.049 A 
ATOM     20  C   UNL     1       4.791  -1.016   7.577  0.00  0.00    +0.141 A 
ATOM     21 CL   UNL     1       5.073  -5.506   7.849  0.00  0.00    -0.083 Cl
BRANCH  20  22
ATOM     22  O   UNL     1       4.708   0.339   7.498  0.00  0.00    -0.493 OA
ATOM     23  C   UNL     1       4.178   1.024   8.635  0.00  0.00    +0.277 C 
ENDBRANCH  20  22
ENDBRANCH  12  15
BRANCH   1  25
ATOM     24  N   UNL     1       2.148  -0.104   1.172  0.00  0.00    -0.312 N 
ATOM     25  C   UNL     1       2.869   0.026   2.303  0.00  0.00    +0.218 C 
ATOM     26  O   UNL     1       2.354  -0.193   3.379  0.00  0.00    -0.275 OA
ATOM     27  H   UNL     1       2.559   0.072   0.311  0.00  0.00    +0.149 HD
BRANCH  24  28
ATOM     28  C   UNL     1       0.742  -0.511   1.242  0.00  0.00    +0.070 C 
ATOM     29  C   UNL     1       0.655  -2.037   1.299  0.00  0.00    +0.028 C 
BRANCH  28  31
ATOM     30  C   UNL     1      -0.019   1.526   0.010  0.00  0.00    +0.005 C 
ATOM     31  C   UNL     1       0.002  -0.004   0.002  0.00  0.00    +0.018 C 
ENDBRANCH  28  31
ENDBRANCH  24  28
ENDBRANCH   1  25
BRANCH   5  32
ATOM     32  N   UNL     1       8.140   4.386  -0.500  0.00  0.00    +0.056 N 
ATOM     33  O   UNL     1       7.389   4.764  -1.369  0.00  0.00    -0.126 OA
ATOM     34  O   UNL     1       9.297   4.737  -0.505  0.00  0.00    -0.126 OA
ENDBRANCH   5  32
TORSDOF 6
