REMARK  Name = ZINC21981267
REMARK  9 active torsions:
REMARK  status: ('A' for Active; 'I' for Inactive)
REMARK    1  A    between atoms: C_4  and  C_8
REMARK    2  A    between atoms: C_8  and  O_10
REMARK    3  A    between atoms: O_10  and  C_11
REMARK    4  A    between atoms: C_11  and  C_38
REMARK    5  A    between atoms: C_12  and  C_37
REMARK    6  A    between atoms: C_17  and  C_36
REMARK    7  A    between atoms: C_19  and  O_35
REMARK    8  A    between atoms: C_32  and  C_33
REMARK    9  A    between atoms: C_38  and  C_40
REMARK                            x       y       z     vdW  Elec       q    Type
REMARK                         _______ _______ _______ _____ _____    ______ ____
ROOT
ATOM      1  C   UNL     1      -5.189  -2.835   1.431  0.00  0.00    +0.180 C 
ATOM      2  C   UNL     1      -4.757  -2.882   2.918  0.00  0.00    +0.038 C 
ATOM      3  C   UNL     1      -3.200  -2.882   2.921  0.00  0.00    +0.012 C 
ATOM      4  C   UNL     1      -2.899  -2.234   1.566  0.00  0.00    +0.005 C 
ATOM      5  C   UNL     1      -3.875  -2.983   0.637  0.00  0.00    +0.021 C 
ATOM      6  C   UNL     1      -3.864  -2.339  -0.727  0.00  0.00    +0.044 C 
ATOM      7  C   UNL     1      -2.430  -2.275  -1.285  0.00  0.00    +0.137 C 
ATOM      8  C   UNL     1      -1.481  -1.558  -0.342  0.00  0.00    +0.086 C 
ATOM      9  C   UNL     1      -1.498  -2.196   1.061  0.00  0.00    +0.018 C 
ATOM     10  C   UNL     1      -0.760  -3.526   1.032  0.00  0.00    +0.010 C 
ATOM     11  C   UNL     1       0.735  -3.198   0.937  0.00  0.00    +0.032 C 
ATOM     12  C   UNL     1       0.983  -2.207  -0.168  0.00  0.00    -0.055 C 
ATOM     13  C   UNL     1       2.272  -2.027  -0.525  0.00  0.00    +0.051 C 
ATOM     14  C   UNL     1       2.621  -0.781  -1.247  0.00  0.00    +0.179 C 
ATOM     15  O   UNL     1       3.681  -0.665  -1.849  0.00  0.00    -0.288 OA
ATOM     16  C   UNL     1       1.647   0.332  -1.179  0.00  0.00    +0.047 C 
ATOM     17  C   UNL     1       0.353   0.053  -0.947  0.00  0.00    -0.011 C 
ATOM     18  C   UNL     1      -0.071  -1.389  -0.835  0.00  0.00    +0.029 C 
ATOM     19  C   UNL     1      -0.032  -1.855  -2.296  0.00  0.00    +0.022 C 
ATOM     20 CL   UNL     1      -2.166   0.112  -0.120  0.00  0.00    -0.114 Cl
ATOM     21  C   UNL     1      -3.583  -4.480   0.539  0.00  0.00    +0.016 C 
ATOM     22  C   UNL     1      -5.293  -4.142   3.595  0.00  0.00    +0.012 C 
ENDROOT
BRANCH   7  23
ATOM     23  O   UNL     1      -2.001  -3.587  -1.619  0.00  0.00    -0.390 OA
ATOM     24  H   UNL     1      -0.996  -3.748  -2.035  0.00  0.00    +0.210 HD
ENDBRANCH   7  23
BRANCH   1  25
ATOM     25  C   UNL     1      -6.110  -3.980   1.110  0.00  0.00    +0.192 C 
ATOM     26  O   UNL     1      -5.821  -5.102   1.451  0.00  0.00    -0.292 OA
BRANCH  25  27
ATOM     27  C   UNL     1      -7.394  -3.727   0.363  0.00  0.00    +0.187 C 
ATOM     28 CL   UNL     1      -8.332  -5.263   0.242  0.00  0.00    -0.117 Cl
ENDBRANCH  25  27
ENDBRANCH   1  25
BRANCH   1  29
ATOM     29  O   UNL     1      -5.816  -1.566   1.122  0.00  0.00    -0.444 OA
BRANCH  29  30
ATOM     30  C   UNL     1      -6.914  -1.237   1.833  0.00  0.00    +0.376 C 
ATOM     31  O   UNL     1      -7.367  -2.017   2.648  0.00  0.00    -0.241 OA
BRANCH  30  34
ATOM     32  C   UNL     1      -8.938   1.799   1.763  0.00  0.00    +0.042 A 
ATOM     33  C   UNL     1      -8.672   0.519   2.273  0.00  0.00    +0.056 A 
ATOM     34  C   UNL     1      -7.560   0.061   1.623  0.00  0.00    +0.211 A 
ATOM     35  O   UNL     1      -7.159   1.016   0.759  0.00  0.00    -0.456 OA
ATOM     36  C   UNL     1      -7.990   2.063   0.837  0.00  0.00    +0.196 A 
ENDBRANCH  30  34
ENDBRANCH  29  30
ENDBRANCH   1  29
TORSDOF 6
