REMARK  Name = ZINC18198905
REMARK  4 active torsions:
REMARK  status: ('A' for Active; 'I' for Inactive)
REMARK    1  A    between atoms: C_5  and  C_7
REMARK    2  A    between atoms: C_12  and  N_21
REMARK    3  A    between atoms: C_16  and  N_20
REMARK    4  A    between atoms: C_17  and  C_18
REMARK                            x       y       z     vdW  Elec       q    Type
REMARK                         _______ _______ _______ _____ _____    ______ ____
ROOT
ATOM      1  C   UNL     1      -1.337   2.105   0.020  0.00  0.00    +0.116 C 
ATOM      2  C   UNL     1      -1.818   2.246   1.440  0.00  0.00    +0.009 A 
ATOM      3  C   UNL     1      -1.242   3.200   2.261  0.00  0.00    +0.010 A 
ATOM      4  C   UNL     1      -1.669   3.344   3.566  0.00  0.00    +0.023 A 
ATOM      5  C   UNL     1      -2.682   2.530   4.059  0.00  0.00    +0.028 A 
ATOM      6  C   UNL     1      -3.260   1.574   3.237  0.00  0.00    +0.069 A 
ATOM      7  C   UNL     1      -2.828   1.431   1.925  0.00  0.00    +0.136 A 
ATOM      8  O   UNL     1      -3.404   0.492   1.135  0.00  0.00    -0.441 OA
ATOM      9  C   UNL     1      -3.296   0.582  -0.201  0.00  0.00    +0.199 C 
ATOM     10  C   UNL     1      -2.337   1.332  -0.793  0.00  0.00    +0.099 C 
ENDROOT
BRANCH   1  15
ATOM     11  C   UNL     1       1.222  -0.663  -0.013  0.00  0.00    +0.003 A 
ATOM     12  C   UNL     1       2.382   0.096  -0.020  0.00  0.00    +0.020 A 
ATOM     13  C   UNL     1       2.285   1.475  -0.012  0.00  0.00    +0.111 A 
ATOM     14  N   UNL     1       1.107   2.068   0.003  0.00  0.00    -0.259 NA
ATOM     15  C   UNL     1      -0.017   1.378   0.010  0.00  0.00    +0.054 A 
ATOM     16  C   UNL     1       0.002  -0.004   0.002  0.00  0.00    +0.024 A 
ENDBRANCH   1  15
BRANCH   9  17
ATOM     17  N   UNL     1      -4.185  -0.105  -0.989  0.00  0.00    -0.328 N 
ATOM     18  H   UNL     1      -4.120  -0.050  -1.955  0.00  0.00    +0.145 HD
ATOM     19  H   UNL     1      -4.878  -0.647  -0.580  0.00  0.00    +0.145 HD
ENDBRANCH   9  17
BRANCH   5  20
ATOM     20  N   UNL     1      -3.115   2.673   5.379  0.00  0.00    -0.358 N 
ATOM     21  H   UNL     1      -3.822   2.104   5.722  0.00  0.00    +0.142 HD
ATOM     22  H   UNL     1      -2.710   3.342   5.952  0.00  0.00    +0.142 HD
ENDBRANCH   5  20
BRANCH  10  23
ATOM     23  C   UNL     1      -2.274   1.389  -2.223  0.00  0.00    +0.101 C 
ATOM     24  N   UNL     1      -2.224   1.435  -3.357  0.00  0.00    -0.191 NA
ENDBRANCH  10  23
TORSDOF 4
