REMARK  Name = ZINC09233744
REMARK  5 active torsions:
REMARK  status: ('A' for Active; 'I' for Inactive)
REMARK    1  A    between atoms: C_2  and  C_3
REMARK    2  A    between atoms: C_3  and  O_4
REMARK    3  A    between atoms: O_4  and  C_5
REMARK    4  A    between atoms: C_8  and  C_11
REMARK    5  A    between atoms: C_11  and  C_13
REMARK                            x       y       z     vdW  Elec       q    Type
REMARK                         _______ _______ _______ _____ _____    ______ ____
ROOT
ATOM      1  C   UNL     1       0.985  -0.281  -0.863  0.00  0.00    +0.066 C 
ATOM      2  C   UNL     1      -0.253   0.344  -0.176  0.00  0.00    -0.055 C 
ATOM      3  C   UNL     1      -1.506   0.084  -1.028  0.00  0.00    -0.016 C 
ATOM      4  C   UNL     1      -1.617   1.290  -1.981  0.00  0.00    -0.020 C 
ATOM      5  C   UNL     1      -0.383   2.171  -1.661  0.00  0.00    -0.076 C 
ATOM      6  C   UNL     1       1.445   1.991  -0.093  0.00  0.00    +0.060 C 
ATOM      7  C   UNL     1       2.121   0.676  -0.461  0.00  0.00    +0.085 C 
ATOM      8  C   UNL     1       2.921   0.115   0.682  0.00  0.00    -0.011 A 
ATOM      9  C   UNL     1       2.602  -0.256   1.969  0.00  0.00    +0.006 A 
ATOM     10  C   UNL     1       3.582  -0.755   2.809  0.00  0.00    +0.000 A 
ATOM     11  C   UNL     1       4.882  -0.880   2.352  0.00  0.00    +0.002 A 
ATOM     12  C   UNL     1       5.205  -0.509   1.063  0.00  0.00    +0.023 A 
ATOM     13  C   UNL     1       4.225  -0.006   0.211  0.00  0.00    +0.038 A 
ATOM     14  N   UNL     1       4.302   0.430  -1.113  0.00  0.00    -0.285 N 
ATOM     15  C   UNL     1       3.110   0.846  -1.582  0.00  0.00    +0.228 C 
ATOM     16  O   UNL     1       2.878   1.273  -2.693  0.00  0.00    -0.275 OA
ATOM     17  C   UNL     1       1.951   3.125  -0.945  0.00  0.00    -0.027 A 
ATOM     18  C   UNL     1       1.960   3.355  -2.302  0.00  0.00    +0.004 A 
ATOM     19  C   UNL     1       2.508   4.523  -2.802  0.00  0.00    +0.000 A 
ATOM     20  C   UNL     1       3.047   5.456  -1.935  0.00  0.00    +0.002 A 
ATOM     21  C   UNL     1       3.041   5.229  -0.575  0.00  0.00    +0.023 A 
ATOM     22  C   UNL     1       2.490   4.056  -0.063  0.00  0.00    +0.036 A 
ATOM     23  N   UNL     1       2.366   3.603   1.252  0.00  0.00    -0.286 N 
ATOM     24  C   UNL     1       1.766   2.400   1.321  0.00  0.00    +0.212 C 
ATOM     25  O   UNL     1       1.528   1.768   2.328  0.00  0.00    -0.277 OA
ATOM     26  H   UNL     1       5.120   0.434  -1.635  0.00  0.00    +0.155 HD
ATOM     27  H   UNL     1       2.678   4.098   2.026  0.00  0.00    +0.155 HD
ATOM     28  N   UNL     1       0.005   1.768  -0.297  0.00  0.00    +0.395 N 
ATOM     29  H   UNL     1      -0.536   2.295   0.398  0.00  0.00    -0.079 HD
ENDROOT
BRANCH   1  30
ATOM     30  C   UNL     1       0.809  -0.307  -2.359  0.00  0.00    +0.166 C 
ATOM     31  O   UNL     1       1.089   0.671  -3.020  0.00  0.00    -0.292 OA
BRANCH  30  35
ATOM     32  C   UNL     1      -0.666  -3.794  -4.258  0.00  0.00    +0.121 A 
ATOM     33  C   UNL     1      -0.451  -2.638  -5.001  0.00  0.00    +0.046 A 
ATOM     34  C   UNL     1       0.026  -1.507  -4.391  0.00  0.00    +0.015 A 
ATOM     35  C   UNL     1       0.298  -1.516  -3.018  0.00  0.00    +0.018 A 
ATOM     36  C   UNL     1       0.085  -2.684  -2.275  0.00  0.00    +0.015 A 
ATOM     37  C   UNL     1      -0.398  -3.808  -2.893  0.00  0.00    +0.046 A 
BRANCH  32  38
ATOM     38  O   UNL     1      -1.138  -4.911  -4.866  0.00  0.00    -0.488 OA
BRANCH  38  39
ATOM     39  C   UNL     1      -1.337  -6.062  -4.044  0.00  0.00    +0.256 C 
BRANCH  39  41
ATOM     40  C   UNL     1      -1.356  -8.398  -4.755  0.00  0.00    +0.007 C 
ATOM     41  C   UNL     1      -1.861  -7.197  -4.887  0.00  0.00    +0.006 C 
ENDBRANCH  39  41
ENDBRANCH  38  39
ENDBRANCH  32  38
ENDBRANCH  30  35
ENDBRANCH   1  30
TORSDOF 5
