REMARK  Name = ZINC46759345
REMARK  10 active torsions:
REMARK  status: ('A' for Active; 'I' for Inactive)
REMARK    1  A    between atoms: C_1  and  C_2
REMARK    2  A    between atoms: C_2  and  C_3
REMARK    3  A    between atoms: C_2  and  N_4
REMARK    4  A    between atoms: N_7  and  C_8
REMARK    5  A    between atoms: C_11  and  C_14
REMARK    6  A    between atoms: C_14  and  N_15
REMARK    7  A    between atoms: C_16  and  C_18
REMARK    8  A    between atoms: C_19  and  C_23
REMARK    9  A    between atoms: C_23  and  S_24
REMARK   10  A    between atoms: S_24  and  C_27
REMARK                            x       y       z     vdW  Elec       q    Type
REMARK                         _______ _______ _______ _____ _____    ______ ____
ROOT
ATOM      1  N   UNL     1      -5.617  -3.300  -6.592  0.00  0.00    -0.305 N 
ATOM      2  C   UNL     1      -6.129  -3.724  -7.764  0.00  0.00    +0.280 C 
ATOM      3  O   UNL     1      -6.793  -2.967  -8.447  0.00  0.00    -0.267 OA
ATOM      4  H   UNL     1      -5.087  -3.904  -6.048  0.00  0.00    +0.149 HD
ENDROOT
BRANCH   2   5
ATOM      5  C   UNL     1      -5.884  -5.097  -8.218  0.00  0.00    +0.194 A 
ATOM      6  C   UNL     1      -6.337  -5.650  -9.381  0.00  0.00    +0.024 A 
ATOM      7  C   UNL     1      -5.870  -6.973  -9.408  0.00  0.00    +0.047 A 
ATOM      8  C   UNL     1      -5.161  -7.168  -8.273  0.00  0.00    +0.196 A 
ATOM      9  O   UNL     1      -5.168  -6.033  -7.561  0.00  0.00    -0.458 OA
BRANCH   6  10
ATOM     10  C   UNL     1      -7.176  -4.971 -10.433  0.00  0.00    +0.210 C 
BRANCH  10  11
ATOM     11  S   UNL     1      -6.091  -4.181 -11.654  0.00  0.00    +0.001 S 
ATOM     12  O   UNL     1      -5.395  -3.095 -11.060  0.00  0.00    -0.169 OA
ATOM     13  O   UNL     1      -5.392  -5.169 -12.400  0.00  0.00    -0.169 OA
BRANCH  11  14
ATOM     14  C   UNL     1      -7.186  -3.433 -12.815  0.00  0.00    +0.089 A 
ATOM     15  C   UNL     1      -7.618  -4.147 -13.917  0.00  0.00    +0.027 A 
ATOM     16  C   UNL     1      -8.477  -3.560 -14.827  0.00  0.00    +0.002 A 
ATOM     17  C   UNL     1      -8.903  -2.259 -14.636  0.00  0.00    +0.000 A 
ATOM     18  C   UNL     1      -8.471  -1.545 -13.533  0.00  0.00    +0.002 A 
ATOM     19  C   UNL     1      -7.616  -2.134 -12.620  0.00  0.00    +0.027 A 
ENDBRANCH  11  14
ENDBRANCH  10  11
ENDBRANCH   6  10
ENDBRANCH   2   5
BRANCH   1  20
ATOM     20  C   UNL     1      -5.861  -1.929  -6.139  0.00  0.00    +0.140 C 
BRANCH  20  24
ATOM     21  C   UNL     1      -3.943  -1.311  -2.369  0.00  0.00    +0.035 A 
ATOM     22  C   UNL     1      -3.260  -1.047  -3.549  0.00  0.00    +0.023 A 
ATOM     23  C   UNL     1      -3.882  -1.248  -4.766  0.00  0.00    +0.007 A 
ATOM     24  C   UNL     1      -5.185  -1.711  -4.809  0.00  0.00    -0.030 A 
ATOM     25  C   UNL     1      -5.868  -1.974  -3.636  0.00  0.00    +0.007 A 
ATOM     26  C   UNL     1      -5.249  -1.781  -2.417  0.00  0.00    +0.023 A 
BRANCH  21  30
ATOM     27  N   UNL     1      -2.902  -1.800   1.056  0.00  0.00    -0.297 N 
ATOM     28  C   UNL     1      -3.575  -1.937  -0.103  0.00  0.00    +0.304 C 
ATOM     29  O   UNL     1      -4.417  -2.806  -0.219  0.00  0.00    -0.253 OA
ATOM     30  N   UNL     1      -3.315  -1.109  -1.135  0.00  0.00    -0.269 N 
ATOM     31  H   UNL     1      -2.230  -1.106   1.148  0.00  0.00    +0.151 HD
ATOM     32  H   UNL     1      -2.693  -0.374  -1.022  0.00  0.00    +0.156 HD
BRANCH  27  34
ATOM     33  C   UNL     1      -2.364  -3.982   2.022  0.00  0.00    +0.027 C 
ATOM     34  C   UNL     1      -3.184  -2.700   2.177  0.00  0.00    +0.068 C 
ATOM     35  C   UNL     1      -2.810  -2.010   3.491  0.00  0.00    +0.027 C 
ENDBRANCH  27  34
ENDBRANCH  21  30
ENDBRANCH  20  24
ENDBRANCH   1  20
TORSDOF 8
