REMARK  Name = ZINC17015092
REMARK  11 active torsions:
REMARK  status: ('A' for Active; 'I' for Inactive)
REMARK    1  A    between atoms: C_1  and  C_2
REMARK    2  A    between atoms: C_2  and  C_3
REMARK    3  A    between atoms: C_3  and  C_4
REMARK    4  A    between atoms: C_4  and  N_5
REMARK    5  A    between atoms: C_7  and  C_14
REMARK    6  A    between atoms: C_20  and  O_35
REMARK    7  A    between atoms: N_27  and  C_31
REMARK    8  A    between atoms: C_31  and  C_32
REMARK    9  A    between atoms: C_32  and  C_33
REMARK   10  A    between atoms: C_33  and  C_34
REMARK   11  A    between atoms: O_35  and  C_36
REMARK                            x       y       z     vdW  Elec       q    Type
REMARK                         _______ _______ _______ _____ _____    ______ ____
ROOT
ATOM      1  C   UNL     1       0.634   7.905   3.776  0.00  0.00    +0.104 C 
ATOM      2  C   UNL     1       0.076   8.750   4.889  0.00  0.00    +0.012 A 
ATOM      3  C   UNL     1      -0.249   8.159   6.098  0.00  0.00    +0.028 A 
ATOM      4  C   UNL     1      -0.763   8.922   7.130  0.00  0.00    +0.045 A 
ATOM      5  C   UNL     1      -0.956  10.281   6.958  0.00  0.00    +0.069 A 
ATOM      6  C   UNL     1      -0.633  10.878   5.752  0.00  0.00    +0.164 A 
ATOM      7  C   UNL     1      -0.115  10.109   4.710  0.00  0.00    +0.176 A 
ATOM      8  O   UNL     1       0.195  10.704   3.532  0.00  0.00    -0.433 OA
ATOM      9  C   UNL     1       1.040  10.107   2.674  0.00  0.00    +0.234 A 
ATOM     10  C   UNL     1       1.289   8.776   2.740  0.00  0.00    +0.091 A 
ATOM     11  C   UNL     1       2.186   8.197   1.816  0.00  0.00    +0.264 A 
ATOM     12  O   UNL     1       2.426   7.002   1.860  0.00  0.00    -0.267 OA
ATOM     13  N   UNL     1       2.774   8.973   0.885  0.00  0.00    -0.259 N 
ATOM     14  C   UNL     1       2.512  10.292   0.835  0.00  0.00    +0.354 A 
ATOM     15  O   UNL     1       3.051  10.977  -0.012  0.00  0.00    -0.244 OA
ATOM     16  N   UNL     1       1.663  10.863   1.707  0.00  0.00    -0.157 NA
ATOM     17 CL   UNL     1      -1.169   8.173   8.643  0.00  0.00    -0.083 Cl
ENDROOT
BRANCH   1  20
ATOM     18  N   UNL     1      -1.486   5.067   2.542  0.00  0.00    -0.261 N 
ATOM     19  C   UNL     1      -0.461   5.760   3.136  0.00  0.00    +0.264 A 
ATOM     20  C   UNL     1      -0.483   7.123   3.135  0.00  0.00    +0.094 A 
ATOM     21  C   UNL     1      -1.565   7.788   2.533  0.00  0.00    +0.262 A 
ATOM     22  O   UNL     1      -1.608   9.006   2.523  0.00  0.00    -0.267 OA
ATOM     23  N   UNL     1      -2.554   7.070   1.965  0.00  0.00    -0.274 N 
ATOM     24  H   UNL     1      -3.400   7.591   1.493  0.00  0.00    +0.173 HD
ATOM     25  C   UNL     1      -2.511   5.725   1.971  0.00  0.00    +0.332 A 
ATOM     26  O   UNL     1      -3.413   5.095   1.454  0.00  0.00    -0.246 OA
ATOM     27  O   UNL     1       0.564   5.096   3.713  0.00  0.00    -0.267 OA
BRANCH  18  28
ATOM     28  C   UNL     1      -1.466   3.603   2.534  0.00  0.00    +0.130 C 
BRANCH  28  29
ATOM     29  C   UNL     1      -0.750   3.109   1.275  0.00  0.00    +0.022 C 
BRANCH  29  31
ATOM     30  C   UNL     1      -0.013   1.086   0.008  0.00  0.00    +0.004 C 
ATOM     31  C   UNL     1      -0.729   1.579   1.267  0.00  0.00    -0.002 C 
ENDBRANCH  29  31
ENDBRANCH  28  29
ENDBRANCH  18  28
ENDBRANCH   1  20
BRANCH   6  32
ATOM     32  O   UNL     1      -0.821  12.214   5.582  0.00  0.00    -0.491 OA
ATOM     33  C   UNL     1      -1.355  12.940   6.691  0.00  0.00    +0.277 C 
ENDBRANCH   6  32
BRANCH  13  34
ATOM     34  C   UNL     1       3.704   8.378  -0.077  0.00  0.00    +0.130 C 
BRANCH  34  35
ATOM     35  C   UNL     1       5.124   8.422   0.490  0.00  0.00    +0.022 C 
BRANCH  35  36
ATOM     36  C   UNL     1       6.095   7.801  -0.515  0.00  0.00    -0.002 C 
ATOM     37  C   UNL     1       7.515   7.846   0.053  0.00  0.00    +0.004 C 
ENDBRANCH  35  36
ENDBRANCH  34  35
ENDBRANCH  13  34
TORSDOF 8
