REMARK  Name = ZINC35293453
REMARK  12 active torsions:
REMARK  status: ('A' for Active; 'I' for Inactive)
REMARK    1  A    between atoms: C_1  and  C_2
REMARK    2  A    between atoms: C_5  and  C_7
REMARK    3  A    between atoms: C_9  and  C_21
REMARK    4  A    between atoms: N_10  and  C_12
REMARK    5  A    between atoms: C_16  and  N_18
REMARK    6  A    between atoms: N_23  and  C_24
REMARK    7  A    between atoms: N_23  and  C_29
REMARK    8  A    between atoms: C_24  and  C_25
REMARK    9  A    between atoms: C_25  and  N_26
REMARK   10  A    between atoms: N_26  and  C_27
REMARK   11  A    between atoms: N_26  and  C_28
REMARK   12  A    between atoms: C_29  and  C_30
REMARK                            x       y       z     vdW  Elec       q    Type
REMARK                         _______ _______ _______ _____ _____    ______ ____
ROOT
ATOM      1  C   UNL     1       1.181  -4.455  -0.590  0.00  0.00    +0.129 A 
ATOM      2  C   UNL     1       2.400  -5.126  -0.780  0.00  0.00    +0.066 A 
ATOM      3  C   UNL     1       3.410  -4.198  -0.656  0.00  0.00    +0.130 A 
ATOM      4  N   UNL     1       2.822  -2.988  -0.397  0.00  0.00    -0.227 N 
ATOM      5  N   UNL     1       1.436  -3.179  -0.367  0.00  0.00    -0.163 NA
ENDROOT
BRANCH   1  10
ATOM      6  C   UNL     1      -2.451  -7.891  -1.046  0.00  0.00    +0.086 C 
ATOM      7  C   UNL     1      -1.754  -6.571  -0.836  0.00  0.00    +0.103 A 
ATOM      8  C   UNL     1      -2.361  -5.394  -0.588  0.00  0.00    +0.045 A 
ATOM      9  C   UNL     1      -1.344  -4.426  -0.459  0.00  0.00    +0.052 A 
ATOM     10  C   UNL     1      -0.162  -5.072  -0.637  0.00  0.00    +0.155 A 
ATOM     11  O   UNL     1      -0.426  -6.374  -0.859  0.00  0.00    -0.458 OA
ENDBRANCH   1  10
BRANCH   4  12
ATOM     12  C   UNL     1       3.490  -1.773  -0.201  0.00  0.00    +0.068 A 
ATOM     13  C   UNL     1       4.624  -1.724   0.600  0.00  0.00    +0.028 A 
ATOM     14  C   UNL     1       5.280  -0.524   0.791  0.00  0.00    +0.004 A 
ATOM     15  C   UNL     1       4.809   0.628   0.187  0.00  0.00    +0.033 A 
ATOM     16  C   UNL     1       3.680   0.582  -0.610  0.00  0.00    +0.128 A 
ATOM     17  C   UNL     1       3.023  -0.616  -0.811  0.00  0.00    +0.060 A 
BRANCH  16  18
ATOM     18  N   UNL     1       3.179   1.817  -1.254  0.00  0.00    +0.056 N 
ATOM     19  O   UNL     1       3.757   2.865  -1.083  0.00  0.00    -0.126 OA
ATOM     20  O   UNL     1       2.192   1.778  -1.951  0.00  0.00    -0.126 OA
ENDBRANCH  16  18
ENDBRANCH   4  12
BRANCH   3  21
ATOM     21  C   UNL     1       4.853  -4.458  -0.780  0.00  0.00    +0.265 C 
ATOM     22  O   UNL     1       5.633  -3.529  -0.876  0.00  0.00    -0.268 OA
ATOM     23  N   UNL     1       5.312  -5.725  -0.788  0.00  0.00    -0.294 N 
BRANCH  23  24
ATOM     24  C   UNL     1       4.369  -6.845  -0.739  0.00  0.00    +0.090 C 
BRANCH  24  25
ATOM     25  C   UNL     1       3.857  -7.143  -2.150  0.00  0.00    -0.060 C 
BRANCH  25  26
ATOM     26  N   UNL     1       2.829  -8.190  -2.088  0.00  0.00    +0.377 N 
ATOM     27  C   UNL     1       2.241  -8.379  -3.421  0.00  0.00    -0.097 C 
ATOM     28  C   UNL     1       3.438  -9.448  -1.637  0.00  0.00    -0.097 C 
ATOM     29  H   UNL     1       2.107  -7.914  -1.438  0.00  0.00    -0.083 HD
ENDBRANCH  25  26
ENDBRANCH  24  25
ENDBRANCH  23  24
BRANCH  23  30
ATOM     30  C   UNL     1       6.753  -5.982  -0.845  0.00  0.00    +0.143 C 
BRANCH  30  31
ATOM     31  C   UNL     1       7.305  -6.058   0.555  0.00  0.00    -0.030 A 
ATOM     32  C   UNL     1       7.763  -4.914   1.181  0.00  0.00    +0.005 A 
ATOM     33  C   UNL     1       8.270  -4.983   2.465  0.00  0.00    +0.000 A 
ATOM     34  C   UNL     1       8.318  -6.197   3.124  0.00  0.00    +0.000 A 
ATOM     35  C   UNL     1       7.859  -7.342   2.499  0.00  0.00    +0.000 A 
ATOM     36  C   UNL     1       7.349  -7.272   1.216  0.00  0.00    +0.005 A 
ENDBRANCH  30  31
ENDBRANCH  23  30
ENDBRANCH   3  21
TORSDOF 9
