REMARK  Name = ZINC36647976
REMARK  7 active torsions:
REMARK  status: ('A' for Active; 'I' for Inactive)
REMARK    1  A    between atoms: C_5  and  C_7
REMARK    2  A    between atoms: C_10  and  S_13
REMARK    3  A    between atoms: N_11  and  N_12
REMARK    4  A    between atoms: S_13  and  C_14
REMARK    5  A    between atoms: C_14  and  C_15
REMARK    6  A    between atoms: C_17  and  C_20
REMARK    7  A    between atoms: C_24  and  C_26
REMARK                            x       y       z     vdW  Elec       q    Type
REMARK                         _______ _______ _______ _____ _____    ______ ____
ROOT
ATOM      1  S   UNL     1      -0.260  -5.765  -0.037  0.00  0.00    -0.075 S 
ENDROOT
BRANCH   1   5
ATOM      2  C   UNL     1       1.249  -2.161  -0.022  0.00  0.00    +0.184 A 
ATOM      3  N   UNL     1       2.319  -2.921  -0.032  0.00  0.00    -0.127 NA
ATOM      4  N   UNL     1       1.976  -4.160  -0.037  0.00  0.00    -0.121 NA
ATOM      5  C   UNL     1       0.667  -4.266  -0.032  0.00  0.00    +0.209 A 
ATOM      6  N   UNL     1       0.158  -2.999  -0.016  0.00  0.00    -0.224 N 
BRANCH   2  11
ATOM      7  C   UNL     1      -0.017   1.375   0.010  0.00  0.00    +0.001 A 
ATOM      8  C   UNL     1       1.170   2.087   0.002  0.00  0.00    +0.003 A 
ATOM      9  C   UNL     1       2.383   1.423  -0.013  0.00  0.00    +0.039 A 
ATOM     10  C   UNL     1       2.417   0.042  -0.022  0.00  0.00    +0.134 A 
ATOM     11  C   UNL     1       1.222  -0.683  -0.014  0.00  0.00    +0.056 A 
ATOM     12  C   UNL     1       0.002  -0.004   0.002  0.00  0.00    +0.014 A 
ATOM     13  F   UNL     1       3.602  -0.607  -0.038  0.00  0.00    -0.205 F 
ENDBRANCH   2  11
BRANCH   6  14
ATOM     14  N   UNL     1      -1.160  -2.638  -0.000  0.00  0.00    -0.295 N 
ATOM     15  H   UNL     1      -1.518  -2.537  -0.938  0.00  0.00    +0.163 HD
ATOM     16  H   UNL     1      -1.709  -3.300   0.527  0.00  0.00    +0.163 HD
ENDBRANCH   6  14
ENDBRANCH   1   5
BRANCH   1  17
ATOM     17  C   UNL     1       1.006  -7.064  -0.051  0.00  0.00    +0.176 C 
BRANCH  17  18
ATOM     18  C   UNL     1       0.339  -8.415  -0.056  0.00  0.00    +0.238 A 
ATOM     19  N   UNL     1       0.002  -9.094  -1.116  0.00  0.00    -0.191 NA
ATOM     20  C   UNL     1      -0.571 -10.256  -0.756  0.00  0.00    +0.202 A 
ATOM     21  N   UNL     1      -0.600 -10.321   0.552  0.00  0.00    -0.056 NA
ATOM     22  O   UNL     1      -0.003  -9.124   1.028  0.00  0.00    -0.337 OA
BRANCH  20  23
ATOM     23  C   UNL     1      -1.085 -11.292  -1.686  0.00  0.00    +0.023 A 
ATOM     24  C   UNL     1      -0.990 -11.105  -3.063  0.00  0.00    +0.012 A 
ATOM     25  C   UNL     1      -1.470 -12.072  -3.924  0.00  0.00    +0.001 A 
ATOM     26  C   UNL     1      -2.044 -13.226  -3.420  0.00  0.00    +0.012 A 
ATOM     27  C   UNL     1      -2.141 -13.417  -2.054  0.00  0.00    +0.055 A 
ATOM     28  C   UNL     1      -1.659 -12.459  -1.185  0.00  0.00    +0.024 A 
BRANCH  27  29
ATOM     29  C   UNL     1      -2.768 -14.676  -1.513  0.00  0.00    +0.417 C 
ATOM     30  F   UNL     1      -3.172 -15.490  -2.577  0.00  0.00    -0.166 F 
ATOM     31  F   UNL     1      -1.835 -15.362  -0.729  0.00  0.00    -0.166 F 
ATOM     32  F   UNL     1      -3.880 -14.344  -0.732  0.00  0.00    -0.166 F 
ENDBRANCH  27  29
ENDBRANCH  20  23
ENDBRANCH  17  18
ENDBRANCH   1  17
TORSDOF 7
