REMARK  Name = ZINC36122564
REMARK  13 active torsions:
REMARK  status: ('A' for Active; 'I' for Inactive)
REMARK    1  A    between atoms: C_1  and  C_2
REMARK    2  A    between atoms: C_5  and  O_9
REMARK    3  A    between atoms: C_6  and  C_8
REMARK    4  A    between atoms: O_9  and  C_10
REMARK    5  A    between atoms: C_10  and  C_11
REMARK    6  A    between atoms: C_21  and  C_23
REMARK    7  A    between atoms: C_23  and  N_24
REMARK    8  A    between atoms: N_24  and  C_25
REMARK    9  A    between atoms: C_25  and  C_26
REMARK   10  A    between atoms: N_34  and  C_35
REMARK   11  A    between atoms: C_35  and  C_36
REMARK   12  A    between atoms: C_35  and  C_37
REMARK   13  A    between atoms: C_35  and  C_38
REMARK                            x       y       z     vdW  Elec       q    Type
REMARK                         _______ _______ _______ _____ _____    ______ ____
ROOT
ATOM      1  C   UNL     1       0.079  -6.289  -1.105  0.00  0.00    +0.144 C 
ATOM      2  C   UNL     1      -1.077  -6.711  -0.200  0.00  0.00    -0.014 A 
ATOM      3  C   UNL     1      -2.407  -6.726  -0.617  0.00  0.00    +0.013 A 
ATOM      4  C   UNL     1      -3.380  -7.108   0.241  0.00  0.00    +0.046 A 
ATOM      5  S   UNL     1      -2.445  -7.477   1.718  0.00  0.00    -0.101 S 
ATOM      6  C   UNL     1      -0.834  -7.098   1.081  0.00  0.00    -0.004 A 
ATOM      7  C   UNL     1       0.484  -7.185   1.780  0.00  0.00    +0.061 C 
ATOM      8  C   UNL     1       1.522  -6.388   0.975  0.00  0.00    +0.114 C 
ATOM      9  N   UNL     1       1.332  -6.691  -0.452  0.00  0.00    -0.289 N 
ATOM     10  C   UNL     1       2.293  -7.328  -1.151  0.00  0.00    +0.234 C 
ATOM     11  O   UNL     1       2.126  -7.574  -2.326  0.00  0.00    -0.274 OA
ENDROOT
BRANCH   1  12
ATOM     12  C   UNL     1       0.058  -4.771  -1.298  0.00  0.00    +0.256 C 
BRANCH  12  13
ATOM     13  O   UNL     1       0.057  -4.129  -0.021  0.00  0.00    -0.490 OA
BRANCH  13  18
ATOM     14  C   UNL     1      -0.018   1.503   0.010  0.00  0.00    +0.044 C 
ATOM     15  C   UNL     1       0.002  -0.004   0.002  0.00  0.00    -0.050 A 
ATOM     16  C   UNL     1       0.006  -0.688  -1.200  0.00  0.00    +0.007 A 
ATOM     17  C   UNL     1       0.024  -2.069  -1.210  0.00  0.00    +0.046 A 
ATOM     18  C   UNL     1       0.039  -2.770  -0.013  0.00  0.00    +0.124 A 
ATOM     19  C   UNL     1       0.036  -2.082   1.191  0.00  0.00    -0.009 A 
ATOM     20  C   UNL     1       0.023  -0.701   1.196  0.00  0.00    +0.010 A 
ATOM     21  C   UNL     1       0.052  -2.841   2.493  0.00  0.00    +0.047 C 
ENDBRANCH  13  18
ENDBRANCH  12  13
ENDBRANCH   1  12
BRANCH  10  22
ATOM     22  C   UNL     1       3.574  -7.736  -0.470  0.00  0.00    +0.205 C 
BRANCH  22  23
ATOM     23  N   UNL     1       4.448  -8.407  -1.436  0.00  0.00    -0.274 N 
ATOM     24  C   UNL     1       4.373  -9.743  -1.597  0.00  0.00    +0.303 C 
ATOM     25  O   UNL     1       3.580 -10.391  -0.941  0.00  0.00    -0.253 OA
ATOM     26  N   UNL     1       5.176 -10.361  -2.486  0.00  0.00    -0.294 N 
ATOM     27  H   UNL     1       5.809  -9.844  -3.009  0.00  0.00    +0.151 HD
BRANCH  26  28
ATOM     28  C   UNL     1       5.095 -11.813  -2.661  0.00  0.00    +0.028 C 
ATOM     29  C   UNL     1       3.684 -12.194  -3.112  0.00  0.00    +0.031 C 
ATOM     30  C   UNL     1       6.106 -12.256  -3.720  0.00  0.00    +0.031 C 
ATOM     31  C   UNL     1       5.410 -12.505  -1.334  0.00  0.00    +0.031 C 
ENDBRANCH  26  28
BRANCH  23  32
ATOM     32  C   UNL     1       5.403  -7.626  -2.226  0.00  0.00    +0.141 C 
BRANCH  32  33
ATOM     33  C   UNL     1       6.732  -7.534  -1.474  0.00  0.00    +0.136 C 
ATOM     34  C   UNL     1       7.746  -6.682  -2.277  0.00  0.00    +0.035 C 
ATOM     35  C   UNL     1       8.683  -6.190  -1.141  0.00  0.00    +0.031 C 
ATOM     36  C   UNL     1       7.705  -6.026   0.043  0.00  0.00    +0.160 C 
ATOM     37  O   UNL     1       6.554  -6.837  -0.231  0.00  0.00    -0.375 OA
ENDBRANCH  32  33
ENDBRANCH  23  32
ENDBRANCH  22  23
ENDBRANCH  10  22
TORSDOF 8
