REMARK  Name = ZINC39448863
REMARK  7 active torsions:
REMARK  status: ('A' for Active; 'I' for Inactive)
REMARK    1  A    between atoms: C_1  and  C_2
REMARK    2  A    between atoms: C_2  and  O_3
REMARK    3  A    between atoms: O_3  and  C_4
REMARK    4  A    between atoms: C_9  and  C_10
REMARK    5  A    between atoms: C_15  and  S_17
REMARK    6  A    between atoms: S_17  and  C_18
REMARK    7  A    between atoms: C_18  and  C_19
REMARK                            x       y       z     vdW  Elec       q    Type
REMARK                         _______ _______ _______ _____ _____    ______ ____
ROOT
ATOM      1  C   UNL     1       2.055  -1.434   3.442  0.00  0.00    +0.204 C 
ATOM      2  N   UNL     1       1.199  -0.254   3.607  0.00  0.00    -0.336 N 
ATOM      3  C   UNL     1       0.267  -0.236   4.522  0.00  0.00    +0.190 C 
ATOM      4  N   UNL     1       0.082  -1.262   5.369  0.00  0.00    -0.195 NA
ATOM      5  C   UNL     1       0.985  -2.219   5.484  0.00  0.00    +0.159 C 
ATOM      6  N   UNL     1       2.137  -2.131   4.735  0.00  0.00    -0.300 N 
ATOM      7  N   UNL     1      -0.552   0.871   4.622  0.00  0.00    -0.329 N 
ATOM      8  H   UNL     1      -0.431   1.620   4.018  0.00  0.00    +0.145 HD
ATOM      9  H   UNL     1      -1.248   0.899   5.296  0.00  0.00    +0.145 HD
ATOM     10  H   UNL     1       2.971  -2.514   5.048  0.00  0.00    +0.150 HD
ATOM     11  H   UNL     1       1.326   0.518   3.033  0.00  0.00    +0.164 HD
ENDROOT
BRANCH   1  17
ATOM     12  C   UNL     1       0.802  -1.824   1.306  0.00  0.00    +0.127 A 
ATOM     13  C   UNL     1       0.260  -2.673   0.351  0.00  0.00    +0.046 A 
ATOM     14  C   UNL     1       0.372  -4.041   0.501  0.00  0.00    +0.004 A 
ATOM     15  C   UNL     1       1.024  -4.566   1.602  0.00  0.00    +0.001 A 
ATOM     16  C   UNL     1       1.565  -3.723   2.555  0.00  0.00    +0.011 A 
ATOM     17  C   UNL     1       1.460  -2.353   2.406  0.00  0.00    +0.034 A 
BRANCH  12  18
ATOM     18  O   UNL     1       0.693  -0.477   1.160  0.00  0.00    -0.492 OA
BRANCH  18  20
ATOM     19  C   UNL     1      -0.019   1.526   0.010  0.00  0.00    +0.048 C 
ATOM     20  C   UNL     1       0.002  -0.004   0.002  0.00  0.00    +0.225 C 
ENDBRANCH  18  20
ENDBRANCH  12  18
ENDBRANCH   1  17
BRANCH   5  21
ATOM     21  S   UNL     1       0.722  -3.579   6.573  0.00  0.00    -0.081 S 
BRANCH  21  22
ATOM     22  C   UNL     1      -0.899  -3.242   7.313  0.00  0.00    +0.173 C 
BRANCH  22  23
ATOM     23  C   UNL     1      -1.250  -4.345   8.278  0.00  0.00    +0.234 C 
ATOM     24  O   UNL     1      -0.482  -5.268   8.450  0.00  0.00    -0.274 OA
ATOM     25  N   UNL     1      -2.418  -4.306   8.950  0.00  0.00    -0.239 N 
ATOM     26  C   UNL     1      -3.325  -3.253   8.764  0.00  0.00    +0.044 A 
ATOM     27  C   UNL     1      -3.776  -3.003   7.473  0.00  0.00    +0.024 A 
ATOM     28  C   UNL     1      -4.697  -2.004   7.234  0.00  0.00    +0.002 A 
ATOM     29  C   UNL     1      -5.169  -1.255   8.296  0.00  0.00    +0.000 A 
ATOM     30  C   UNL     1      -4.711  -1.494   9.572  0.00  0.00    +0.005 A 
ATOM     31  C   UNL     1      -3.765  -2.487   9.833  0.00  0.00    -0.025 A 
ATOM     32  C   UNL     1      -3.304  -2.560  11.271  0.00  0.00    +0.042 C 
ATOM     33  C   UNL     1      -2.220  -3.597  11.503  0.00  0.00    +0.042 C 
ATOM     34  C   UNL     1      -2.710  -4.987  11.185  0.00  0.00    -0.025 A 
ATOM     35  C   UNL     1      -2.767  -5.320   9.853  0.00  0.00    +0.044 A 
ATOM     36  C   UNL     1      -3.158  -6.585   9.449  0.00  0.00    +0.024 A 
ATOM     37  C   UNL     1      -3.519  -7.508  10.417  0.00  0.00    +0.002 A 
ATOM     38  C   UNL     1      -3.490  -7.167  11.757  0.00  0.00    +0.000 A 
ATOM     39  C   UNL     1      -3.078  -5.889  12.157  0.00  0.00    +0.005 A 
ENDBRANCH  22  23
ENDBRANCH  21  22
ENDBRANCH   5  21
TORSDOF 6
