REMARK  Name = ZINC14990436
REMARK  10 active torsions:
REMARK  status: ('A' for Active; 'I' for Inactive)
REMARK    1  A    between atoms: C_1  and  C_2
REMARK    2  A    between atoms: C_4  and  C_34
REMARK    3  A    between atoms: N_5  and  C_7
REMARK    4  A    between atoms: C_11  and  C_13
REMARK    5  A    between atoms: N_15  and  C_16
REMARK    6  A    between atoms: C_19  and  C_30
REMARK    7  A    between atoms: N_21  and  C_23
REMARK    8  A    between atoms: C_23  and  C_24
REMARK    9  A    between atoms: C_30  and  O_32
REMARK   10  A    between atoms: O_32  and  C_33
REMARK                            x       y       z     vdW  Elec       q    Type
REMARK                         _______ _______ _______ _____ _____    ______ ____
ROOT
ATOM      1  C   UNL     1      -4.664   4.671   1.359  0.00  0.00    +0.244 C 
ATOM      2  O   UNL     1      -5.372   4.048   2.126  0.00  0.00    -0.270 OA
ATOM      3  N   UNL     1      -3.482   4.157   0.964  0.00  0.00    -0.310 N 
ATOM      4  H   UNL     1      -2.842   4.721   0.270  0.00  0.00    +0.149 HD
ENDROOT
BRANCH   1   9
ATOM      5  C   UNL     1      -6.723   7.767   0.795  0.00  0.00    +0.066 A 
ATOM      6  C   UNL     1      -5.909   8.473  -0.083  0.00  0.00    +0.028 A 
ATOM      7  C   UNL     1      -4.697   7.944  -0.486  0.00  0.00    +0.003 A 
ATOM      8  C   UNL     1      -4.288   6.711  -0.022  0.00  0.00    +0.013 A 
ATOM      9  C   UNL     1      -5.099   5.993   0.859  0.00  0.00    +0.039 A 
ATOM     10  C   UNL     1      -6.324   6.525   1.262  0.00  0.00    +0.040 A 
BRANCH   5  15
ATOM     11  C   UNL     1     -11.475   8.087   2.179  0.00  0.00    +0.067 C 
ATOM     12  C   UNL     1     -10.056   8.436   1.813  0.00  0.00    +0.061 A 
ATOM     13  C   UNL     1      -9.507   9.723   1.794  0.00  0.00    +0.047 A 
ATOM     14  C   UNL     1      -8.210   9.617   1.420  0.00  0.00    +0.042 A 
ATOM     15  N   UNL     1      -7.951   8.308   1.201  0.00  0.00    -0.237 N 
ATOM     16  N   UNL     1      -9.125   7.588   1.458  0.00  0.00    -0.171 NA
ATOM     17  C   UNL     1      -7.232  10.754   1.272  0.00  0.00    +0.066 C 
ENDBRANCH   5  15
ENDBRANCH   1   9
BRANCH   3  18
ATOM     18  C   UNL     1      -3.051   2.848   1.459  0.00  0.00    +0.056 C 
ATOM     19  C   UNL     1      -1.515   2.710   1.350  0.00  0.00    +0.016 C 
ATOM     20  C   UNL     1      -1.329   1.940   0.019  0.00  0.00    +0.044 C 
ATOM     21  N   UNL     1      -2.466   0.983   0.019  0.00  0.00    +0.390 N 
ATOM     22  C   UNL     1      -3.619   1.726   0.570  0.00  0.00    -0.055 C 
ATOM     23  H   UNL     1      -2.244   0.085   0.614  0.00  0.00    -0.081 HD
BRANCH  20  24
ATOM     24  C   UNL     1      -0.014   1.204   0.009  0.00  0.00    +0.293 C 
ATOM     25  O   UNL     1       0.002  -0.004   0.002  0.00  0.00    -0.253 OA
BRANCH  24  26
ATOM     26  O   UNL     1       1.139   1.891   0.001  0.00  0.00    -0.469 OA
ATOM     27  C   UNL     1       2.367   1.117  -0.015  0.00  0.00    +0.280 C 
ENDBRANCH  24  26
ENDBRANCH  20  24
BRANCH  21  28
ATOM     28  C   UNL     1      -2.749   0.502  -1.340  0.00  0.00    -0.074 C 
BRANCH  28  29
ATOM     29  C   UNL     1      -3.746  -0.656  -1.273  0.00  0.00    -0.028 C 
ATOM     30  C   UNL     1      -3.103  -1.842  -0.551  0.00  0.00    +0.002 C 
ATOM     31  C   UNL     1      -4.100  -3.000  -0.484  0.00  0.00    +0.000 C 
ATOM     32  C   UNL     1      -4.491  -3.419  -1.903  0.00  0.00    +0.000 C 
ATOM     33  C   UNL     1      -5.134  -2.234  -2.625  0.00  0.00    +0.000 C 
ATOM     34  C   UNL     1      -4.137  -1.075  -2.692  0.00  0.00    +0.002 C 
ENDBRANCH  28  29
ENDBRANCH  21  28
ENDBRANCH   3  18
TORSDOF 7
