REMARK  Name = ZINC63386400
REMARK  6 active torsions:
REMARK  status: ('A' for Active; 'I' for Inactive)
REMARK    1  A    between atoms: C_1  and  O_2
REMARK    2  A    between atoms: O_2  and  C_3
REMARK    3  A    between atoms: C_9  and  C_12
REMARK    4  A    between atoms: C_12  and  C_13
REMARK    5  A    between atoms: C_13  and  N_14
REMARK    6  A    between atoms: C_15  and  C_17
REMARK                            x       y       z     vdW  Elec       q    Type
REMARK                         _______ _______ _______ _____ _____    ______ ____
ROOT
ATOM      1  C   UNL     1       2.230  -5.598   0.754  0.00  0.00    +0.108 C 
ENDROOT
BRANCH   1   2
ATOM      2  N   UNL     1       1.793  -6.755  -0.031  0.00  0.00    -0.312 N 
ATOM      3  C   UNL     1       2.636  -7.328  -0.912  0.00  0.00    +0.254 C 
ATOM      4  O   UNL     1       3.756  -6.886  -1.055  0.00  0.00    -0.272 OA
ATOM      5  H   UNL     1       0.897  -7.108   0.083  0.00  0.00    +0.149 HD
BRANCH   3   6
ATOM      6  C   UNL     1       2.187  -8.518  -1.720  0.00  0.00    +0.263 C 
ATOM      7  C   UNL     1       1.083  -8.113  -2.726  0.00  0.00    +0.093 C 
ATOM      8  C   UNL     1       1.891  -7.806  -3.972  0.00  0.00    -0.000 A 
ATOM      9  C   UNL     1       1.579  -7.139  -5.136  0.00  0.00    +0.027 A 
ATOM     10  C   UNL     1       2.534  -6.995  -6.128  0.00  0.00    +0.041 A 
ATOM     11  C   UNL     1       3.799  -7.525  -5.945  0.00  0.00    +0.023 A 
ATOM     12  C   UNL     1       4.112  -8.197  -4.782  0.00  0.00    +0.047 A 
ATOM     13  C   UNL     1       3.156  -8.348  -3.780  0.00  0.00    +0.125 A 
ATOM     14  O   UNL     1       3.245  -8.983  -2.574  0.00  0.00    -0.479 OA
ATOM     15 CL   UNL     1       2.145  -6.155  -7.596  0.00  0.00    -0.084 Cl
ENDBRANCH   3   6
ENDBRANCH   1   2
BRANCH   1  16
ATOM     16  C   UNL     1       1.092  -5.144   1.671  0.00  0.00    +0.052 C 
BRANCH  16  23
ATOM     17  C   UNL     1       0.626  -0.619   1.042  0.00  0.00    +0.121 A 
ATOM     18  C   UNL     1       1.202   0.173   2.051  0.00  0.00    +0.047 A 
ATOM     19  C   UNL     1       1.839  -0.358   3.116  0.00  0.00    +0.029 A 
ATOM     20  C   UNL     1       1.947  -1.815   3.248  0.00  0.00    +0.043 A 
ATOM     21  N   UNL     1       2.500  -2.573   4.161  0.00  0.00    -0.380 N 
ATOM     22  C   UNL     1       2.308  -3.978   3.782  0.00  0.00    +0.144 C 
ATOM     23  C   UNL     1       1.541  -3.954   2.479  0.00  0.00    -0.040 C 
ATOM     24  C   UNL     1       1.340  -2.650   2.185  0.00  0.00    +0.002 A 
ATOM     25  C   UNL     1       0.667  -1.972   1.072  0.00  0.00    +0.055 A 
ATOM     26  H   UNL     1       2.961  -2.259   4.955  0.00  0.00    +0.160 HD
BRANCH  17  28
ATOM     27  C   UNL     1      -0.017   1.425   0.010  0.00  0.00    +0.277 C 
ATOM     28  O   UNL     1       0.002  -0.004   0.002  0.00  0.00    -0.495 OA
ENDBRANCH  17  28
ENDBRANCH  16  23
ENDBRANCH   1  16
TORSDOF 5
