REMARK  Name = ZINC08443046
REMARK  7 active torsions:
REMARK  status: ('A' for Active; 'I' for Inactive)
REMARK    1  A    between atoms: C_1  and  C_2
REMARK    2  A    between atoms: C_2  and  C_4
REMARK    3  A    between atoms: C_2  and  N_17
REMARK    4  A    between atoms: N_17  and  C_18
REMARK    5  A    between atoms: C_20  and  N_27
REMARK    6  A    between atoms: C_23  and  N_24
REMARK    7  A    between atoms: C_33  and  C_35
REMARK                            x       y       z     vdW  Elec       q    Type
REMARK                         _______ _______ _______ _____ _____    ______ ____
ROOT
ATOM      1  C   UNL     1       1.038   1.918  -3.154  0.00  0.00    +0.060 A 
ATOM      2  C   UNL     1      -0.110   1.440  -2.536  0.00  0.00    +0.048 A 
ATOM      3  C   UNL     1      -1.253   2.225  -2.500  0.00  0.00    +0.032 A 
ATOM      4  C   UNL     1      -1.243   3.491  -3.074  0.00  0.00    +0.025 A 
ATOM      5  C   UNL     1      -0.100   3.964  -3.688  0.00  0.00    +0.036 A 
ATOM      6  C   UNL     1       1.039   3.182  -3.729  0.00  0.00    +0.147 A 
ENDROOT
BRANCH   3   7
ATOM      7  N   UNL     1      -2.411   1.745  -1.885  0.00  0.00    -0.327 N 
ATOM      8  C   UNL     1      -2.821   0.458  -2.463  0.00  0.00    +0.124 C 
ATOM      9  C   UNL     1      -3.981  -0.120  -1.646  0.00  0.00    +0.127 C 
ATOM     10  N   UNL     1      -5.045   0.892  -1.565  0.00  0.00    -0.294 N 
ATOM     11  C   UNL     1      -4.684   2.248  -1.123  0.00  0.00    +0.127 C 
ATOM     12  C   UNL     1      -3.496   2.733  -1.961  0.00  0.00    +0.124 C 
ATOM     13  C   UNL     1      -6.317   0.586  -1.887  0.00  0.00    +0.249 C 
ATOM     14  O   UNL     1      -6.615  -0.560  -2.162  0.00  0.00    -0.270 OA
BRANCH  13  15
ATOM     15  C   UNL     1      -7.350   1.642  -1.905  0.00  0.00    +0.072 A 
ATOM     16  C   UNL     1      -7.303   2.685  -0.977  0.00  0.00    +0.016 A 
ATOM     17  C   UNL     1      -8.266   3.671  -1.004  0.00  0.00    +0.001 A 
ATOM     18  C   UNL     1      -9.286   3.624  -1.938  0.00  0.00    +0.003 A 
ATOM     19  C   UNL     1      -9.345   2.592  -2.857  0.00  0.00    +0.039 A 
ATOM     20  C   UNL     1      -8.382   1.599  -2.847  0.00  0.00    +0.135 A 
ATOM     21  F   UNL     1      -8.440   0.591  -3.744  0.00  0.00    -0.205 F 
ENDBRANCH  13  15
ENDBRANCH   3   7
BRANCH   6  22
ATOM     22  N   UNL     1       2.262   3.693  -4.388  0.00  0.00    +0.058 N 
ATOM     23  O   UNL     1       2.301   4.841  -4.794  0.00  0.00    -0.126 OA
ATOM     24  O   UNL     1       3.230   2.966  -4.524  0.00  0.00    -0.126 OA
ENDBRANCH   6  22
BRANCH   1  25
ATOM     25  N   UNL     1       2.189   1.129  -3.197  0.00  0.00    -0.339 N 
ATOM     26  H   UNL     1       2.962   1.426  -3.701  0.00  0.00    +0.146 HD
BRANCH  25  28
ATOM     27  C   UNL     1       1.622  -1.245  -3.359  0.00  0.00    +0.028 C 
ATOM     28  C   UNL     1       2.229  -0.149  -2.481  0.00  0.00    +0.074 C 
BRANCH  28  29
ATOM     29  C   UNL     1       3.680  -0.504  -2.152  0.00  0.00    -0.010 C 
ATOM     30  C   UNL     1       4.483  -0.622  -3.449  0.00  0.00    +0.012 C 
ATOM     31  C   UNL     1       5.935  -0.977  -3.120  0.00  0.00    -0.010 C 
ATOM     32  C   UNL     1       5.976  -2.311  -2.372  0.00  0.00    +0.007 C 
ATOM     33  C   UNL     1       5.173  -2.194  -1.075  0.00  0.00    -0.010 C 
ATOM     34  C   UNL     1       3.722  -1.838  -1.404  0.00  0.00    +0.012 C 
ATOM     35  C   UNL     1       5.780  -1.097  -0.197  0.00  0.00    +0.007 C 
ATOM     36  C   UNL     1       5.739   0.237  -0.945  0.00  0.00    -0.010 C 
ATOM     37  C   UNL     1       6.542   0.119  -2.242  0.00  0.00    +0.007 C 
ATOM     38  C   UNL     1       4.287   0.592  -1.274  0.00  0.00    +0.012 C 
ENDBRANCH  28  29
ENDBRANCH  25  28
ENDBRANCH   1  25
TORSDOF 6
