REMARK  Name = ZINC08847554
REMARK  5 active torsions:
REMARK  status: ('A' for Active; 'I' for Inactive)
REMARK    1  A    between atoms: C_1  and  O_2
REMARK    2  A    between atoms: O_2  and  C_3
REMARK    3  A    between atoms: C_6  and  C_9
REMARK    4  A    between atoms: C_18  and  S_22
REMARK    5  A    between atoms: S_22  and  C_25
REMARK                            x       y       z     vdW  Elec       q    Type
REMARK                         _______ _______ _______ _____ _____    ______ ____
ROOT
ATOM      1  C   UNL     1       3.231  -2.606   3.906  0.00  0.00    +0.138 A 
ATOM      2  C   UNL     1       3.098  -3.953   4.044  0.00  0.00    +0.073 A 
ATOM      3  C   UNL     1       3.451  -4.566   5.270  0.00  0.00    +0.055 A 
ATOM      4  N   UNL     1       3.337  -5.880   5.444  0.00  0.00    -0.334 N 
ATOM      5  C   UNL     1       2.701  -6.627   4.524  0.00  0.00    +0.172 A 
ATOM      6  N   UNL     1       2.041  -6.234   3.448  0.00  0.00    -0.223 NA
ATOM      7  C   UNL     1       1.449  -7.107   2.608  0.00  0.00    +0.081 A 
ATOM      8  C   UNL     1       0.717  -6.823   1.431  0.00  0.00    +0.031 A 
ATOM      9  C   UNL     1       0.173  -7.835   0.683  0.00  0.00    +0.029 A 
ATOM     10  C   UNL     1       0.320  -9.165   1.049  0.00  0.00    +0.089 A 
ATOM     11  C   UNL     1       1.030  -9.479   2.194  0.00  0.00    +0.044 A 
ATOM     12  C   UNL     1       1.577  -8.473   2.949  0.00  0.00    +0.043 A 
ATOM     13  S   UNL     1       2.541  -8.405   4.441  0.00  0.00    -0.050 S 
ATOM     14  C   UNL     1       3.953  -3.689   6.348  0.00  0.00    +0.042 A 
ATOM     15  C   UNL     1       4.325  -4.206   7.587  0.00  0.00    +0.033 A 
ATOM     16  C   UNL     1       4.789  -3.354   8.568  0.00  0.00    +0.042 A 
ATOM     17  C   UNL     1       4.885  -1.992   8.323  0.00  0.00    +0.023 A 
ATOM     18  C   UNL     1       4.520  -1.470   7.099  0.00  0.00    +0.048 A 
ATOM     19  C   UNL     1       4.051  -2.312   6.099  0.00  0.00    +0.138 A 
ATOM     20  O   UNL     1       3.693  -1.821   4.893  0.00  0.00    -0.455 OA
ATOM     21 CL   UNL     1       5.255  -3.989  10.116  0.00  0.00    -0.084 Cl
ATOM     22  H   UNL     1       3.711  -6.298   6.235  0.00  0.00    +0.168 HD
ENDROOT
BRANCH   1  26
ATOM     23  C   UNL     1       2.157  -0.818   0.208  0.00  0.00    +0.120 A 
ATOM     24  C   UNL     1       2.638  -0.029   1.245  0.00  0.00    +0.046 A 
ATOM     25  C   UNL     1       2.987  -0.604   2.446  0.00  0.00    +0.015 A 
ATOM     26  C   UNL     1       2.857  -1.985   2.621  0.00  0.00    +0.018 A 
ATOM     27  C   UNL     1       2.373  -2.776   1.575  0.00  0.00    +0.015 A 
ATOM     28  C   UNL     1       2.021  -2.191   0.379  0.00  0.00    +0.046 A 
BRANCH  23  30
ATOM     29  C   UNL     1       1.978   1.169  -1.083  0.00  0.00    +0.277 C 
ATOM     30  O   UNL     1       1.813  -0.246  -0.975  0.00  0.00    -0.495 OA
ENDBRANCH  23  30
ENDBRANCH   1  26
BRANCH  10  31
ATOM     31  S   UNL     1      -0.392 -10.442   0.066  0.00  0.00    -0.006 S 
ATOM     32  O   UNL     1      -0.604 -11.520   0.968  0.00  0.00    -0.170 OA
ATOM     33  O   UNL     1      -1.489  -9.824  -0.593  0.00  0.00    -0.170 OA
ATOM     34  C   UNL     1       0.894 -10.877  -1.137  0.00  0.00    +0.200 C 
ENDBRANCH  10  31
TORSDOF 3
