REMARK  Name = ZINC01202678
REMARK  8 active torsions:
REMARK  status: ('A' for Active; 'I' for Inactive)
REMARK    1  A    between atoms: C_1  and  C_2
REMARK    2  A    between atoms: C_3  and  C_28
REMARK    3  A    between atoms: C_4  and  C_21
REMARK    4  A    between atoms: C_10  and  C_15
REMARK    5  A    between atoms: C_24  and  O_27
REMARK    6  A    between atoms: C_28  and  O_30
REMARK    7  A    between atoms: O_30  and  C_31
REMARK    8  A    between atoms: C_31  and  C_32
REMARK                            x       y       z     vdW  Elec       q    Type
REMARK                         _______ _______ _______ _____ _____    ______ ____
ROOT
ATOM      1  C   UNL     1      -4.897   3.981   0.818  0.00  0.00    +0.061 C 
ATOM      2  C   UNL     1      -3.667   3.208   0.418  0.00  0.00    +0.031 C 
ATOM      3  C   UNL     1      -3.599   1.888   0.664  0.00  0.00    +0.154 C 
ATOM      4  C   UNL     1      -2.398   1.082   0.261  0.00  0.00    +0.073 C 
ATOM      5  C   UNL     1      -1.213   1.976  -0.004  0.00  0.00    +0.025 C 
ATOM      6  C   UNL     1      -1.379   3.302  -0.215  0.00  0.00    +0.049 C 
ATOM      7  N   UNL     1      -2.631   3.854  -0.190  0.00  0.00    -0.260 NA
ATOM      8  C   UNL     1      -0.202   4.193  -0.513  0.00  0.00    +0.064 C 
ATOM      9  C   UNL     1       1.038   3.659   0.205  0.00  0.00    +0.032 C 
ATOM     10  C   UNL     1       1.297   2.225  -0.269  0.00  0.00    +0.088 C 
ATOM     11  C   UNL     1       0.068   1.396  -0.014  0.00  0.00    +0.162 C 
ATOM     12  O   UNL     1       0.184   0.202   0.182  0.00  0.00    -0.292 OA
ENDROOT
BRANCH   9  13
ATOM     13  C   UNL     1       2.227   4.524  -0.126  0.00  0.00    -0.044 A 
ATOM     14  C   UNL     1       2.630   4.672  -1.440  0.00  0.00    +0.004 A 
ATOM     15  C   UNL     1       3.718   5.468  -1.745  0.00  0.00    +0.000 A 
ATOM     16  C   UNL     1       4.409   6.110  -0.734  0.00  0.00    +0.000 A 
ATOM     17  C   UNL     1       4.009   5.958   0.581  0.00  0.00    +0.000 A 
ATOM     18  C   UNL     1       2.918   5.165   0.884  0.00  0.00    +0.004 A 
ENDBRANCH   9  13
BRANCH   4  19
ATOM     19  C   UNL     1      -2.717   0.300  -0.988  0.00  0.00    -0.038 A 
ATOM     20  C   UNL     1      -3.053   0.966  -2.152  0.00  0.00    +0.008 A 
ATOM     21  C   UNL     1      -3.339   0.252  -3.299  0.00  0.00    +0.045 A 
ATOM     22  C   UNL     1      -3.302  -1.135  -3.279  0.00  0.00    +0.117 A 
ATOM     23  C   UNL     1      -2.970  -1.800  -2.108  0.00  0.00    +0.045 A 
ATOM     24  C   UNL     1      -2.678  -1.081  -0.965  0.00  0.00    +0.008 A 
BRANCH  22  25
ATOM     25  O   UNL     1      -3.590  -1.840  -4.405  0.00  0.00    -0.507 OA
ATOM     26  H   UNL     1      -4.526  -2.063  -4.500  0.00  0.00    +0.292 HD
ENDBRANCH  22  25
ENDBRANCH   4  19
BRANCH   3  27
ATOM     27  C   UNL     1      -4.680   1.247   1.312  0.00  0.00    +0.317 C 
ATOM     28  O   UNL     1      -5.604   1.906   1.751  0.00  0.00    -0.250 OA
BRANCH  27  29
ATOM     29  O   UNL     1      -4.687  -0.096   1.444  0.00  0.00    -0.459 OA
BRANCH  29  30
ATOM     30  C   UNL     1      -5.810  -0.677   2.109  0.00  0.00    +0.267 C 
BRANCH  30  31
ATOM     31  C   UNL     1      -5.644  -2.174   2.161  0.00  0.00    -0.010 A 
ATOM     32  C   UNL     1      -6.142  -2.961   1.140  0.00  0.00    +0.007 A 
ATOM     33  C   UNL     1      -5.986  -4.334   1.185  0.00  0.00    +0.000 A 
ATOM     34  C   UNL     1      -5.340  -4.920   2.257  0.00  0.00    +0.000 A 
ATOM     35  C   UNL     1      -4.847  -4.134   3.282  0.00  0.00    +0.000 A 
ATOM     36  C   UNL     1      -4.999  -2.761   3.234  0.00  0.00    +0.007 A 
ENDBRANCH  30  31
ENDBRANCH  29  30
ENDBRANCH  27  29
ENDBRANCH   3  27
TORSDOF 7
