REMARK  Name = ZINC08695364
REMARK  17 active torsions:
REMARK  status: ('A' for Active; 'I' for Inactive)
REMARK    1  A    between atoms: C_1  and  C_2
REMARK    2  A    between atoms: C_2  and  C_3
REMARK    3  A    between atoms: C_3  and  C_4
REMARK    4  A    between atoms: C_4  and  N_70
REMARK    5  A    between atoms: C_5  and  C_6
REMARK    6  A    between atoms: C_5  and  N_70
REMARK    7  A    between atoms: C_6  and  C_7
REMARK    8  A    between atoms: C_7  and  C_8
REMARK    9  A    between atoms: C_9  and  C_10
REMARK   10  A    between atoms: C_9  and  N_70
REMARK   11  A    between atoms: C_10  and  C_11
REMARK   12  A    between atoms: C_11  and  N_12
REMARK   13  A    between atoms: C_13  and  C_29
REMARK   14  A    between atoms: C_15  and  C_20
REMARK   15  A    between atoms: C_16  and  O_19
REMARK   16  A    between atoms: C_20  and  C_22
REMARK   17  A    between atoms: C_33  and  O_35
REMARK                            x       y       z     vdW  Elec       q    Type
REMARK                         _______ _______ _______ _____ _____    ______ ____
ROOT
ATOM      1  N   UNL     1       0.177  -2.506  -3.195  0.00  0.00    -0.284 N 
ATOM      2  C   UNL     1      -0.984  -3.320  -3.573  0.00  0.00    +0.145 C 
ATOM      3  C   UNL     1      -0.757  -4.685  -2.966  0.00  0.00    +0.071 C 
ATOM      4  C   UNL     1       0.426  -4.630  -2.311  0.00  0.00    +0.188 C 
ATOM      5  C   UNL     1       1.002  -3.277  -2.462  0.00  0.00    +0.282 C 
ATOM      6  O   UNL     1       2.061  -2.914  -1.992  0.00  0.00    -0.267 OA
ENDROOT
BRANCH   2   7
ATOM      7  C   UNL     1      -2.246  -2.709  -3.020  0.00  0.00    -0.019 A 
ATOM      8  C   UNL     1      -2.304  -2.324  -1.693  0.00  0.00    +0.006 A 
ATOM      9  C   UNL     1      -3.458  -1.759  -1.185  0.00  0.00    +0.004 A 
ATOM     10  C   UNL     1      -4.562  -1.588  -1.998  0.00  0.00    +0.045 A 
ATOM     11  C   UNL     1      -4.509  -1.979  -3.328  0.00  0.00    +0.117 A 
ATOM     12  C   UNL     1      -3.347  -2.541  -3.838  0.00  0.00    +0.051 A 
BRANCH  11  13
ATOM     13  O   UNL     1      -5.592  -1.811  -4.131  0.00  0.00    -0.507 OA
ATOM     14  H   UNL     1      -6.196  -2.567  -4.139  0.00  0.00    +0.292 HD
ENDBRANCH  11  13
ENDBRANCH   2   7
BRANCH   4  15
ATOM     15  O   UNL     1       0.993  -5.652  -1.630  0.00  0.00    -0.502 OA
ATOM     16  H   UNL     1       1.863  -5.350  -1.240  0.00  0.00    +0.292 HD
ENDBRANCH   4  15
BRANCH   3  17
ATOM     17  C   UNL     1      -1.648  -5.846  -3.068  0.00  0.00    +0.195 C 
ATOM     18  O   UNL     1      -2.199  -6.278  -2.073  0.00  0.00    -0.287 OA
BRANCH  17  19
ATOM     19  C   UNL     1      -1.875  -6.490  -4.377  0.00  0.00    +0.022 A 
ATOM     20  C   UNL     1      -1.186  -6.043  -5.508  0.00  0.00    +0.014 A 
ATOM     21  C   UNL     1      -1.399  -6.651  -6.726  0.00  0.00    +0.039 A 
ATOM     22  C   UNL     1      -2.302  -7.699  -6.833  0.00  0.00    +0.123 A 
ATOM     23  C   UNL     1      -2.992  -8.143  -5.715  0.00  0.00    +0.039 A 
ATOM     24  C   UNL     1      -2.783  -7.546  -4.491  0.00  0.00    +0.014 A 
ATOM     25  F   UNL     1      -2.509  -8.288  -8.031  0.00  0.00    -0.205 F 
ENDBRANCH  17  19
ENDBRANCH   3  17
BRANCH   1  26
ATOM     26  C   UNL     1       0.402  -1.105  -3.557  0.00  0.00    +0.107 C 
BRANCH  26  27
ATOM     27  C   UNL     1      -0.203  -0.197  -2.484  0.00  0.00    +0.000 C 
BRANCH  27  28
ATOM     28  C   UNL     1       0.032   1.266  -2.862  0.00  0.00    -0.077 C 
BRANCH  28  29
ATOM     29  N   UNL     1      -0.576   2.130  -1.828  0.00  0.00    +0.380 N 
ATOM     30  H   UNL     1      -1.551   1.840  -1.683  0.00  0.00    -0.082 HD
BRANCH  29  31
ATOM     31  C   UNL     1       0.161   1.988  -0.555  0.00  0.00    -0.079 C 
BRANCH  31  32
ATOM     32  C   UNL     1      -0.728   2.492   0.584  0.00  0.00    -0.019 C 
BRANCH  32  34
ATOM     33  C   UNL     1      -0.861   2.881   3.049  0.00  0.00    +0.004 C 
ATOM     34  C   UNL     1       0.028   2.377   1.910  0.00  0.00    -0.005 C 
ENDBRANCH  32  34
ENDBRANCH  31  32
ENDBRANCH  29  31
BRANCH  29  35
ATOM     35  C   UNL     1      -0.554   3.540  -2.271  0.00  0.00    -0.079 C 
BRANCH  35  36
ATOM     36  C   UNL     1      -1.611   3.729  -3.361  0.00  0.00    -0.019 C 
BRANCH  36  37
ATOM     37  C   UNL     1      -1.702   5.211  -3.731  0.00  0.00    -0.005 C 
ATOM     38  C   UNL     1      -2.759   5.400  -4.821  0.00  0.00    +0.004 C 
ENDBRANCH  36  37
ENDBRANCH  35  36
ENDBRANCH  29  35
ENDBRANCH  28  29
ENDBRANCH  27  28
ENDBRANCH  26  27
ENDBRANCH   1  26
TORSDOF 15
