REMARK  Name = ZINC27347389
REMARK  4 active torsions:
REMARK  status: ('A' for Active; 'I' for Inactive)
REMARK    1  A    between atoms: N_7  and  C_11
REMARK    2  A    between atoms: C_11  and  C_12
REMARK    3  A    between atoms: C_21  and  S_23
REMARK    4  A    between atoms: S_23  and  N_26
REMARK                            x       y       z     vdW  Elec       q    Type
REMARK                         _______ _______ _______ _____ _____    ______ ____
ROOT
ATOM      1  C   UNL     1      -8.350   1.024  -0.663  0.00  0.00    +0.237 C 
ATOM      2  O   UNL     1      -8.062   1.186  -1.830  0.00  0.00    -0.274 OA
ATOM      3  N   UNL     1      -7.544   1.507   0.303  0.00  0.00    -0.270 N 
ATOM      4  C   UNL     1      -7.786   1.375   1.743  0.00  0.00    +0.118 C 
ATOM      5  C   UNL     1      -6.599   2.082   2.417  0.00  0.00    +0.056 C 
ATOM      6  C   UNL     1      -5.748   2.576   1.269  0.00  0.00    -0.023 A 
ATOM      7  C   UNL     1      -6.355   2.208   0.079  0.00  0.00    +0.040 A 
ATOM      8  C   UNL     1      -5.748   2.558  -1.128  0.00  0.00    +0.026 A 
ATOM      9  C   UNL     1      -4.565   3.265  -1.132  0.00  0.00    +0.030 A 
ATOM     10  C   UNL     1      -3.964   3.623   0.061  0.00  0.00    +0.106 A 
ATOM     11  C   UNL     1      -4.559   3.280   1.261  0.00  0.00    +0.034 A 
ENDROOT
BRANCH  10  12
ATOM     12  S   UNL     1      -2.448   4.521   0.051  0.00  0.00    +0.061 S 
ATOM     13  O   UNL     1      -2.377   5.212   1.291  0.00  0.00    -0.153 OA
ATOM     14  O   UNL     1      -2.380   5.191  -1.200  0.00  0.00    -0.153 OA
BRANCH  12  15
ATOM     15  N   UNL     1      -1.220   3.409   0.059  0.00  0.00    -0.177 NA
ATOM     16  C   UNL     1      -0.667   2.896  -1.202  0.00  0.00    +0.109 C 
ATOM     17  C   UNL     1      -0.716   1.365  -1.175  0.00  0.00    +0.017 C 
ATOM     18  C   UNL     1       0.001   0.858   0.079  0.00  0.00    +0.003 C 
ATOM     19  C   UNL     1      -0.713   1.386   1.325  0.00  0.00    +0.017 C 
ATOM     20  C   UNL     1      -0.664   2.917   1.327  0.00  0.00    +0.109 C 
ENDBRANCH  12  15
ENDBRANCH  10  12
BRANCH   1  21
ATOM     21  C   UNL     1      -9.609   0.282  -0.293  0.00  0.00    +0.201 C 
BRANCH  21  28
ATOM     22  C   UNL     1      -7.798  -2.711  -2.169  0.00  0.00    +0.002 A 
ATOM     23  C   UNL     1      -7.913  -2.909  -3.532  0.00  0.00    +0.001 A 
ATOM     24  C   UNL     1      -8.828  -2.170  -4.255  0.00  0.00    +0.016 A 
ATOM     25  C   UNL     1      -9.632  -1.231  -3.620  0.00  0.00    +0.029 A 
ATOM     26  C   UNL     1      -9.533  -1.035  -2.247  0.00  0.00    +0.044 A 
ATOM     27  C   UNL     1      -8.598  -1.787  -1.531  0.00  0.00    +0.024 A 
ATOM     28  N   UNL     1     -10.306  -0.139  -1.516  0.00  0.00    -0.319 N 
ATOM     29  C   UNL     1     -10.836   1.010  -2.236  0.00  0.00    +0.116 C 
ATOM     30  C   UNL     1     -11.796   0.521  -3.334  0.00  0.00    +0.093 C 
ATOM     31  S   UNL     1     -10.768  -0.294  -4.596  0.00  0.00    -0.122 S 
ENDBRANCH  21  28
ENDBRANCH   1  21
TORSDOF 4
