REMARK  Name = ZINC04288162
REMARK  14 active torsions:
REMARK  status: ('A' for Active; 'I' for Inactive)
REMARK    1  A    between atoms: C_1  and  C_2
REMARK    2  A    between atoms: C_2  and  O_3
REMARK    3  A    between atoms: O_3  and  C_4
REMARK    4  A    between atoms: C_4  and  C_6
REMARK    5  A    between atoms: C_8  and  C_29
REMARK    6  A    between atoms: C_9  and  C_24
REMARK    7  A    between atoms: C_11  and  C_19
REMARK    8  A    between atoms: C_11  and  O_23
REMARK    9  A    between atoms: C_13  and  C_14
REMARK   10  A    between atoms: C_13  and  O_18
REMARK   11  A    between atoms: C_24  and  O_26
REMARK   12  A    between atoms: O_26  and  C_27
REMARK   13  A    between atoms: C_27  and  C_28
REMARK   14  A    between atoms: C_33  and  N_35
REMARK                            x       y       z     vdW  Elec       q    Type
REMARK                         _______ _______ _______ _____ _____    ______ ____
ROOT
ATOM      1  C   UNL     1       3.574  -1.850  -1.276  0.00  0.00    +0.162 C 
ATOM      2  C   UNL     1       3.664  -0.821  -0.145  0.00  0.00    +0.055 C 
ATOM      3  C   UNL     1       3.939  -1.547   1.174  0.00  0.00    +0.162 C 
ATOM      4  C   UNL     1       2.829  -2.569   1.429  0.00  0.00    +0.230 C 
ATOM      5  N   UNL     1       2.784  -3.531   0.321  0.00  0.00    -0.245 NA
ATOM      6  C   UNL     1       2.474  -2.863  -0.950  0.00  0.00    +0.230 C 
ATOM      7  H   UNL     1       3.647  -4.049   0.256  0.00  0.00    +0.128 HD
ENDROOT
BRANCH   2   8
ATOM      8  C   UNL     1       2.363  -0.068  -0.044  0.00  0.00    -0.040 A 
ATOM      9  C   UNL     1       1.762   0.112   1.188  0.00  0.00    +0.005 A 
ATOM     10  C   UNL     1       0.569   0.802   1.281  0.00  0.00    +0.022 A 
ATOM     11  C   UNL     1      -0.025   1.314   0.141  0.00  0.00    +0.071 A 
ATOM     12  C   UNL     1       0.576   1.134  -1.092  0.00  0.00    +0.145 A 
ATOM     13  C   UNL     1       1.770   0.443  -1.184  0.00  0.00    +0.038 A 
ATOM     14 CL   UNL     1      -1.528   2.175   0.256  0.00  0.00    -0.081 Cl
BRANCH  12  15
ATOM     15  N   UNL     1      -0.058   1.681  -2.312  0.00  0.00    +0.058 N 
ATOM     16  O   UNL     1       0.471   1.523  -3.397  0.00  0.00    -0.126 OA
ATOM     17  O   UNL     1      -1.110   2.289  -2.231  0.00  0.00    -0.126 OA
ENDBRANCH  12  15
ENDBRANCH   2   8
BRANCH   6  18
ATOM     18  C   UNL     1       2.394  -3.905  -2.067  0.00  0.00    +0.433 C 
ATOM     19  F   UNL     1       1.309  -4.757  -1.833  0.00  0.00    -0.166 F 
ATOM     20  F   UNL     1       2.223  -3.259  -3.296  0.00  0.00    -0.166 F 
ATOM     21  F   UNL     1       3.576  -4.653  -2.094  0.00  0.00    -0.166 F 
ENDBRANCH   6  18
BRANCH   4  22
ATOM     22  C   UNL     1       3.110  -3.311   2.737  0.00  0.00    +0.433 C 
ATOM     23  F   UNL     1       2.938  -2.437   3.816  0.00  0.00    -0.166 F 
ATOM     24  F   UNL     1       2.224  -4.387   2.863  0.00  0.00    -0.166 F 
ATOM     25  F   UNL     1       4.425  -3.789   2.729  0.00  0.00    -0.166 F 
ENDBRANCH   4  22
BRANCH   1  26
ATOM     26  C   UNL     1       4.893  -2.565  -1.412  0.00  0.00    +0.315 C 
ATOM     27  O   UNL     1       5.297  -3.263  -0.512  0.00  0.00    -0.250 OA
BRANCH  26  28
ATOM     28  O   UNL     1       5.619  -2.427  -2.532  0.00  0.00    -0.465 OA
BRANCH  28  30
ATOM     29  C   UNL     1       7.560  -2.867  -3.936  0.00  0.00    +0.048 C 
ATOM     30  C   UNL     1       6.880  -3.145  -2.594  0.00  0.00    +0.229 C 
ENDBRANCH  28  30
ENDBRANCH  26  28
ENDBRANCH   1  26
BRANCH   6  31
ATOM     31  O   UNL     1       1.220  -2.187  -0.839  0.00  0.00    -0.366 OA
ATOM     32  H   UNL     1       0.490  -2.755  -0.560  0.00  0.00    +0.212 HD
ENDBRANCH   6  31
BRANCH   4  33
ATOM     33  O   UNL     1       1.573  -1.894   1.525  0.00  0.00    -0.366 OA
ATOM     34  H   UNL     1       0.814  -2.487   1.611  0.00  0.00    +0.212 HD
ENDBRANCH   4  33
BRANCH   3  35
ATOM     35  C   UNL     1       3.971  -0.547   2.301  0.00  0.00    +0.315 C 
ATOM     36  O   UNL     1       3.774   0.624   2.076  0.00  0.00    -0.250 OA
BRANCH  35  37
ATOM     37  O   UNL     1       4.218  -0.957   3.555  0.00  0.00    -0.465 OA
BRANCH  37  38
ATOM     38  C   UNL     1       4.233   0.061   4.591  0.00  0.00    +0.229 C 
ATOM     39  C   UNL     1       4.529  -0.591   5.943  0.00  0.00    +0.048 C 
ENDBRANCH  37  38
ENDBRANCH  35  37
ENDBRANCH   3  35
TORSDOF 12
