REMARK  Name = ZINC31659479
REMARK  11 active torsions:
REMARK  status: ('A' for Active; 'I' for Inactive)
REMARK    1  A    between atoms: C_1  and  C_2
REMARK    2  A    between atoms: C_4  and  C_16
REMARK    3  A    between atoms: C_5  and  C_15
REMARK    4  A    between atoms: N_6  and  C_7
REMARK    5  A    between atoms: C_7  and  C_8
REMARK    6  A    between atoms: C_8  and  C_9
REMARK    7  A    between atoms: C_16  and  C_18
REMARK    8  A    between atoms: C_18  and  N_19
REMARK    9  A    between atoms: C_22  and  C_26
REMARK   10  A    between atoms: C_22  and  C_27
REMARK   11  A    between atoms: C_31  and  N_33
REMARK                            x       y       z     vdW  Elec       q    Type
REMARK                         _______ _______ _______ _____ _____    ______ ____
ROOT
ATOM      1  C   UNL     1       0.035  -3.269  -2.951  0.00  0.00    +0.197 C 
ENDROOT
BRANCH   1   2
ATOM      2  N   UNL     1       0.052  -4.611  -3.539  0.00  0.00    -0.216 N 
ATOM      3  C   UNL     1       1.175  -5.291  -3.842  0.00  0.00    +0.251 C 
ATOM      4  O   UNL     1       2.319  -4.922  -3.687  0.00  0.00    -0.272 OA
ATOM      5  C   UNL     1       0.710  -6.613  -4.419  0.00  0.00    +0.135 C 
ATOM      6  N   UNL     1      -0.759  -6.516  -4.368  0.00  0.00    -0.281 N 
ATOM      7  C   UNL     1      -1.047  -5.314  -3.836  0.00  0.00    +0.310 C 
ATOM      8  O   UNL     1      -2.178  -4.912  -3.648  0.00  0.00    -0.252 OA
ATOM      9  C   UNL     1       1.202  -7.778  -3.558  0.00  0.00    +0.047 C 
ATOM     10  H   UNL     1      -1.395  -7.188  -4.659  0.00  0.00    +0.152 HD
BRANCH   5  11
ATOM     11  C   UNL     1       1.183  -6.767  -5.841  0.00  0.00    -0.013 A 
ATOM     12  C   UNL     1       2.366  -6.177  -6.244  0.00  0.00    +0.006 A 
ATOM     13  C   UNL     1       2.800  -6.318  -7.549  0.00  0.00    +0.003 A 
ATOM     14  C   UNL     1       2.050  -7.050  -8.451  0.00  0.00    +0.033 A 
ATOM     15  C   UNL     1       0.867  -7.641  -8.048  0.00  0.00    +0.127 A 
ATOM     16  C   UNL     1       0.435  -7.503  -6.742  0.00  0.00    +0.039 A 
BRANCH  15  17
ATOM     17  N   UNL     1       0.064  -8.424  -9.014  0.00  0.00    +0.056 N 
ATOM     18  O   UNL     1       0.443  -8.546 -10.156  0.00  0.00    -0.126 OA
ATOM     19  O   UNL     1      -0.971  -8.940  -8.662  0.00  0.00    -0.126 OA
ENDBRANCH  15  17
ENDBRANCH   5  11
ENDBRANCH   1   2
BRANCH   1  20
ATOM     20  C   UNL     1       0.043  -3.379  -1.448  0.00  0.00    +0.183 C 
ATOM     21  O   UNL     1       0.060  -4.471  -0.920  0.00  0.00    -0.290 OA
BRANCH  20  25
ATOM     22  C   UNL     1      -0.018   1.503   0.010  0.00  0.00    +0.063 C 
ATOM     23  C   UNL     1       0.002  -0.004   0.002  0.00  0.00    +0.017 A 
ATOM     24  C   UNL     1       0.008  -0.777  -1.097  0.00  0.00    +0.034 A 
ATOM     25  C   UNL     1       0.030  -2.167  -0.625  0.00  0.00    +0.040 A 
ATOM     26  C   UNL     1       0.035  -2.098   0.755  0.00  0.00    +0.026 A 
ATOM     27  N   UNL     1       0.023  -0.801   1.110  0.00  0.00    -0.347 N 
ATOM     28  C   UNL     1       0.056  -3.273   1.700  0.00  0.00    +0.064 C 
BRANCH  27  29
ATOM     29  C   UNL     1       0.029  -0.312   2.491  0.00  0.00    +0.126 C 
BRANCH  29  30
ATOM     30  C   UNL     1      -1.411  -0.163   2.985  0.00  0.00    +0.052 C 
BRANCH  30  31
ATOM     31  C   UNL     1      -1.405   0.340   4.406  0.00  0.00    -0.072 C 
ATOM     32  C   UNL     1      -1.527   1.614   4.599  0.00  0.00    -0.028 C 
ATOM     33  C   UNL     1      -1.528   2.263   5.952  0.00  0.00    +0.027 C 
ATOM     34  C   UNL     1      -1.794   1.218   7.038  0.00  0.00    +0.004 C 
ATOM     35  C   UNL     1      -0.852   0.029   6.808  0.00  0.00    +0.005 C 
ATOM     36  C   UNL     1      -1.265  -0.668   5.508  0.00  0.00    +0.030 C 
ENDBRANCH  30  31
ENDBRANCH  29  30
ENDBRANCH  27  29
ENDBRANCH  20  25
ENDBRANCH   1  20
TORSDOF 8
