REMARK  Name = ZINC39850235
REMARK  6 active torsions:
REMARK  status: ('A' for Active; 'I' for Inactive)
REMARK    1  A    between atoms: C_4  and  N_7
REMARK    2  A    between atoms: C_9  and  C_21
REMARK    3  A    between atoms: C_10  and  C_12
REMARK    4  A    between atoms: C_22  and  C_23
REMARK    5  A    between atoms: C_22  and  C_25
REMARK    6  A    between atoms: N_27  and  C_28
REMARK                            x       y       z     vdW  Elec       q    Type
REMARK                         _______ _______ _______ _____ _____    ______ ____
ROOT
ATOM      1  N   UNL     1       3.372  -0.873  -0.436  0.00  0.00    -0.239 N 
ATOM      2  C   UNL     1       3.636  -2.162  -0.165  0.00  0.00    +0.123 A 
ATOM      3  C   UNL     1       5.005  -2.347  -0.282  0.00  0.00    +0.022 A 
ATOM      4  C   UNL     1       5.566  -1.041  -0.654  0.00  0.00    +0.100 A 
ATOM      5  N   UNL     1       4.559  -0.201  -0.740  0.00  0.00    -0.166 NA
ENDROOT
BRANCH   4   6
ATOM      6  C   UNL     1       6.994  -0.731  -0.895  0.00  0.00    +0.006 A 
ATOM      7  C   UNL     1       7.983  -1.372  -0.149  0.00  0.00    +0.014 A 
ATOM      8  C   UNL     1       9.313  -1.083  -0.374  0.00  0.00    +0.050 A 
ATOM      9  C   UNL     1       9.672  -0.155  -1.341  0.00  0.00    +0.166 A 
ATOM     10  C   UNL     1       8.687   0.489  -2.089  0.00  0.00    +0.167 A 
ATOM     11  C   UNL     1       7.353   0.198  -1.871  0.00  0.00    +0.059 A 
ATOM     12  O   UNL     1       9.294   1.345  -2.963  0.00  0.00    -0.453 OA
ATOM     13  C   UNL     1      10.633   1.520  -2.463  0.00  0.00    +0.466 C 
ATOM     14  O   UNL     1      10.894   0.298  -1.748  0.00  0.00    -0.453 OA
ENDBRANCH   4   6
BRANCH   1  18
ATOM     15  C   UNL     1      -0.420   0.857  -0.399  0.00  0.00    +0.000 A 
ATOM     16  C   UNL     1       0.686   1.625  -0.714  0.00  0.00    +0.002 A 
ATOM     17  C   UNL     1       1.944   1.054  -0.728  0.00  0.00    +0.028 A 
ATOM     18  C   UNL     1       2.098  -0.292  -0.423  0.00  0.00    +0.065 A 
ATOM     19  C   UNL     1       0.985  -1.060  -0.107  0.00  0.00    +0.028 A 
ATOM     20  C   UNL     1      -0.270  -0.484  -0.096  0.00  0.00    +0.002 A 
ENDBRANCH   1  18
BRANCH   3  21
ATOM     21  C   UNL     1       5.721  -3.555  -0.082  0.00  0.00    +0.035 C 
ATOM     22  C   UNL     1       5.132  -4.602   0.598  0.00  0.00    +0.114 C 
BRANCH  22  23
ATOM     23  C   UNL     1       5.810  -5.904   0.673  0.00  0.00    +0.255 C 
ATOM     24  O   UNL     1       6.890  -6.059   0.135  0.00  0.00    -0.269 OA
ATOM     25  N   UNL     1       5.235  -6.926   1.337  0.00  0.00    -0.308 N 
ATOM     26  H   UNL     1       4.374  -6.803   1.766  0.00  0.00    +0.149 HD
BRANCH  25  27
ATOM     27  C   UNL     1       5.911  -8.224   1.411  0.00  0.00    +0.073 C 
ATOM     28  C   UNL     1       5.581  -9.043   0.162  0.00  0.00    +0.022 C 
ATOM     29  C   UNL     1       6.286 -10.398   0.239  0.00  0.00    +0.002 C 
ATOM     30  C   UNL     1       5.810 -11.151   1.483  0.00  0.00    +0.000 C 
ATOM     31  C   UNL     1       6.140 -10.332   2.732  0.00  0.00    +0.002 C 
ATOM     32  C   UNL     1       5.434  -8.977   2.655  0.00  0.00    +0.022 C 
ENDBRANCH  25  27
ENDBRANCH  22  23
BRANCH  22  33
ATOM     33  C   UNL     1       3.861  -4.420   1.232  0.00  0.00    +0.104 C 
ATOM     34  N   UNL     1       2.852  -4.275   1.734  0.00  0.00    -0.191 NA
ENDBRANCH  22  33
ENDBRANCH   3  21
TORSDOF 6
