REMARK  Name = ZINC11289968
REMARK  10 active torsions:
REMARK  status: ('A' for Active; 'I' for Inactive)
REMARK    1  A    between atoms: C_1  and  C_2
REMARK    2  A    between atoms: C_4  and  S_27
REMARK    3  A    between atoms: C_6  and  N_9
REMARK    4  A    between atoms: C_7  and  C_8
REMARK    5  A    between atoms: C_10  and  C_12
REMARK    6  A    between atoms: C_12  and  N_13
REMARK    7  A    between atoms: C_21  and  C_23
REMARK    8  A    between atoms: S_27  and  N_30
REMARK    9  A    between atoms: N_30  and  C_31
REMARK   10  A    between atoms: N_30  and  C_32
REMARK                            x       y       z     vdW  Elec       q    Type
REMARK                         _______ _______ _______ _____ _____    ______ ____
ROOT
ATOM      1  N   UNL     1      -3.409   0.315   6.847  0.00  0.00    -0.284 N 
ATOM      2  C   UNL     1      -2.969   0.344   5.573  0.00  0.00    +0.235 C 
ATOM      3  O   UNL     1      -1.779   0.382   5.343  0.00  0.00    -0.274 OA
ATOM      4  H   UNL     1      -4.359   0.366   7.033  0.00  0.00    +0.155 HD
ENDROOT
BRANCH   1  10
ATOM      5  C   UNL     1      -2.289   1.095  11.570  0.00  0.00    +0.044 C 
ATOM      6  C   UNL     1      -1.925   0.583  10.200  0.00  0.00    -0.044 A 
ATOM      7  C   UNL     1      -0.685   0.010   9.984  0.00  0.00    +0.032 A 
ATOM      8  C   UNL     1      -0.346  -0.460   8.729  0.00  0.00    +0.107 A 
ATOM      9  C   UNL     1      -1.247  -0.361   7.686  0.00  0.00    +0.052 A 
ATOM     10  C   UNL     1      -2.494   0.213   7.900  0.00  0.00    +0.038 A 
ATOM     11  C   UNL     1      -2.828   0.690   9.161  0.00  0.00    -0.026 A 
ATOM     12  C   UNL     1      -4.177   1.320   9.396  0.00  0.00    +0.046 C 
BRANCH   8  13
ATOM     13  S   UNL     1       1.235  -1.188   8.459  0.00  0.00    +0.060 S 
ATOM     14  O   UNL     1       1.688  -1.657   9.721  0.00  0.00    -0.153 OA
ATOM     15  O   UNL     1       1.102  -2.043   7.332  0.00  0.00    -0.153 OA
BRANCH  13  16
ATOM     16  N   UNL     1       2.264   0.029   8.009  0.00  0.00    -0.183 NA
ATOM     17  C   UNL     1       3.018   0.764   9.028  0.00  0.00    +0.131 C 
ATOM     18  C   UNL     1       2.421   0.371   6.594  0.00  0.00    +0.131 C 
ENDBRANCH  13  16
ENDBRANCH   8  13
ENDBRANCH   1  10
BRANCH   2  19
ATOM     19  C   UNL     1      -3.956   0.328   4.434  0.00  0.00    +0.214 C 
BRANCH  19  20
ATOM     20  N   UNL     1      -3.234   0.365   3.161  0.00  0.00    -0.215 N 
ATOM     21  C   UNL     1      -2.893   1.499   2.515  0.00  0.00    +0.247 C 
ATOM     22  O   UNL     1      -3.117   2.638   2.864  0.00  0.00    -0.273 OA
ATOM     23  C   UNL     1      -2.172   1.051   1.265  0.00  0.00    +0.115 C 
ATOM     24  C   UNL     1      -2.919   1.520   0.021  0.00  0.00    +0.035 C 
ATOM     25  C   UNL     1      -2.191   1.025  -1.231  0.00  0.00    +0.003 C 
ATOM     26  C   UNL     1      -0.761   1.571  -1.237  0.00  0.00    +0.000 C 
ATOM     27  C   UNL     1      -0.018   1.075   0.004  0.00  0.00    +0.006 C 
ATOM     28  C   UNL     1      -0.738   1.570   1.261  0.00  0.00    +0.018 C 
ATOM     29  C   UNL     1      -0.006   1.058   2.503  0.00  0.00    +0.010 C 
ATOM     30  N   UNL     1      -2.187  -0.415   1.351  0.00  0.00    -0.285 N 
ATOM     31  C   UNL     1      -2.829  -0.723   2.493  0.00  0.00    +0.310 C 
ATOM     32  O   UNL     1      -3.021  -1.861   2.876  0.00  0.00    -0.252 OA
ATOM     33  H   UNL     1      -1.808  -1.039   0.711  0.00  0.00    +0.151 HD
ENDBRANCH  19  20
ENDBRANCH   2  19
TORSDOF 5
