REMARK  Name = ZINC44550596
REMARK  5 active torsions:
REMARK  status: ('A' for Active; 'I' for Inactive)
REMARK    1  A    between atoms: C_4  and  O_7
REMARK    2  A    between atoms: O_7  and  C_8
REMARK    3  A    between atoms: C_8  and  C_19
REMARK    4  A    between atoms: C_9  and  C_10
REMARK    5  A    between atoms: C_14  and  N_16
REMARK                            x       y       z     vdW  Elec       q    Type
REMARK                         _______ _______ _______ _____ _____    ______ ____
ROOT
ATOM      1  C   UNL     1       3.405  -2.067  -0.254  0.00  0.00    +0.171 C 
ATOM      2  C   UNL     1       2.174  -2.446   0.152  0.00  0.00    +0.058 C 
ENDROOT
BRANCH   1   3
ATOM      3  C   UNL     1       4.446  -3.079  -0.490  0.00  0.00    +0.175 A 
ATOM      4  N   UNL     1       5.771  -2.810  -0.725  0.00  0.00    -0.335 N 
ATOM      5  H   UNL     1       6.183  -1.933  -0.764  0.00  0.00    +0.167 HD
ATOM      6  C   UNL     1       6.406  -4.024  -0.895  0.00  0.00    +0.067 A 
ATOM      7  C   UNL     1       7.718  -4.397  -1.155  0.00  0.00    +0.028 A 
ATOM      8  C   UNL     1       8.039  -5.733  -1.272  0.00  0.00    +0.002 A 
ATOM      9  C   UNL     1       7.060  -6.707  -1.132  0.00  0.00    +0.002 A 
ATOM     10  C   UNL     1       5.764  -6.361  -0.876  0.00  0.00    +0.030 A 
ATOM     11  C   UNL     1       5.413  -5.011  -0.753  0.00  0.00    +0.090 A 
ATOM     12  N   UNL     1       4.250  -4.377  -0.504  0.00  0.00    -0.225 NA
ENDBRANCH   1   3
BRANCH   2  13
ATOM     13  C   UNL     1       1.935  -3.834   0.578  0.00  0.00    -0.019 A 
ATOM     14  C   UNL     1       2.845  -4.477   1.424  0.00  0.00    +0.008 A 
ATOM     15  C   UNL     1       2.614  -5.777   1.819  0.00  0.00    +0.003 A 
ATOM     16  C   UNL     1       1.485  -6.447   1.380  0.00  0.00    +0.033 A 
ATOM     17  C   UNL     1       0.580  -5.819   0.543  0.00  0.00    +0.127 A 
ATOM     18  C   UNL     1       0.794  -4.516   0.144  0.00  0.00    +0.040 A 
BRANCH  17  19
ATOM     19  N   UNL     1      -0.624  -6.544   0.080  0.00  0.00    +0.056 N 
ATOM     20  O   UNL     1      -0.816  -7.685   0.432  0.00  0.00    -0.126 OA
ATOM     21  O   UNL     1      -1.416  -5.997  -0.651  0.00  0.00    -0.126 OA
ENDBRANCH  17  19
ENDBRANCH   2  13
BRANCH   1  22
ATOM     22  O   UNL     1       3.682  -0.751  -0.444  0.00  0.00    -0.452 OA
BRANCH  22  26
ATOM     23  C   UNL     1       4.529   0.517  -4.277  0.00  0.00    +0.000 A 
ATOM     24  C   UNL     1       4.285  -0.822  -4.031  0.00  0.00    +0.004 A 
ATOM     25  C   UNL     1       4.002  -1.249  -2.748  0.00  0.00    +0.046 A 
ATOM     26  C   UNL     1       3.962  -0.333  -1.706  0.00  0.00    +0.129 A 
ATOM     27  C   UNL     1       4.207   1.010  -1.956  0.00  0.00    +0.046 A 
ATOM     28  C   UNL     1       4.490   1.431  -3.241  0.00  0.00    +0.004 A 
ENDBRANCH  22  26
ENDBRANCH   1  22
TORSDOF 5
