REMARK  Name = ZINC21185153
REMARK  12 active torsions:
REMARK  status: ('A' for Active; 'I' for Inactive)
REMARK    1  A    between atoms: C_1  and  C_2
REMARK    2  A    between atoms: C_2  and  C_4
REMARK    3  A    between atoms: C_2  and  S_14
REMARK    4  A    between atoms: N_6  and  C_7
REMARK    5  A    between atoms: N_6  and  C_8
REMARK    6  A    between atoms: S_14  and  C_15
REMARK    7  A    between atoms: N_28  and  C_29
REMARK    8  A    between atoms: C_29  and  C_30
REMARK    9  A    between atoms: C_30  and  C_31
REMARK   10  A    between atoms: C_31  and  N_32
REMARK   11  A    between atoms: N_32  and  C_33
REMARK   12  A    between atoms: N_32  and  C_34
REMARK                            x       y       z     vdW  Elec       q    Type
REMARK                         _______ _______ _______ _____ _____    ______ ____
ROOT
ATOM      1  C   UNL     1      -0.374  -0.106   3.001  0.00  0.00    +0.173 A 
ATOM      2  N   UNL     1       0.246  -0.573   4.066  0.00  0.00    -0.216 NA
ATOM      3  C   UNL     1       1.225   0.117   4.639  0.00  0.00    +0.117 A 
ATOM      4  C   UNL     1       1.650   1.362   4.147  0.00  0.00    +0.076 A 
ATOM      5  C   UNL     1       2.739   2.004   4.886  0.00  0.00    -0.023 A 
ATOM      6  C   UNL     1       3.224   1.344   5.957  0.00  0.00    -0.004 A 
ATOM      7  S   UNL     1       2.274  -0.150   6.046  0.00  0.00    -0.073 S 
ATOM      8  C   UNL     1       4.327   1.783   6.871  0.00  0.00    +0.043 C 
ATOM      9  C   UNL     1       5.087   2.933   6.195  0.00  0.00    +0.005 C 
ATOM     10  C   UNL     1       4.071   3.950   5.667  0.00  0.00    +0.005 C 
ATOM     11  C   UNL     1       3.314   3.358   4.478  0.00  0.00    +0.037 C 
ATOM     12  C   UNL     1       0.963   1.842   2.987  0.00  0.00    +0.263 A 
ATOM     13  O   UNL     1       1.264   2.913   2.490  0.00  0.00    -0.267 OA
ATOM     14  N   UNL     1      -0.020   1.094   2.454  0.00  0.00    -0.287 N 
ENDROOT
BRANCH   1  15
ATOM     15  S   UNL     1      -1.673  -1.045   2.269  0.00  0.00    -0.075 S 
BRANCH  15  17
ATOM     16  C   UNL     1      -0.370  -3.238   3.249  0.00  0.00    +0.029 C 
ATOM     17  C   UNL     1      -1.690  -2.475   3.379  0.00  0.00    +0.137 C 
BRANCH  17  18
ATOM     18  C   UNL     1      -2.834  -3.383   3.010  0.00  0.00    +0.229 C 
ATOM     19  O   UNL     1      -3.275  -3.375   1.881  0.00  0.00    -0.274 OA
ATOM     20  N   UNL     1      -3.367  -4.205   3.936  0.00  0.00    -0.301 N 
ATOM     21  C   UNL     1      -2.834  -4.216   5.300  0.00  0.00    +0.132 C 
BRANCH  20  22
ATOM     22  C   UNL     1      -4.479  -5.089   3.577  0.00  0.00    +0.076 C 
ATOM     23  C   UNL     1      -5.692  -4.762   4.450  0.00  0.00    +0.022 C 
ATOM     24  C   UNL     1      -6.854  -5.684   4.076  0.00  0.00    +0.002 C 
ATOM     25  C   UNL     1      -6.442  -7.140   4.301  0.00  0.00    +0.000 C 
ATOM     26  C   UNL     1      -5.229  -7.468   3.427  0.00  0.00    +0.002 C 
ATOM     27  C   UNL     1      -4.067  -6.545   3.802  0.00  0.00    +0.022 C 
ENDBRANCH  20  22
ENDBRANCH  17  18
ENDBRANCH  15  17
ENDBRANCH   1  15
BRANCH  14  28
ATOM     28  C   UNL     1      -0.729   1.579   1.267  0.00  0.00    +0.125 C 
BRANCH  28  29
ATOM     29  C   UNL     1      -0.013   1.086   0.008  0.00  0.00    +0.003 C 
BRANCH  29  30
ATOM     30  C   UNL     1      -0.753   1.593  -1.232  0.00  0.00    -0.078 C 
BRANCH  30  31
ATOM     31  N   UNL     1      -0.065   1.119  -2.440  0.00  0.00    +0.376 N 
ATOM     32  C   UNL     1      -0.870   1.381  -3.641  0.00  0.00    -0.097 C 
ATOM     33  C   UNL     1       1.269   1.723  -2.558  0.00  0.00    -0.097 C 
ATOM     34  H   UNL     1       0.064   0.030  -2.351  0.00  0.00    -0.083 HD
ENDBRANCH  30  31
ENDBRANCH  29  30
ENDBRANCH  28  29
ENDBRANCH  14  28
TORSDOF 8
