REMARK  Name = ZINC35991902
REMARK  12 active torsions:
REMARK  status: ('A' for Active; 'I' for Inactive)
REMARK    1  A    between atoms: C_1  and  C_2
REMARK    2  A    between atoms: C_2  and  O_3
REMARK    3  A    between atoms: O_3  and  C_4
REMARK    4  A    between atoms: C_4  and  C_6
REMARK    5  A    between atoms: C_7  and  C_23
REMARK    6  A    between atoms: N_8  and  C_22
REMARK    7  A    between atoms: C_12  and  C_14
REMARK    8  A    between atoms: C_19  and  O_20
REMARK    9  A    between atoms: O_20  and  C_21
REMARK   10  A    between atoms: C_23  and  N_24
REMARK   11  A    between atoms: C_28  and  C_31
REMARK   12  A    between atoms: C_32  and  C_34
REMARK                            x       y       z     vdW  Elec       q    Type
REMARK                         _______ _______ _______ _____ _____    ______ ____
ROOT
ATOM      1  C   UNL     1       0.955  -2.211   2.776  0.00  0.00    +0.080 C 
ATOM      2  C   UNL     1       1.007  -3.525   3.081  0.00  0.00    +0.041 C 
ATOM      3  N   UNL     1       1.830  -3.987   4.067  0.00  0.00    -0.260 N 
ATOM      4  C   UNL     1       2.632  -3.200   4.796  0.00  0.00    +0.307 C 
ATOM      5  O   UNL     1       3.330  -3.704   5.654  0.00  0.00    -0.252 OA
ATOM      6  N   UNL     1       2.690  -1.867   4.608  0.00  0.00    -0.288 N 
ATOM      7  C   UNL     1       1.844  -1.268   3.562  0.00  0.00    +0.147 C 
ATOM      8  C   UNL     1       1.836  -5.426   4.345  0.00  0.00    +0.139 C 
ATOM      9  H   UNL     1       3.278  -1.315   5.147  0.00  0.00    +0.151 HD
ENDROOT
BRANCH   7  10
ATOM     10  C   UNL     1       0.963  -0.236   4.217  0.00  0.00    +0.019 A 
ATOM     11  C   UNL     1       0.573  -0.395   5.533  0.00  0.00    +0.009 A 
ATOM     12  C   UNL     1      -0.235   0.552   6.134  0.00  0.00    +0.001 A 
ATOM     13  C   UNL     1      -0.655   1.660   5.421  0.00  0.00    +0.004 A 
ATOM     14  C   UNL     1      -0.268   1.823   4.105  0.00  0.00    +0.046 A 
ATOM     15  C   UNL     1       0.548   0.877   3.501  0.00  0.00    +0.125 A 
BRANCH  15  16
ATOM     16  O   UNL     1       0.935   1.039   2.208  0.00  0.00    -0.495 OA
ATOM     17  C   UNL     1       0.560   2.259   1.566  0.00  0.00    +0.277 C 
ENDBRANCH  15  16
ENDBRANCH   7  10
BRANCH   1  18
ATOM     18  C   UNL     1       0.103  -1.730   1.754  0.00  0.00    +0.339 C 
ATOM     19  O   UNL     1       0.567  -1.411   0.675  0.00  0.00    -0.245 OA
BRANCH  18  20
ATOM     20  O   UNL     1      -1.224  -1.626   1.975  0.00  0.00    -0.462 OA
BRANCH  20  22
ATOM     21  C   UNL     1      -3.484  -1.058   1.333  0.00  0.00    +0.048 C 
ATOM     22  C   UNL     1      -2.038  -1.241   0.865  0.00  0.00    +0.229 C 
ENDBRANCH  20  22
ENDBRANCH  18  20
ENDBRANCH   1  18
BRANCH   2  23
ATOM     23  C   UNL     1       0.143  -4.497   2.320  0.00  0.00    +0.136 C 
BRANCH  23  24
ATOM     24  N   UNL     1       0.996  -5.419   1.558  0.00  0.00    -0.294 NA
ATOM     25  C   UNL     1       1.738  -4.705   0.510  0.00  0.00    +0.104 C 
ATOM     26  C   UNL     1       2.745  -5.660  -0.139  0.00  0.00    +0.124 C 
ATOM     27  N   UNL     1       2.026  -6.860  -0.593  0.00  0.00    -0.292 N 
ATOM     28  C   UNL     1       1.153  -7.553   0.367  0.00  0.00    +0.087 C 
ATOM     29  C   UNL     1       0.208  -6.523   0.996  0.00  0.00    +0.107 C 
ATOM     30  C   UNL     1       0.340  -8.626  -0.360  0.00  0.00    +0.029 C 
ATOM     31  C   UNL     1       2.164  -7.314  -1.854  0.00  0.00    +0.254 C 
ATOM     32  O   UNL     1       1.469  -8.230  -2.251  0.00  0.00    -0.269 OA
BRANCH  31  33
ATOM     33  C   UNL     1       3.152  -6.702  -2.749  0.00  0.00    +0.074 A 
ATOM     34  C   UNL     1       3.343  -6.903  -4.107  0.00  0.00    +0.021 A 
ATOM     35  C   UNL     1       4.361  -6.179  -4.680  0.00  0.00    +0.008 A 
ATOM     36  C   UNL     1       5.091  -5.340  -3.904  0.00  0.00    +0.046 A 
ATOM     37  S   UNL     1       4.415  -5.501  -2.375  0.00  0.00    -0.092 S 
ENDBRANCH  31  33
ENDBRANCH  23  24
ENDBRANCH   2  23
TORSDOF 8
