REMARK  Name = ZINC64110614
REMARK  12 active torsions:
REMARK  status: ('A' for Active; 'I' for Inactive)
REMARK    1  A    between atoms: C_1  and  C_2
REMARK    2  A    between atoms: C_7  and  C_12
REMARK    3  A    between atoms: C_12  and  C_14
REMARK    4  A    between atoms: C_12  and  N_15
REMARK    5  A    between atoms: C_16  and  C_18
REMARK    6  A    between atoms: N_20  and  C_29
REMARK    7  A    between atoms: C_22  and  C_25
REMARK    8  A    between atoms: N_27  and  C_28
REMARK    9  A    between atoms: C_29  and  C_30
REMARK   10  A    between atoms: C_30  and  C_31
REMARK   11  A    between atoms: C_31  and  C_32
REMARK   12  A    between atoms: C_31  and  C_33
REMARK                            x       y       z     vdW  Elec       q    Type
REMARK                         _______ _______ _______ _____ _____    ______ ____
ROOT
ATOM      1  N   UNL     1      -1.108  -6.460   1.371  0.00  0.00    -0.305 N 
ATOM      2  C   UNL     1      -2.238  -7.169   1.181  0.00  0.00    +0.250 C 
ATOM      3  O   UNL     1      -3.308  -6.719   1.544  0.00  0.00    -0.270 OA
ATOM      4  H   UNL     1      -0.248  -6.848   1.149  0.00  0.00    +0.149 HD
ENDROOT
BRANCH   2   5
ATOM      5  C   UNL     1      -2.177  -8.490   0.532  0.00  0.00    +0.100 A 
ATOM      6  C   UNL     1      -3.330  -9.180   0.226  0.00  0.00    +0.102 A 
ATOM      7  N   UNL     1      -3.288 -10.386  -0.365  0.00  0.00    -0.352 N 
ATOM      8  C   UNL     1      -2.144 -11.005  -0.699  0.00  0.00    +0.102 A 
ATOM      9  C   UNL     1      -0.916 -10.430  -0.451  0.00  0.00    +0.100 A 
ATOM     10  C   UNL     1      -0.883  -9.104   0.190  0.00  0.00    +0.206 A 
ATOM     11  O   UNL     1       0.171  -8.541   0.431  0.00  0.00    -0.286 OA
BRANCH   9  12
ATOM     12  C   UNL     1       0.330 -11.121  -0.822  0.00  0.00    +0.249 C 
ATOM     13  O   UNL     1       0.285 -12.164  -1.446  0.00  0.00    -0.270 OA
ATOM     14  N   UNL     1       1.521 -10.598  -0.469  0.00  0.00    -0.314 N 
ATOM     15  C   UNL     1       2.756 -11.338  -0.740  0.00  0.00    +0.128 C 
ATOM     16  H   UNL     1       1.561  -9.730  -0.036  0.00  0.00    +0.149 HD
ENDBRANCH   9  12
BRANCH   7  17
ATOM     17  C   UNL     1      -4.555 -11.060  -0.660  0.00  0.00    +0.121 C 
BRANCH  17  18
ATOM     18  C   UNL     1      -5.032 -10.661  -2.058  0.00  0.00    +0.024 C 
BRANCH  18  19
ATOM     19  C   UNL     1      -6.355 -11.365  -2.365  0.00  0.00    -0.016 C 
ATOM     20  C   UNL     1      -7.436 -10.859  -1.409  0.00  0.00    +0.007 C 
ATOM     21  C   UNL     1      -6.769 -11.066  -3.808  0.00  0.00    +0.007 C 
ENDBRANCH  18  19
ENDBRANCH  17  18
ENDBRANCH   7  17
ENDBRANCH   2   5
BRANCH   1  22
ATOM     22  C   UNL     1      -1.180  -5.100   1.914  0.00  0.00    +0.113 C 
ATOM     23  C   UNL     1      -1.224  -5.163   3.442  0.00  0.00    +0.032 C 
BRANCH  22  30
ATOM     24  C   UNL     1      -0.081   1.512  -0.121  0.00  0.00    +0.044 C 
ATOM     25  C   UNL     1      -0.052   0.005  -0.114  0.00  0.00    -0.048 A 
ATOM     26  C   UNL     1      -0.057  -0.676  -1.344  0.00  0.00    +0.005 A 
ATOM     27  C   UNL     1      -0.033  -2.021  -1.430  0.00  0.00    +0.027 A 
ATOM     28  C   UNL     1       0.001  -2.826  -0.201  0.00  0.00    +0.060 A 
ATOM     29  N   UNL     1       0.028  -4.109   0.016  0.00  0.00    -0.362 N 
ATOM     30  C   UNL     1       0.053  -4.309   1.471  0.00  0.00    +0.194 C 
ATOM     31  N   UNL     1       0.037  -2.970   2.073  0.00  0.00    -0.362 N 
ATOM     32  C   UNL     1       0.006  -2.105   1.101  0.00  0.00    +0.060 A 
ATOM     33  C   UNL     1      -0.017  -0.636   1.072  0.00  0.00    +0.030 A 
ATOM     34  H   UNL     1       0.030  -4.806  -0.659  0.00  0.00    +0.162 HD
ATOM     35  H   UNL     1       0.047  -2.768   3.022  0.00  0.00    +0.162 HD
ENDBRANCH  22  30
ENDBRANCH   1  22
TORSDOF 7
