REMARK  Name = ZINC16037159
REMARK  4 active torsions:
REMARK  status: ('A' for Active; 'I' for Inactive)
REMARK    1  A    between atoms: C_15  and  C_17
REMARK    2  A    between atoms: C_17  and  C_19
REMARK    3  A    between atoms: C_23  and  N_25
REMARK    4  A    between atoms: N_30  and  C_33
REMARK                            x       y       z     vdW  Elec       q    Type
REMARK                         _______ _______ _______ _____ _____    ______ ____
ROOT
ATOM      1  C   UNL     1       3.616   2.554   0.481  0.00  0.00    +0.001 A 
ATOM      2  C   UNL     1       3.503   3.792  -0.127  0.00  0.00    +0.000 A 
ATOM      3  C   UNL     1       2.269   4.246  -0.562  0.00  0.00    +0.006 A 
ATOM      4  C   UNL     1       1.150   3.465  -0.388  0.00  0.00    -0.021 A 
ATOM      5  C   UNL     1       1.253   2.210   0.224  0.00  0.00    -0.019 A 
ATOM      6  C   UNL     1       2.501   1.761   0.659  0.00  0.00    +0.008 A 
ATOM      7  C   UNL     1       0.053   1.368   0.406  0.00  0.00    +0.022 C 
ATOM      8  C   UNL     1      -1.169   1.931   0.316  0.00  0.00    +0.054 C 
ATOM      9  C   UNL     1      -0.208   3.934  -0.843  0.00  0.00    +0.100 C 
ATOM     10  C   UNL     1      -0.359   5.447  -0.708  0.00  0.00    +0.113 C 
ATOM     11  C   UNL     1      -1.819   5.627  -0.154  0.00  0.00    +0.116 C 
ATOM     12  C   UNL     1      -2.107   4.299   0.575  0.00  0.00    +0.141 C 
ATOM     13  C   UNL     1      -1.644   6.713   0.895  0.00  0.00    +0.232 C 
ATOM     14  O   UNL     1      -2.522   7.423   1.334  0.00  0.00    -0.274 OA
ATOM     15  N   UNL     1      -0.351   6.750   1.254  0.00  0.00    -0.210 N 
ATOM     16  C   UNL     1       0.451   5.981   0.500  0.00  0.00    +0.232 C 
ATOM     17  O   UNL     1       1.621   5.748   0.717  0.00  0.00    -0.274 OA
ATOM     18  N   UNL     1      -1.378   3.315  -0.270  0.00  0.00    -0.384 NA
ATOM     19  H   UNL     1      -1.999   3.150  -1.070  0.00  0.00    +0.127 HD
ENDROOT
BRANCH  15  20
ATOM     20  C   UNL     1       0.121   7.526   2.323  0.00  0.00    +0.048 A 
ATOM     21  C   UNL     1       0.955   8.609   2.080  0.00  0.00    +0.028 A 
ATOM     22  C   UNL     1       1.417   9.378   3.131  0.00  0.00    +0.051 A 
ATOM     23  C   UNL     1       1.058   9.063   4.432  0.00  0.00    +0.166 A 
ATOM     24  C   UNL     1       0.227   7.974   4.680  0.00  0.00    +0.168 A 
ATOM     25  C   UNL     1      -0.240   7.208   3.625  0.00  0.00    +0.073 A 
ATOM     26  O   UNL     1       0.025   7.876   6.027  0.00  0.00    -0.453 OA
ATOM     27  C   UNL     1       1.067   8.666   6.630  0.00  0.00    +0.466 C 
ATOM     28  O   UNL     1       1.377   9.648   5.624  0.00  0.00    -0.453 OA
ENDBRANCH  15  20
BRANCH  12  29
ATOM     29  C   UNL     1      -3.535   3.881   0.331  0.00  0.00    +0.183 C 
ATOM     30  O   UNL     1      -3.794   3.097  -0.557  0.00  0.00    -0.290 OA
BRANCH  29  31
ATOM     31  C   UNL     1      -4.614   4.426   1.170  0.00  0.00    +0.021 A 
ATOM     32  C   UNL     1      -4.309   5.230   2.274  0.00  0.00    +0.011 A 
ATOM     33  C   UNL     1      -5.326   5.740   3.052  0.00  0.00    +0.003 A 
ATOM     34  C   UNL     1      -6.646   5.449   2.751  0.00  0.00    +0.033 A 
ATOM     35  C   UNL     1      -6.955   4.650   1.664  0.00  0.00    +0.127 A 
ATOM     36  C   UNL     1      -5.949   4.137   0.873  0.00  0.00    +0.044 A 
BRANCH  35  37
ATOM     37  N   UNL     1      -8.369   4.346   1.351  0.00  0.00    +0.056 N 
ATOM     38  O   UNL     1      -8.644   3.643   0.395  0.00  0.00    -0.126 OA
ATOM     39  O   UNL     1      -9.259   4.799   2.049  0.00  0.00    -0.126 OA
ENDBRANCH  35  37
ENDBRANCH  29  31
ENDBRANCH  12  29
TORSDOF 4
