REMARK  Name = ZINC65339032
REMARK  1 active torsions:
REMARK  status: ('A' for Active; 'I' for Inactive)
REMARK    1  A    between atoms: C_3  and  C_8
REMARK                            x       y       z     vdW  Elec       q    Type
REMARK                         _______ _______ _______ _____ _____    ______ ____
ROOT
ATOM      1  C   UNL     1      -1.776   1.368   1.069  0.00  0.00    +0.007 A 
ATOM      2  C   UNL     1      -1.763  -0.028   1.066  0.00  0.00    +0.026 A 
ATOM      3  C   UNL     1      -1.187  -0.703   0.010  0.00  0.00    +0.053 A 
ATOM      4  N   UNL     1      -0.629  -0.011  -1.029  0.00  0.00    -0.322 N 
ATOM      5  C   UNL     1      -0.634   1.336  -1.036  0.00  0.00    +0.249 A 
ATOM      6  C   UNL     1      -1.219   2.047   0.021  0.00  0.00    +0.070 A 
ATOM      7  O   UNL     1      -0.132   1.940  -1.970  0.00  0.00    -0.268 OA
ATOM      8  H   UNL     1      -0.225  -0.494  -1.767  0.00  0.00    +0.169 HD
ENDROOT
BRANCH   3   9
ATOM      9  C   UNL     1      -1.172  -2.178   0.002  0.00  0.00    +0.045 A 
ATOM     10  C   UNL     1      -2.367  -2.893   0.110  0.00  0.00    +0.016 A 
ATOM     11  C   UNL     1      -2.347  -4.271   0.102  0.00  0.00    +0.039 A 
ATOM     12  C   UNL     1      -1.144  -4.952  -0.013  0.00  0.00    +0.127 A 
ATOM     13  C   UNL     1       0.047  -4.255  -0.120  0.00  0.00    +0.089 A 
ATOM     14  C   UNL     1       0.042  -2.870  -0.119  0.00  0.00    +0.191 A 
ATOM     15  O   UNL     1       1.208  -2.184  -0.230  0.00  0.00    -0.287 OA
ATOM     16  F   UNL     1      -1.135  -6.303  -0.020  0.00  0.00    -0.205 F 
ENDBRANCH   3   9
TORSDOF 1
