REMARK  Name = ZINC33643421
REMARK  11 active torsions:
REMARK  status: ('A' for Active; 'I' for Inactive)
REMARK    1  A    between atoms: C_1  and  C_2
REMARK    2  A    between atoms: C_2  and  C_3
REMARK    3  A    between atoms: C_7  and  C_40
REMARK    4  A    between atoms: C_8  and  N_9
REMARK    5  A    between atoms: C_14  and  C_32
REMARK    6  A    between atoms: C_17  and  C_22
REMARK    7  A    between atoms: C_17  and  C_29
REMARK    8  A    between atoms: C_22  and  C_23
REMARK    9  A    between atoms: C_37  and  O_38
REMARK   10  A    between atoms: O_38  and  C_39
REMARK   11  A    between atoms: C_40  and  C_41
REMARK                            x       y       z     vdW  Elec       q    Type
REMARK                         _______ _______ _______ _____ _____    ______ ____
ROOT
ATOM      1  N   UNL     1       6.967   4.731  -1.107  0.00  0.00    -0.209 N 
ATOM      2  C   UNL     1       5.907   5.528  -1.443  0.00  0.00    +0.229 C 
ATOM      3  O   UNL     1       5.953   6.654  -1.887  0.00  0.00    -0.275 OA
ATOM      4  C   UNL     1       4.680   4.724  -1.149  0.00  0.00    +0.077 C 
ATOM      5  C   UNL     1       3.492   4.710  -2.095  0.00  0.00    -0.023 C 
ATOM      6  N   UNL     1       3.066   3.281  -2.183  0.00  0.00    +0.396 N 
ATOM      7  C   UNL     1       4.096   2.450  -1.470  0.00  0.00    +0.052 C 
ATOM      8  C   UNL     1       5.287   3.315  -1.514  0.00  0.00    +0.086 C 
ATOM      9  C   UNL     1       6.612   3.413  -0.956  0.00  0.00    +0.229 C 
ATOM     10  O   UNL     1       7.271   2.525  -0.460  0.00  0.00    -0.275 OA
ATOM     11  H   UNL     1       2.082   3.161  -1.707  0.00  0.00    -0.083 HD
ATOM     12  H   UNL     1       3.000   2.983  -3.240  0.00  0.00    -0.083 HD
ENDROOT
BRANCH   1  18
ATOM     13  C   UNL     1       9.148   5.246  -2.013  0.00  0.00    -0.026 A 
ATOM     14  C   UNL     1      10.433   5.721  -1.842  0.00  0.00    +0.005 A 
ATOM     15  C   UNL     1      10.853   6.150  -0.596  0.00  0.00    +0.001 A 
ATOM     16  C   UNL     1       9.987   6.109   0.480  0.00  0.00    +0.005 A 
ATOM     17  C   UNL     1       8.698   5.639   0.314  0.00  0.00    -0.026 A 
ATOM     18  C   UNL     1       8.274   5.209  -0.935  0.00  0.00    +0.050 A 
BRANCH  13  20
ATOM     19  C   UNL     1       7.981   5.917  -4.096  0.00  0.00    +0.009 C 
ATOM     20  C   UNL     1       8.692   4.774  -3.370  0.00  0.00    +0.033 C 
ENDBRANCH  13  20
BRANCH  17  21
ATOM     21  C   UNL     1       7.755   5.594   1.488  0.00  0.00    +0.033 C 
ATOM     22  C   UNL     1       7.791   4.201   2.119  0.00  0.00    +0.009 C 
ENDBRANCH  17  21
ENDBRANCH   1  18
BRANCH   5  23
ATOM     23  C   UNL     1       3.901   5.218  -3.453  0.00  0.00    -0.019 A 
ATOM     24  C   UNL     1       4.222   4.324  -4.457  0.00  0.00    +0.005 A 
ATOM     25  C   UNL     1       4.593   4.788  -5.705  0.00  0.00    +0.000 A 
ATOM     26  C   UNL     1       4.655   6.148  -5.949  0.00  0.00    +0.004 A 
ATOM     27  C   UNL     1       4.341   7.045  -4.948  0.00  0.00    +0.046 A 
ATOM     28  C   UNL     1       3.962   6.582  -3.696  0.00  0.00    +0.122 A 
BRANCH  28  29
ATOM     29  O   UNL     1       3.653   7.463  -2.708  0.00  0.00    -0.495 OA
ATOM     30  C   UNL     1       3.738   8.853  -3.029  0.00  0.00    +0.277 C 
ENDBRANCH  28  29
ENDBRANCH   5  23
BRANCH   7  31
ATOM     31  C   UNL     1       4.341   1.156  -2.202  0.00  0.00    +0.347 C 
ATOM     32  O   UNL     1       5.462   0.712  -2.285  0.00  0.00    -0.248 OA
ATOM     33  O   UNL     1       3.315   0.496  -2.762  0.00  0.00    -0.248 OA
ENDBRANCH   7  31
BRANCH   7  34
ATOM     34  C   UNL     1       3.672   2.182  -0.024  0.00  0.00    +0.035 C 
BRANCH  34  35
ATOM     35  C   UNL     1       2.377   1.411  -0.015  0.00  0.00    -0.048 A 
ATOM     36  C   UNL     1       1.171   2.086   0.002  0.00  0.00    +0.003 A 
ATOM     37  C   UNL     1      -0.017   1.378   0.010  0.00  0.00    +0.000 A 
ATOM     38  C   UNL     1       0.002  -0.004   0.002  0.00  0.00    +0.000 A 
ATOM     39  C   UNL     1       1.208  -0.679  -0.013  0.00  0.00    +0.000 A 
ATOM     40  C   UNL     1       2.396   0.029  -0.022  0.00  0.00    +0.003 A 
ENDBRANCH  34  35
ENDBRANCH   7  34
TORSDOF 8
