REMARK  Name = ZINC38932703
REMARK  11 active torsions:
REMARK  status: ('A' for Active; 'I' for Inactive)
REMARK    1  A    between atoms: C_1  and  C_2
REMARK    2  A    between atoms: C_2  and  C_3
REMARK    3  A    between atoms: C_2  and  C_4
REMARK    4  A    between atoms: C_2  and  C_5
REMARK    5  A    between atoms: C_8  and  C_11
REMARK    6  A    between atoms: C_15  and  S_23
REMARK    7  A    between atoms: N_16  and  C_17
REMARK    8  A    between atoms: S_23  and  C_24
REMARK    9  A    between atoms: C_24  and  C_25
REMARK   10  A    between atoms: N_27  and  N_28
REMARK   11  A    between atoms: C_29  and  C_30
REMARK                            x       y       z     vdW  Elec       q    Type
REMARK                         _______ _______ _______ _____ _____    ______ ____
ROOT
ATOM      1  C   UNL     1       2.752  -1.441  -4.954  0.00  0.00    +0.213 C 
ATOM      2  N   UNL     1       1.700  -1.712  -5.949  0.00  0.00    -0.242 N 
ATOM      3  N   UNL     1       1.993  -0.906  -7.056  0.00  0.00    -0.162 NA
ATOM      4  C   UNL     1       3.057  -0.203  -6.860  0.00  0.00    +0.180 C 
ATOM      5  N   UNL     1       3.615  -0.444  -5.609  0.00  0.00    -0.254 N 
ATOM      6  H   UNL     1       0.954  -2.325  -5.856  0.00  0.00    +0.170 HD
ENDROOT
BRANCH   1  10
ATOM      7  C   UNL     1       1.055   0.164  -1.377  0.00  0.00    -0.042 A 
ATOM      8  C   UNL     1       0.299  -0.656  -2.193  0.00  0.00    +0.004 A 
ATOM      9  C   UNL     1       0.848  -1.175  -3.351  0.00  0.00    +0.007 A 
ATOM     10  C   UNL     1       2.153  -0.874  -3.692  0.00  0.00    -0.008 A 
ATOM     11  C   UNL     1       2.909  -0.053  -2.877  0.00  0.00    +0.007 A 
ATOM     12  C   UNL     1       2.358   0.470  -1.721  0.00  0.00    +0.004 A 
BRANCH   7  14
ATOM     13  C   UNL     1       0.472   2.258  -0.184  0.00  0.00    +0.015 C 
ATOM     14  C   UNL     1       0.456   0.730  -0.115  0.00  0.00    -0.013 C 
ATOM     15  C   UNL     1       1.276   0.266   1.091  0.00  0.00    +0.015 C 
ATOM     16  C   UNL     1      -0.986   0.240   0.029  0.00  0.00    +0.015 C 
ENDBRANCH   7  14
ENDBRANCH   1  10
BRANCH   5  17
ATOM     17  C   UNL     1       4.766   0.144  -5.077  0.00  0.00    +0.038 A 
ATOM     18  C   UNL     1       5.877  -0.638  -4.788  0.00  0.00    +0.023 A 
ATOM     19  C   UNL     1       7.012  -0.054  -4.263  0.00  0.00    +0.002 A 
ATOM     20  C   UNL     1       7.045   1.308  -4.024  0.00  0.00    +0.000 A 
ATOM     21  C   UNL     1       5.940   2.089  -4.311  0.00  0.00    +0.002 A 
ATOM     22  C   UNL     1       4.803   1.513  -4.842  0.00  0.00    +0.023 A 
ENDBRANCH   5  17
BRANCH   4  23
ATOM     23  S   UNL     1       3.725   0.924  -8.038  0.00  0.00    -0.079 S 
BRANCH  23  24
ATOM     24  C   UNL     1       2.590   0.810  -9.448  0.00  0.00    +0.174 C 
BRANCH  24  25
ATOM     25  C   UNL     1       3.053   1.738 -10.542  0.00  0.00    +0.242 C 
ATOM     26  O   UNL     1       4.050   2.409 -10.386  0.00  0.00    -0.273 OA
ATOM     27  N   UNL     1       2.358   1.820 -11.694  0.00  0.00    -0.206 N 
ATOM     28  H   UNL     1       1.560   1.283 -11.819  0.00  0.00    +0.177 HD
BRANCH  27  29
ATOM     29  N   UNL     1       2.788   2.683 -12.711  0.00  0.00    -0.188 NA
ATOM     30  C   UNL     1       2.062   2.837 -13.789  0.00  0.00    +0.136 C 
BRANCH  30  31
ATOM     31  C   UNL     1       0.950   2.011 -14.010  0.00  0.00    +0.000 C 
ATOM     32  C   UNL     1       0.141   1.974 -15.143  0.00  0.00    +0.004 A 
ATOM     33  C   UNL     1       0.163   2.697 -16.356  0.00  0.00    +0.010 A 
ATOM     34  C   UNL     1      -0.773   2.446 -17.306  0.00  0.00    +0.001 A 
ATOM     35  C   UNL     1      -1.768   1.483 -17.118  0.00  0.00    +0.002 A 
ATOM     36  C   UNL     1      -1.850   0.752 -15.980  0.00  0.00    +0.026 A 
ATOM     37  C   UNL     1      -0.906   0.957 -14.939  0.00  0.00    +0.043 A 
ATOM     38  N   UNL     1      -0.772   0.388 -13.760  0.00  0.00    -0.380 N 
ATOM     39  C   UNL     1       0.383   0.970 -13.070  0.00  0.00    +0.150 C 
ATOM     40  H   UNL     1      -1.345  -0.309 -13.405  0.00  0.00    +0.160 HD
ENDBRANCH  30  31
ENDBRANCH  27  29
ENDBRANCH  24  25
ENDBRANCH  23  24
ENDBRANCH   4  23
TORSDOF 8
