REMARK  Name = ZINC17077260
REMARK  4 active torsions:
REMARK  status: ('A' for Active; 'I' for Inactive)
REMARK    1  A    between atoms: C_1  and  C_2
REMARK    2  A    between atoms: C_3  and  C_25
REMARK    3  A    between atoms: C_6  and  C_7
REMARK    4  A    between atoms: N_9  and  N_10
REMARK                            x       y       z     vdW  Elec       q    Type
REMARK                         _______ _______ _______ _____ _____    ______ ____
ROOT
ATOM      1  N   UNL     1       0.053  -0.272   4.919  0.00  0.00    -0.200 N 
ATOM      2  C   UNL     1       1.196  -0.238   5.628  0.00  0.00    +0.280 A 
ATOM      3  O   UNL     1       2.214  -0.735   5.181  0.00  0.00    -0.265 OA
ATOM      4  C   UNL     1       1.199   0.410   6.957  0.00  0.00    +0.075 A 
ATOM      5  C   UNL     1       2.323   0.561   7.893  0.00  0.00    -0.023 A 
ATOM      6  C   UNL     1       2.021   1.200   9.035  0.00  0.00    -0.004 A 
ATOM      7  S   UNL     1       0.298   1.599   8.883  0.00  0.00    -0.075 S 
ATOM      8  C   UNL     1      -0.013   0.948   7.378  0.00  0.00    +0.092 A 
ATOM      9  N   UNL     1      -1.133   0.869   6.591  0.00  0.00    -0.328 N 
ATOM     10  H   UNL     1      -1.968   1.251   6.904  0.00  0.00    +0.168 HD
ATOM     11  C   UNL     1      -1.083   0.272   5.385  0.00  0.00    +0.179 A 
ATOM     12  S   UNL     1      -2.499   0.200   4.427  0.00  0.00    -0.011 S 
ATOM     13  C   UNL     1       3.213   1.316   9.947  0.00  0.00    +0.043 C 
ATOM     14  C   UNL     1       4.220   0.278   9.404  0.00  0.00    +0.010 C 
ATOM     15  C   UNL     1       3.800   0.176   7.923  0.00  0.00    +0.037 C 
ENDROOT
BRANCH   1  18
ATOM     16  C   UNL     1       0.028  -0.133   2.543  0.00  0.00    +0.263 C 
ATOM     17  O   UNL     1       0.013   1.081   2.628  0.00  0.00    -0.268 OA
ATOM     18  N   UNL     1       0.049  -0.886   3.660  0.00  0.00    -0.214 N 
ATOM     19  H   UNL     1       0.061  -1.854   3.592  0.00  0.00    +0.176 HD
BRANCH  16  25
ATOM     20  C   UNL     1      -0.018   1.503   0.010  0.00  0.00    +0.045 C 
ATOM     21  C   UNL     1       0.002  -0.004   0.002  0.00  0.00    -0.028 A 
ATOM     22  C   UNL     1       0.007  -0.715  -1.143  0.00  0.00    -0.010 A 
ATOM     23  S   UNL     1       0.032  -2.400  -0.573  0.00  0.00    -0.101 S 
ATOM     24  C   UNL     1       0.036  -2.148   1.086  0.00  0.00    +0.058 A 
ATOM     25  C   UNL     1       0.024  -0.778   1.220  0.00  0.00    +0.048 A 
ATOM     26  C   UNL     1      -0.007  -0.206  -2.562  0.00  0.00    +0.052 C 
ENDBRANCH  16  25
ENDBRANCH   1  18
TORSDOF 2
