REMARK  Name = ZINC01866413
REMARK  11 active torsions:
REMARK  status: ('A' for Active; 'I' for Inactive)
REMARK    1  A    between atoms: C_2  and  C_3
REMARK    2  A    between atoms: C_2  and  N_10
REMARK    3  A    between atoms: N_10  and  O_11
REMARK    4  A    between atoms: O_11  and  C_12
REMARK    5  A    between atoms: C_12  and  C_13
REMARK    6  A    between atoms: N_15  and  C_16
REMARK    7  A    between atoms: C_17  and  C_39
REMARK    8  A    between atoms: C_18  and  C_33
REMARK    9  A    between atoms: C_19  and  C_27
REMARK   10  A    between atoms: N_20  and  C_21
REMARK   11  A    between atoms: C_21  and  C_22
REMARK                            x       y       z     vdW  Elec       q    Type
REMARK                         _______ _______ _______ _____ _____    ______ ____
ROOT
ATOM      1  C   UNL     1      -2.192  -0.399   2.319  0.00  0.00    +0.124 A 
ATOM      2  C   UNL     1      -2.492  -1.041   3.512  0.00  0.00    +0.100 A 
ATOM      3  C   UNL     1      -1.808  -2.344   3.461  0.00  0.00    +0.027 A 
ATOM      4  C   UNL     1      -1.157  -2.388   2.245  0.00  0.00    +0.060 A 
ATOM      5  N   UNL     1      -1.395  -1.210   1.577  0.00  0.00    -0.320 N 
ENDROOT
BRANCH   4   6
ATOM      6  C   UNL     1      -0.339  -3.510   1.746  0.00  0.00    -0.001 A 
ATOM      7  C   UNL     1      -0.525  -3.992   0.448  0.00  0.00    +0.010 A 
ATOM      8  C   UNL     1       0.246  -5.038  -0.013  0.00  0.00    +0.001 A 
ATOM      9  C   UNL     1       1.196  -5.618   0.811  0.00  0.00    +0.000 A 
ATOM     10  C   UNL     1       1.382  -5.149   2.099  0.00  0.00    +0.001 A 
ATOM     11  C   UNL     1       0.622  -4.100   2.572  0.00  0.00    +0.010 A 
ENDBRANCH   4   6
BRANCH   3  12
ATOM     12  C   UNL     1      -1.822  -3.396   4.502  0.00  0.00    -0.015 A 
ATOM     13  C   UNL     1      -2.443  -4.620   4.252  0.00  0.00    +0.008 A 
ATOM     14  C   UNL     1      -2.447  -5.599   5.224  0.00  0.00    +0.001 A 
ATOM     15  C   UNL     1      -1.847  -5.365   6.448  0.00  0.00    +0.000 A 
ATOM     16  C   UNL     1      -1.234  -4.152   6.704  0.00  0.00    +0.001 A 
ATOM     17  C   UNL     1      -1.218  -3.167   5.738  0.00  0.00    +0.008 A 
ENDBRANCH   3  12
BRANCH   1  20
ATOM     18  C   UNL     1      -2.873   1.796   2.887  0.00  0.00    +0.247 C 
ATOM     19  O   UNL     1      -2.615   1.567   4.050  0.00  0.00    -0.273 OA
ATOM     20  N   UNL     1      -2.633   0.860   1.947  0.00  0.00    -0.269 N 
ATOM     21  H   UNL     1      -2.769   1.069   1.009  0.00  0.00    +0.156 HD
BRANCH  18  22
ATOM     22  C   UNL     1      -3.463   3.126   2.494  0.00  0.00    +0.288 C 
BRANCH  22  23
ATOM     23  O   UNL     1      -3.623   3.939   3.658  0.00  0.00    -0.265 OA
BRANCH  23  24
ATOM     24  N   UNL     1      -4.173   5.217   3.396  0.00  0.00    -0.265 N 
ATOM     25  H   UNL     1      -4.404   5.469   2.489  0.00  0.00    +0.194 HD
BRANCH  24  27
ATOM     26  C   UNL     1      -4.065   5.767   5.692  0.00  0.00    +0.038 C 
ATOM     27  C   UNL     1      -4.382   6.114   4.444  0.00  0.00    +0.061 C 
BRANCH  27  28
ATOM     28  C   UNL     1      -4.957   7.451   4.171  0.00  0.00    -0.000 A 
ATOM     29  C   UNL     1      -5.285   7.819   2.866  0.00  0.00    +0.011 A 
ATOM     30  C   UNL     1      -5.827   9.063   2.618  0.00  0.00    +0.016 A 
ATOM     31  C   UNL     1      -6.033   9.951   3.660  0.00  0.00    +0.018 A 
ATOM     32  C   UNL     1      -5.704   9.594   4.956  0.00  0.00    +0.016 A 
ATOM     33  C   UNL     1      -5.168   8.350   5.216  0.00  0.00    +0.011 A 
ATOM     34 BR   UNL     1      -6.769  11.658   3.311  0.00  0.00    -0.050 Br
ENDBRANCH  27  28
ENDBRANCH  24  27
ENDBRANCH  23  24
ENDBRANCH  22  23
ENDBRANCH  18  22
ENDBRANCH   1  20
BRANCH   2  35
ATOM     35  C   UNL     1      -3.304  -0.538   4.579  0.00  0.00    +0.103 C 
ATOM     36  N   UNL     1      -3.948  -0.138   5.425  0.00  0.00    -0.191 NA
ENDBRANCH   2  35
BRANCH   5  37
ATOM     37  C   UNL     1      -0.868  -0.879   0.250  0.00  0.00    +0.197 C 
BRANCH  37  38
ATOM     38  C   UNL     1       0.401  -0.080   0.399  0.00  0.00    +0.124 A 
ATOM     39  C   UNL     1       1.645  -0.586   0.476  0.00  0.00    +0.046 A 
ATOM     40  C   UNL     1       2.526   0.511   0.607  0.00  0.00    +0.041 A 
ATOM     41  C   UNL     1       1.769   1.623   0.602  0.00  0.00    +0.195 A 
ATOM     42  O   UNL     1       0.482   1.259   0.475  0.00  0.00    -0.466 OA
ENDBRANCH  37  38
ENDBRANCH   5  37
TORSDOF 11
