REMARK  Name = ZINC33757566
REMARK  8 active torsions:
REMARK  status: ('A' for Active; 'I' for Inactive)
REMARK    1  A    between atoms: C_1  and  C_2
REMARK    2  A    between atoms: C_3  and  C_28
REMARK    3  A    between atoms: C_11  and  O_14
REMARK    4  A    between atoms: O_14  and  C_15
REMARK    5  A    between atoms: N_19  and  C_20
REMARK    6  A    between atoms: C_25  and  O_26
REMARK    7  A    between atoms: O_26  and  C_27
REMARK    8  A    between atoms: N_30  and  C_31
REMARK                            x       y       z     vdW  Elec       q    Type
REMARK                         _______ _______ _______ _____ _____    ______ ____
ROOT
ATOM      1  C   UNL     1      -0.292   1.926  -0.836  0.00  0.00    +0.079 C 
ATOM      2  C   UNL     1      -0.814   1.780   0.595  0.00  0.00    +0.194 C 
ATOM      3  C   UNL     1      -0.633   3.109   1.341  0.00  0.00    +0.163 C 
ATOM      4  C   UNL     1      -1.057   2.863   2.798  0.00  0.00    +0.123 C 
ATOM      5  C   UNL     1      -2.454   2.283   2.793  0.00  0.00    +0.019 A 
ATOM      6  C   UNL     1      -3.244   2.430   3.921  0.00  0.00    +0.009 A 
ATOM      7  C   UNL     1      -4.522   1.905   3.949  0.00  0.00    +0.004 A 
ATOM      8  C   UNL     1      -5.015   1.230   2.848  0.00  0.00    +0.049 A 
ATOM      9  C   UNL     1      -4.231   1.082   1.717  0.00  0.00    +0.162 A 
ATOM     10  C   UNL     1      -2.940   1.614   1.687  0.00  0.00    +0.170 A 
ATOM     11  O   UNL     1      -2.204   1.468   0.561  0.00  0.00    -0.463 OA
ATOM     12  N   UNL     1      -0.158   1.839   3.356  0.00  0.00    -0.318 N 
ATOM     13  C   UNL     1       0.257   0.823   2.581  0.00  0.00    +0.141 C 
ATOM     14  S   UNL     1       1.230  -0.401   3.278  0.00  0.00    -0.018 S 
ATOM     15  N   UNL     1      -0.062   0.734   1.281  0.00  0.00    -0.240 N 
ATOM     16  H   UNL     1       0.171   1.908   4.403  0.00  0.00    +0.148 HD
ENDROOT
BRANCH  15  17
ATOM     17  C   UNL     1       0.338  -0.399   0.560  0.00  0.00    +0.081 A 
ATOM     18  C   UNL     1       1.565  -0.413  -0.088  0.00  0.00    +0.027 A 
ATOM     19  C   UNL     1       1.958  -1.532  -0.798  0.00  0.00    +0.002 A 
ATOM     20  C   UNL     1       1.131  -2.638  -0.865  0.00  0.00    +0.004 A 
ATOM     21  C   UNL     1      -0.092  -2.631  -0.222  0.00  0.00    +0.047 A 
ATOM     22  C   UNL     1      -0.492  -1.516   0.497  0.00  0.00    +0.141 A 
BRANCH  22  23
ATOM     23  O   UNL     1      -1.693  -1.510   1.134  0.00  0.00    -0.493 OA
ATOM     24  C   UNL     1      -2.491  -2.690   1.025  0.00  0.00    +0.277 C 
ENDBRANCH  22  23
ENDBRANCH  15  17
BRANCH   3  25
ATOM     25  C   UNL     1       0.811   3.539   1.285  0.00  0.00    +0.228 C 
ATOM     26  O   UNL     1       1.682   2.714   1.108  0.00  0.00    -0.275 OA
ATOM     27  N   UNL     1       1.133   4.839   1.431  0.00  0.00    -0.285 N 
ATOM     28  H   UNL     1       0.353   5.575   1.676  0.00  0.00    +0.155 HD
BRANCH  27  29
ATOM     29  C   UNL     1       2.461   5.253   1.271  0.00  0.00    +0.033 A 
ATOM     30  C   UNL     1       3.501   4.427   1.676  0.00  0.00    +0.025 A 
ATOM     31  C   UNL     1       4.810   4.836   1.514  0.00  0.00    +0.022 A 
ATOM     32  C   UNL     1       5.085   6.072   0.956  0.00  0.00    +0.041 A 
ATOM     33  C   UNL     1       4.050   6.900   0.556  0.00  0.00    +0.022 A 
ATOM     34  C   UNL     1       2.740   6.493   0.713  0.00  0.00    +0.025 A 
ATOM     35 CL   UNL     1       6.731   6.586   0.758  0.00  0.00    -0.084 Cl
ENDBRANCH  27  29
ENDBRANCH   3  25
BRANCH   9  36
ATOM     36  O   UNL     1      -4.717   0.417   0.635  0.00  0.00    -0.491 OA
ATOM     37  C   UNL     1      -6.045  -0.102   0.735  0.00  0.00    +0.277 C 
ENDBRANCH   9  36
TORSDOF 5
