REMARK  Name = ZINC38546596
REMARK  10 active torsions:
REMARK  status: ('A' for Active; 'I' for Inactive)
REMARK    1  A    between atoms: C_1  and  C_2
REMARK    2  A    between atoms: C_2  and  N_3
REMARK    3  A    between atoms: N_6  and  C_9
REMARK    4  A    between atoms: C_9  and  C_11
REMARK    5  A    between atoms: C_9  and  C_20
REMARK    6  A    between atoms: C_14  and  C_17
REMARK    7  A    between atoms: C_17  and  C_18
REMARK    8  A    between atoms: C_17  and  C_19
REMARK    9  A    between atoms: C_24  and  N_25
REMARK   10  A    between atoms: C_26  and  C_28
REMARK                            x       y       z     vdW  Elec       q    Type
REMARK                         _______ _______ _______ _____ _____    ______ ____
ROOT
ATOM      1  C   UNL     1       3.476  -2.489  -3.755  0.00  0.00    +0.120 C 
ENDROOT
BRANCH   1   2
ATOM      2  C   UNL     1       3.312  -3.986  -3.787  0.00  0.00    +0.006 A 
ATOM      3  C   UNL     1       3.055  -4.636  -4.995  0.00  0.00    -0.030 A 
ATOM      4  C   UNL     1       2.919  -5.988  -4.943  0.00  0.00    -0.005 A 
ATOM      5  S   UNL     1       3.146  -6.373  -3.227  0.00  0.00    -0.078 S 
ATOM      6  C   UNL     1       3.420  -4.708  -2.640  0.00  0.00    +0.078 A 
ATOM      7  C   UNL     1       2.641  -6.920  -6.077  0.00  0.00    +0.043 C 
ATOM      8  C   UNL     1       2.163  -6.090  -7.279  0.00  0.00    +0.005 C 
ATOM      9  C   UNL     1       3.114  -4.904  -7.464  0.00  0.00    +0.005 C 
ATOM     10  C   UNL     1       2.926  -3.900  -6.326  0.00  0.00    +0.036 C 
BRANCH   6  11
ATOM     11  N   UNL     1       3.675  -4.264  -1.341  0.00  0.00    -0.273 N 
ATOM     12  C   UNL     1       3.867  -5.156  -0.349  0.00  0.00    +0.284 C 
ATOM     13  O   UNL     1       3.817  -6.349  -0.586  0.00  0.00    -0.266 OA
ATOM     14  H   UNL     1       3.715  -3.313  -1.153  0.00  0.00    +0.156 HD
BRANCH  12  15
ATOM     15  C   UNL     1       4.135  -4.690   1.014  0.00  0.00    +0.189 A 
ATOM     16  C   UNL     1       4.353  -5.482   2.105  0.00  0.00    +0.054 A 
ATOM     17  C   UNL     1       4.566  -4.621   3.193  0.00  0.00    +0.042 A 
ATOM     18  C   UNL     1       4.472  -3.357   2.724  0.00  0.00    +0.196 A 
ATOM     19  O   UNL     1       4.217  -3.402   1.410  0.00  0.00    -0.458 OA
ENDBRANCH  12  15
ENDBRANCH   6  11
ENDBRANCH   1   2
BRANCH   1  23
ATOM     20  N   UNL     1       0.788  -0.333  -1.307  0.00  0.00    +0.381 N 
ATOM     21  C   UNL     1       2.208   0.040  -1.268  0.00  0.00    -0.063 C 
ATOM     22  C   UNL     1       2.907  -0.482  -2.526  0.00  0.00    +0.067 C 
ATOM     23  N   UNL     1       2.768  -1.943  -2.589  0.00  0.00    -0.295 NA
ATOM     24  C   UNL     1       1.351  -2.333  -2.604  0.00  0.00    +0.067 C 
ATOM     25  C   UNL     1       0.665  -1.797  -1.346  0.00  0.00    -0.063 C 
ATOM     26  H   UNL     1       0.359   0.062  -2.130  0.00  0.00    -0.082 HD
BRANCH  20  28
ATOM     27  C   UNL     1       0.132   1.712  -0.131  0.00  0.00    -0.017 C 
ATOM     28  C   UNL     1       0.113   0.183  -0.108  0.00  0.00    -0.082 C 
ENDBRANCH  20  28
ENDBRANCH   1  23
BRANCH   1  29
ATOM     29  C   UNL     1       4.941  -2.146  -3.659  0.00  0.00    -0.026 A 
ATOM     30  C   UNL     1       5.563  -2.114  -2.426  0.00  0.00    +0.006 A 
ATOM     31  C   UNL     1       6.907  -1.799  -2.338  0.00  0.00    +0.004 A 
ATOM     32  C   UNL     1       7.627  -1.518  -3.483  0.00  0.00    -0.045 A 
ATOM     33  C   UNL     1       7.005  -1.551  -4.717  0.00  0.00    +0.004 A 
ATOM     34  C   UNL     1       5.662  -1.870  -4.806  0.00  0.00    +0.006 A 
BRANCH  32  35
ATOM     35  C   UNL     1       9.091  -1.174  -3.388  0.00  0.00    +0.013 C 
ATOM     36  C   UNL     1       9.908  -2.193  -4.186  0.00  0.00    +0.012 C 
ATOM     37  C   UNL     1       9.325   0.226  -3.958  0.00  0.00    +0.012 C 
ENDBRANCH  32  35
ENDBRANCH   1  29
TORSDOF 7
