REMARK  Name = ZINC32985210
REMARK  6 active torsions:
REMARK  status: ('A' for Active; 'I' for Inactive)
REMARK    1  A    between atoms: C_3  and  S_6
REMARK    2  A    between atoms: S_6  and  N_9
REMARK    3  A    between atoms: N_9  and  C_10
REMARK    4  A    between atoms: C_16  and  C_33
REMARK    5  A    between atoms: C_18  and  N_20
REMARK    6  A    between atoms: N_23  and  C_26
REMARK                            x       y       z     vdW  Elec       q    Type
REMARK                         _______ _______ _______ _____ _____    ______ ____
ROOT
ATOM      1  C   UNL     1       6.030   2.615   1.465  0.00  0.00    +0.075 A 
ATOM      2  C   UNL     1       7.043   2.929   0.552  0.00  0.00    +0.029 A 
ATOM      3  C   UNL     1       8.256   3.372   0.978  0.00  0.00    +0.028 A 
ATOM      4  C   UNL     1       8.507   3.520   2.355  0.00  0.00    +0.049 A 
ATOM      5  C   UNL     1       7.482   3.202   3.281  0.00  0.00    +0.014 A 
ATOM      6  C   UNL     1       6.241   2.754   2.822  0.00  0.00    +0.037 A 
ATOM      7  C   UNL     1       7.756   3.361   4.711  0.00  0.00    +0.075 A 
ATOM      8  C   UNL     1       9.018   3.818   5.071  0.00  0.00    +0.057 A 
ATOM      9  C   UNL     1       9.957   4.102   4.072  0.00  0.00    +0.100 A 
ATOM     10  N   UNL     1       9.691   3.954   2.794  0.00  0.00    -0.343 N 
ATOM     11  H   UNL     1      10.380   4.166   2.145  0.00  0.00    +0.167 HD
ENDROOT
BRANCH   9  12
ATOM     12  N   UNL     1      11.214   4.558   4.445  0.00  0.00    -0.314 N 
ATOM     13  C   UNL     1      11.606   4.596   5.861  0.00  0.00    +0.125 C 
ATOM     14  C   UNL     1      12.907   3.801   6.030  0.00  0.00    +0.124 C 
ATOM     15  N   UNL     1      13.870   4.255   5.017  0.00  0.00    -0.327 N 
ATOM     16  C   UNL     1      13.478   4.218   3.601  0.00  0.00    +0.124 C 
ATOM     17  C   UNL     1      12.179   5.007   3.431  0.00  0.00    +0.125 C 
BRANCH  15  18
ATOM     18  C   UNL     1      15.136   4.714   5.393  0.00  0.00    +0.030 A 
ATOM     19  C   UNL     1      15.989   5.258   4.441  0.00  0.00    +0.026 A 
ATOM     20  C   UNL     1      17.239   5.711   4.815  0.00  0.00    +0.040 A 
ATOM     21  C   UNL     1      17.642   5.624   6.137  0.00  0.00    +0.124 A 
ATOM     22  C   UNL     1      16.793   5.082   7.087  0.00  0.00    +0.040 A 
ATOM     23  C   UNL     1      15.540   4.632   6.719  0.00  0.00    +0.026 A 
ATOM     24  F   UNL     1      18.865   6.067   6.500  0.00  0.00    -0.205 F 
ENDBRANCH  15  18
ENDBRANCH   9  12
BRANCH   7  25
ATOM     25  C   UNL     1       6.733   3.049   5.728  0.00  0.00    +0.387 C 
ATOM     26  O   UNL     1       7.020   3.088   6.916  0.00  0.00    -0.241 OA
ATOM     27  O   UNL     1       5.599   2.750   5.382  0.00  0.00    -0.241 OA
ENDBRANCH   7  25
BRANCH   1  28
ATOM     28  N   UNL     1       4.795   2.162   1.000  0.00  0.00    -0.097 NA
BRANCH  28  29
ATOM     29  S   UNL     1       4.534   1.993  -0.627  0.00  0.00    +0.098 S 
ATOM     30  O   UNL     1       5.392   0.950  -1.069  0.00  0.00    -0.148 OA
ATOM     31  O   UNL     1       4.575   3.300  -1.183  0.00  0.00    -0.148 OA
BRANCH  29  34
ATOM     32  C   UNL     1       0.544   1.441  -1.129  0.00  0.00    +0.010 A 
ATOM     33  C   UNL     1       1.740   2.119  -0.981  0.00  0.00    +0.037 A 
ATOM     34  C   UNL     1       2.885   1.409  -0.833  0.00  0.00    +0.148 A 
ATOM     35  S   UNL     1       2.287  -0.272  -0.901  0.00  0.00    -0.077 S 
ATOM     36  C   UNL     1       0.552   0.086  -1.122  0.00  0.00    +0.047 A 
ENDBRANCH  29  34
ENDBRANCH  28  29
ENDBRANCH   1  28
TORSDOF 6
