REMARK  Name = ZINC37604863
REMARK  7 active torsions:
REMARK  status: ('A' for Active; 'I' for Inactive)
REMARK    1  A    between atoms: C_4  and  C_7
REMARK    2  A    between atoms: C_11  and  O_25
REMARK    3  A    between atoms: C_18  and  C_20
REMARK    4  A    between atoms: O_25  and  C_26
REMARK    5  A    between atoms: C_26  and  C_27
REMARK    6  A    between atoms: C_30  and  C_32
REMARK    7  A    between atoms: N_34  and  C_35
REMARK                            x       y       z     vdW  Elec       q    Type
REMARK                         _______ _______ _______ _____ _____    ______ ____
ROOT
ATOM      1  C   UNL     1       4.002  -0.608   0.062  0.00  0.00    +0.137 C 
ATOM      2  C   UNL     1       4.188  -1.160  -1.329  0.00  0.00    -0.016 A 
ATOM      3  C   UNL     1       3.985  -0.299  -2.398  0.00  0.00    +0.051 A 
ATOM      4  C   UNL     1       4.149  -0.744  -3.699  0.00  0.00    +0.121 A 
ATOM      5  C   UNL     1       4.522  -2.060  -3.931  0.00  0.00    +0.046 A 
ATOM      6  C   UNL     1       4.719  -2.913  -2.867  0.00  0.00    +0.007 A 
ATOM      7  C   UNL     1       4.548  -2.469  -1.561  0.00  0.00    -0.040 A 
ATOM      8  C   UNL     1       4.755  -3.467  -0.452  0.00  0.00    +0.054 C 
ATOM      9  C   UNL     1       5.008  -2.759   0.877  0.00  0.00    +0.114 C 
ATOM     10  N   UNL     1       3.988  -1.709   1.031  0.00  0.00    -0.284 N 
ATOM     11  C   UNL     1       3.078  -1.756   2.024  0.00  0.00    +0.283 C 
ATOM     12  O   UNL     1       2.180  -0.936   2.067  0.00  0.00    -0.267 OA
ENDROOT
BRANCH   1  16
ATOM     13  C   UNL     1       0.302   1.516   0.265  0.00  0.00    +0.000 A 
ATOM     14  C   UNL     1       1.488   2.163   0.560  0.00  0.00    +0.000 A 
ATOM     15  C   UNL     1       2.685   1.476   0.494  0.00  0.00    +0.006 A 
ATOM     16  C   UNL     1       2.697   0.141   0.134  0.00  0.00    -0.023 A 
ATOM     17  C   UNL     1       1.511  -0.506  -0.160  0.00  0.00    +0.006 A 
ATOM     18  C   UNL     1       0.314   0.182  -0.095  0.00  0.00    +0.000 A 
ENDBRANCH   1  16
BRANCH  11  19
ATOM     19  C   UNL     1       3.168  -2.797   3.053  0.00  0.00    +0.189 A 
ATOM     20  C   UNL     1       2.247  -3.043   4.030  0.00  0.00    +0.054 A 
ATOM     21  C   UNL     1       2.736  -4.120   4.785  0.00  0.00    +0.042 A 
ATOM     22  C   UNL     1       3.920  -4.480   4.243  0.00  0.00    +0.196 A 
ATOM     23  O   UNL     1       4.175  -3.684   3.197  0.00  0.00    -0.458 OA
ENDBRANCH  11  19
BRANCH   4  24
ATOM     24  O   UNL     1       3.947   0.103  -4.742  0.00  0.00    -0.484 OA
BRANCH  24  25
ATOM     25  C   UNL     1       4.136  -0.428  -6.055  0.00  0.00    +0.303 C 
BRANCH  25  26
ATOM     26  C   UNL     1       3.870   0.649  -7.076  0.00  0.00    +0.143 A 
ATOM     27  C   UNL     1       4.790   1.502  -7.579  0.00  0.00    +0.049 A 
ATOM     28  C   UNL     1       4.125   2.335  -8.492  0.00  0.00    +0.055 A 
ATOM     29  C   UNL     1       2.817   1.943  -8.500  0.00  0.00    +0.190 A 
ATOM     30  O   UNL     1       2.683   0.915  -7.637  0.00  0.00    -0.452 OA
BRANCH  29  31
ATOM     31  C   UNL     1       1.746   2.534  -9.309  0.00  0.00    +0.284 C 
ATOM     32  O   UNL     1       1.990   3.460 -10.059  0.00  0.00    -0.266 OA
ATOM     33  N   UNL     1       0.490   2.051  -9.221  0.00  0.00    -0.279 N 
ATOM     34  H   UNL     1       0.308   1.270  -8.675  0.00  0.00    +0.155 HD
BRANCH  33  35
ATOM     35  C   UNL     1      -0.549   2.675  -9.918  0.00  0.00    +0.034 A 
ATOM     36  C   UNL     1      -1.819   2.742  -9.359  0.00  0.00    +0.023 A 
ATOM     37  C   UNL     1      -2.844   3.359 -10.050  0.00  0.00    +0.002 A 
ATOM     38  C   UNL     1      -2.606   3.910 -11.295  0.00  0.00    +0.000 A 
ATOM     39  C   UNL     1      -1.343   3.845 -11.854  0.00  0.00    +0.002 A 
ATOM     40  C   UNL     1      -0.313   3.234 -11.167  0.00  0.00    +0.023 A 
ENDBRANCH  33  35
ENDBRANCH  29  31
ENDBRANCH  25  26
ENDBRANCH  24  25
ENDBRANCH   4  24
TORSDOF 7
