REMARK  Name = ZINC19499546
REMARK  11 active torsions:
REMARK  status: ('A' for Active; 'I' for Inactive)
REMARK    1  A    between atoms: C_1  and  C_2
REMARK    2  A    between atoms: C_2  and  C_3
REMARK    3  A    between atoms: C_3  and  C_4
REMARK    4  A    between atoms: C_3  and  C_5
REMARK    5  A    between atoms: C_3  and  N_6
REMARK    6  A    between atoms: C_7  and  C_11
REMARK    7  A    between atoms: C_11  and  C_13
REMARK    8  A    between atoms: C_11  and  N_27
REMARK    9  A    between atoms: C_17  and  C_26
REMARK   10  A    between atoms: C_18  and  C_25
REMARK   11  A    between atoms: N_30  and  C_33
REMARK                            x       y       z     vdW  Elec       q    Type
REMARK                         _______ _______ _______ _____ _____    ______ ____
ROOT
ATOM      1  C   UNL     1      -2.244   0.893  -0.116  0.00  0.00    +0.162 C 
ENDROOT
BRANCH   1   2
ATOM      2  C   UNL     1      -1.120   1.866  -0.362  0.00  0.00    +0.042 A 
ATOM      3  C   UNL     1       0.120   1.404  -0.657  0.00  0.00    +0.021 A 
ATOM      4  C   UNL     1       1.190   2.375  -0.897  0.00  0.00    -0.001 A 
ATOM      5  C   UNL     1       2.488   1.960  -1.211  0.00  0.00    +0.013 A 
ATOM      6  C   UNL     1       3.463   2.891  -1.429  0.00  0.00    -0.047 A 
ATOM      7  C   UNL     1       3.178   4.247  -1.340  0.00  0.00    -0.046 A 
ATOM      8  C   UNL     1       1.906   4.679  -1.031  0.00  0.00    +0.030 A 
ATOM      9  C   UNL     1       0.896   3.749  -0.806  0.00  0.00    +0.049 A 
ATOM     10  N   UNL     1      -0.384   4.153  -0.495  0.00  0.00    -0.322 N 
ATOM     11  H   UNL     1      -0.620   5.225  -0.423  0.00  0.00    +0.169 HD
ATOM     12  C   UNL     1      -1.360   3.254  -0.277  0.00  0.00    +0.254 A 
ATOM     13  O   UNL     1      -2.481   3.647  -0.004  0.00  0.00    -0.268 OA
ATOM     14  C   UNL     1       4.270   5.256  -1.583  0.00  0.00    +0.044 C 
ATOM     15  C   UNL     1       4.861   2.443  -1.768  0.00  0.00    +0.044 C 
ENDBRANCH   1   2
BRANCH   1  16
ATOM     16  N   UNL     1      -2.848   1.164   1.195  0.00  0.00    -0.292 NA
ATOM     17  C   UNL     1      -1.858   1.019   2.271  0.00  0.00    +0.067 C 
ATOM     18  C   UNL     1      -2.505   1.386   3.609  0.00  0.00    -0.063 C 
ATOM     19  N   UNL     1      -3.665   0.515   3.844  0.00  0.00    +0.383 N 
ATOM     20  C   UNL     1      -4.655   0.660   2.768  0.00  0.00    -0.063 C 
ATOM     21  C   UNL     1      -4.008   0.293   1.430  0.00  0.00    +0.067 C 
ATOM     22  H   UNL     1      -3.313  -0.527   3.844  0.00  0.00    -0.081 HD
BRANCH  19  23
ATOM     23  C   UNL     1      -4.269   0.786   5.155  0.00  0.00    -0.068 C 
ATOM     24  C   UNL     1      -4.703   2.252   5.224  0.00  0.00    -0.015 C 
ATOM     25  C   UNL     1      -5.333   2.534   6.590  0.00  0.00    -0.002 C 
ATOM     26  C   UNL     1      -4.308   2.253   7.691  0.00  0.00    -0.000 C 
ATOM     27  C   UNL     1      -3.874   0.787   7.622  0.00  0.00    -0.002 C 
ATOM     28  C   UNL     1      -3.245   0.505   6.257  0.00  0.00    -0.015 C 
ENDBRANCH  19  23
ENDBRANCH   1  16
BRANCH   1  30
ATOM     29  N   UNL     1      -3.577   0.166  -2.166  0.00  0.00    -0.222 N 
ATOM     30  C   UNL     1      -3.288   1.050  -1.192  0.00  0.00    +0.174 A 
ATOM     31  N   UNL     1      -4.094   2.070  -1.358  0.00  0.00    -0.111 NA
ATOM     32  N   UNL     1      -4.834   1.829  -2.385  0.00  0.00    -0.023 NA
ATOM     33  N   UNL     1      -4.526   0.678  -2.874  0.00  0.00    -0.043 NA
BRANCH  29  34
ATOM     34  C   UNL     1      -2.934  -1.133  -2.381  0.00  0.00    +0.062 C 
ATOM     35  C   UNL     1      -1.428  -0.933  -2.559  0.00  0.00    +0.036 C 
ATOM     36  C   UNL     1      -3.190  -2.035  -1.172  0.00  0.00    +0.036 C 
BRANCH  34  38
ATOM     37  C   UNL     1      -2.843  -3.143  -3.862  0.00  0.00    +0.006 C 
ATOM     38  C   UNL     1      -3.514  -1.786  -3.637  0.00  0.00    +0.026 C 
ENDBRANCH  34  38
ENDBRANCH  29  34
ENDBRANCH   1  30
TORSDOF 6
