REMARK  Name = ZINC33026293
REMARK  9 active torsions:
REMARK  status: ('A' for Active; 'I' for Inactive)
REMARK    1  A    between atoms: C_1  and  C_2
REMARK    2  A    between atoms: C_9  and  C_13
REMARK    3  A    between atoms: C_13  and  S_14
REMARK    4  A    between atoms: S_14  and  C_15
REMARK    5  A    between atoms: C_20  and  N_21
REMARK    6  A    between atoms: N_21  and  S_22
REMARK    7  A    between atoms: S_22  and  C_25
REMARK    8  A    between atoms: C_28  and  C_32
REMARK    9  A    between atoms: C_29  and  C_31
REMARK                            x       y       z     vdW  Elec       q    Type
REMARK                         _______ _______ _______ _____ _____    ______ ____
ROOT
ATOM      1  C   UNL     1       2.225  -6.365   1.543  0.00  0.00    +0.031 A 
ATOM      2  C   UNL     1       2.706  -6.838   0.331  0.00  0.00    +0.016 A 
ATOM      3  C   UNL     1       2.822  -8.200   0.118  0.00  0.00    +0.001 A 
ATOM      4  C   UNL     1       2.460  -9.092   1.110  0.00  0.00    +0.002 A 
ATOM      5  C   UNL     1       1.981  -8.629   2.322  0.00  0.00    +0.025 A 
ATOM      6  C   UNL     1       1.865  -7.266   2.546  0.00  0.00    +0.061 A 
ENDROOT
BRANCH   6   7
ATOM      7  N   UNL     1       1.384  -6.794   3.773  0.00  0.00    -0.215 N 
ATOM      8  H   UNL     1       0.758  -5.890   3.808  0.00  0.00    +0.174 HD
BRANCH   7   9
ATOM      9  S   UNL     1       1.758  -7.597   5.173  0.00  0.00    +0.072 S 
ATOM     10  O   UNL     1       1.245  -6.813   6.241  0.00  0.00    -0.150 OA
ATOM     11  O   UNL     1       1.382  -8.954   4.975  0.00  0.00    -0.150 OA
BRANCH   9  12
ATOM     12  C   UNL     1       3.512  -7.579   5.331  0.00  0.00    +0.109 A 
ATOM     13  C   UNL     1       4.266  -8.604   4.790  0.00  0.00    +0.029 A 
ATOM     14  C   UNL     1       5.643  -8.587   4.910  0.00  0.00    +0.005 A 
ATOM     15  C   UNL     1       6.266  -7.551   5.580  0.00  0.00    -0.047 A 
ATOM     16  C   UNL     1       5.512  -6.529   6.127  0.00  0.00    -0.046 A 
ATOM     17  C   UNL     1       4.135  -6.543   6.002  0.00  0.00    +0.032 A 
ATOM     18  C   UNL     1       6.190  -5.400   6.857  0.00  0.00    +0.044 C 
ATOM     19  C   UNL     1       7.766  -7.535   5.716  0.00  0.00    +0.044 C 
ENDBRANCH   9  12
ENDBRANCH   7   9
ENDBRANCH   6   7
BRANCH   1  20
ATOM     20  S   UNL     1       2.077  -4.631   1.818  0.00  0.00    -0.117 S 
BRANCH  20  21
ATOM     21  C   UNL     1       2.659  -3.889   0.268  0.00  0.00    +0.130 C 
BRANCH  21  30
ATOM     22  C   UNL     1      -1.189  -0.685   0.096  0.00  0.00    +0.047 C 
ATOM     23  C   UNL     1       0.047   0.156   0.288  0.00  0.00    -0.008 A 
ATOM     24  C   UNL     1      -0.052   1.512   0.377  0.00  0.00    +0.008 A 
ATOM     25  C   UNL     1       1.107   2.280   0.555  0.00  0.00    +0.019 A 
ATOM     26  C   UNL     1       2.314   1.678   0.638  0.00  0.00    +0.096 A 
ATOM     27  N   UNL     1       2.424   0.323   0.551  0.00  0.00    -0.268 N 
ATOM     28  C   UNL     1       1.312  -0.452   0.377  0.00  0.00    +0.143 A 
ATOM     29  N   UNL     1       1.411  -1.778   0.291  0.00  0.00    -0.233 NA
ATOM     30  C   UNL     1       2.583  -2.388   0.370  0.00  0.00    +0.059 A 
ATOM     31  C   UNL     1       3.737  -1.649   0.545  0.00  0.00    +0.094 A 
ATOM     32  C   UNL     1       3.641  -0.255   0.637  0.00  0.00    +0.259 A 
ATOM     33  O   UNL     1       4.642   0.426   0.792  0.00  0.00    -0.267 OA
ENDBRANCH  21  30
ENDBRANCH  20  21
ENDBRANCH   1  20
TORSDOF 6
