REMARK  Name = ZINC12868286
REMARK  9 active torsions:
REMARK  status: ('A' for Active; 'I' for Inactive)
REMARK    1  A    between atoms: C_1  and  C_2
REMARK    2  A    between atoms: C_2  and  C_3
REMARK    3  A    between atoms: C_3  and  C_5
REMARK    4  A    between atoms: C_3  and  O_6
REMARK    5  A    between atoms: O_6  and  C_7
REMARK    6  A    between atoms: C_8  and  O_30
REMARK    7  A    between atoms: C_10  and  C_14
REMARK    8  A    between atoms: N_21  and  C_24
REMARK    9  A    between atoms: O_30  and  C_31
REMARK                            x       y       z     vdW  Elec       q    Type
REMARK                         _______ _______ _______ _____ _____    ______ ____
ROOT
ATOM      1  C   UNL     1       2.385   1.012  -1.016  0.00  0.00    +0.026 C 
ATOM      2  C   UNL     1       3.520   1.695  -1.410  0.00  0.00    +0.100 C 
ATOM      3  C   UNL     1       3.541   3.169  -1.502  0.00  0.00    +0.257 C 
ATOM      4  O   UNL     1       2.553   3.825  -1.232  0.00  0.00    -0.270 OA
ATOM      5  N   UNL     1       4.685   3.766  -1.894  0.00  0.00    -0.236 N 
ATOM      6  C   UNL     1       5.780   3.055  -2.195  0.00  0.00    +0.316 C 
ATOM      7  O   UNL     1       6.778   3.655  -2.541  0.00  0.00    -0.252 OA
ATOM      8  N   UNL     1       5.834   1.717  -2.134  0.00  0.00    -0.218 N 
ATOM      9  C   UNL     1       4.768   0.984  -1.752  0.00  0.00    +0.259 C 
ATOM     10  O   UNL     1       4.831  -0.229  -1.696  0.00  0.00    -0.269 OA
ATOM     11  H   UNL     1       4.715   4.734  -1.960  0.00  0.00    +0.159 HD
ENDROOT
BRANCH   1  15
ATOM     12  C   UNL     1      -0.914   3.137   0.587  0.00  0.00    +0.175 A 
ATOM     13  C   UNL     1      -1.120   2.189  -0.417  0.00  0.00    +0.163 A 
ATOM     14  C   UNL     1      -0.051   1.491  -0.938  0.00  0.00    +0.057 A 
ATOM     15  C   UNL     1       1.246   1.745  -0.464  0.00  0.00    -0.019 A 
ATOM     16  C   UNL     1       1.445   2.703   0.541  0.00  0.00    +0.026 A 
ATOM     17  C   UNL     1       0.370   3.390   1.058  0.00  0.00    +0.059 A 
ATOM     18  I   UNL     1       0.668   4.820   2.559  0.00  0.00    -0.040 I 
BRANCH  13  19
ATOM     19  O   UNL     1      -2.377   1.950  -0.877  0.00  0.00    -0.491 OA
ATOM     20  C   UNL     1      -2.516   0.963  -1.902  0.00  0.00    +0.277 C 
ENDBRANCH  13  19
BRANCH  12  21
ATOM     21  O   UNL     1      -1.969   3.818   1.101  0.00  0.00    -0.484 OA
BRANCH  21  22
ATOM     22  C   UNL     1      -2.299   5.064   0.484  0.00  0.00    +0.170 C 
ATOM     23  C   UNL     1      -3.115   4.806  -0.784  0.00  0.00    +0.052 C 
BRANCH  22  25
ATOM     24  C   UNL     1      -2.285   6.223   2.698  0.00  0.00    +0.007 C 
ATOM     25  C   UNL     1      -3.123   5.912   1.456  0.00  0.00    +0.041 C 
ENDBRANCH  22  25
ENDBRANCH  21  22
ENDBRANCH  12  21
ENDBRANCH   1  15
BRANCH   8  26
ATOM     26  C   UNL     1       7.083   1.035  -2.483  0.00  0.00    +0.086 C 
ATOM     27  C   UNL     1       8.199   1.504  -1.548  0.00  0.00    +0.023 C 
ATOM     28  C   UNL     1       9.503   0.792  -1.914  0.00  0.00    +0.002 C 
ATOM     29  C   UNL     1       9.877   1.123  -3.360  0.00  0.00    +0.000 C 
ATOM     30  C   UNL     1       8.761   0.653  -4.295  0.00  0.00    +0.002 C 
ATOM     31  C   UNL     1       7.457   1.366  -3.930  0.00  0.00    +0.023 C 
ENDBRANCH   8  26
TORSDOF 6
