REMARK  Name = ZINC63491699
REMARK  10 active torsions:
REMARK  status: ('A' for Active; 'I' for Inactive)
REMARK    1  A    between atoms: C_1  and  C_2
REMARK    2  A    between atoms: C_2  and  O_3
REMARK    3  A    between atoms: O_3  and  C_4
REMARK    4  A    between atoms: C_4  and  C_6
REMARK    5  A    between atoms: C_6  and  C_7
REMARK    6  A    between atoms: C_7  and  N_8
REMARK    7  A    between atoms: C_17  and  O_33
REMARK    8  A    between atoms: C_24  and  C_26
REMARK    9  A    between atoms: C_29  and  C_32
REMARK   10  A    between atoms: O_33  and  C_34
REMARK                            x       y       z     vdW  Elec       q    Type
REMARK                         _______ _______ _______ _____ _____    ______ ____
ROOT
ATOM      1  N   UNL     1       2.465  -4.272  -3.931  0.00  0.00    -0.299 N 
ATOM      2  C   UNL     1       2.423  -5.618  -3.992  0.00  0.00    +0.303 C 
ATOM      3  O   UNL     1       1.937  -6.253  -3.076  0.00  0.00    -0.253 OA
ATOM      4  N   UNL     1       2.920  -6.259  -5.068  0.00  0.00    -0.276 N 
ATOM      5  C   UNL     1       3.613  -5.497  -6.111  0.00  0.00    +0.114 C 
ATOM      6  C   UNL     1       5.040  -6.048  -6.287  0.00  0.00    +0.052 C 
ATOM      7  C   UNL     1       4.920  -7.552  -6.327  0.00  0.00    -0.035 C 
ATOM      8  C   UNL     1       5.373  -8.446  -7.196  0.00  0.00    +0.003 A 
ATOM      9  C   UNL     1       6.243  -8.317  -8.375  0.00  0.00    +0.055 A 
ATOM     10  C   UNL     1       6.500  -9.457  -9.073  0.00  0.00    +0.121 A 
ATOM     11  C   UNL     1       5.987 -10.717  -8.731  0.00  0.00    +0.047 A 
ATOM     12  C   UNL     1       5.183 -10.951  -7.663  0.00  0.00    +0.029 A 
ATOM     13  C   UNL     1       4.842  -9.794  -6.824  0.00  0.00    +0.043 A 
ATOM     14  N   UNL     1       4.125  -9.718  -5.744  0.00  0.00    -0.375 N 
ATOM     15  C   UNL     1       4.160  -8.336  -5.263  0.00  0.00    +0.131 C 
ATOM     16  C   UNL     1       2.766  -7.718  -5.181  0.00  0.00    +0.134 C 
ATOM     17  H   UNL     1       2.916  -3.769  -4.627  0.00  0.00    +0.150 HD
ATOM     18  H   UNL     1       3.646 -10.452  -5.327  0.00  0.00    +0.160 HD
ENDROOT
BRANCH  16  19
ATOM     19  C   UNL     1       1.988  -8.055  -6.427  0.00  0.00    -0.025 A 
ATOM     20  C   UNL     1       0.821  -8.790  -6.335  0.00  0.00    +0.006 A 
ATOM     21  C   UNL     1       0.107  -9.099  -7.478  0.00  0.00    +0.004 A 
ATOM     22  C   UNL     1       0.561  -8.673  -8.713  0.00  0.00    -0.050 A 
ATOM     23  C   UNL     1       1.728  -7.937  -8.804  0.00  0.00    +0.004 A 
ATOM     24  C   UNL     1       2.439  -7.625  -7.660  0.00  0.00    +0.006 A 
ATOM     25  C   UNL     1      -0.216  -9.010  -9.959  0.00  0.00    +0.044 C 
ENDBRANCH  16  19
BRANCH  10  26
ATOM     26  O   UNL     1       7.301  -9.370 -10.167  0.00  0.00    -0.495 OA
ATOM     27  C   UNL     1       7.556 -10.580 -10.883  0.00  0.00    +0.277 C 
ENDBRANCH  10  26
BRANCH   1  28
ATOM     28  C   UNL     1       1.828  -3.569  -2.815  0.00  0.00    +0.117 C 
BRANCH  28  29
ATOM     29  C   UNL     1       2.020  -2.061  -2.986  0.00  0.00    +0.139 C 
BRANCH  29  30
ATOM     30  C   UNL     1       1.365  -1.337  -1.837  0.00  0.00    +0.309 C 
ATOM     31  O   UNL     1       0.802  -1.964  -0.971  0.00  0.00    -0.251 OA
BRANCH  30  32
ATOM     32  O   UNL     1       1.406   0.003  -1.777  0.00  0.00    -0.465 OA
BRANCH  32  34
ATOM     33  C   UNL     1       0.916   2.141  -0.763  0.00  0.00    +0.048 C 
ATOM     34  C   UNL     1       0.765   0.622  -0.660  0.00  0.00    +0.229 C 
ENDBRANCH  32  34
ENDBRANCH  30  32
ENDBRANCH  29  30
ENDBRANCH  28  29
ENDBRANCH   1  28
TORSDOF 7
