REMARK  Name = ZINC23541297
REMARK  10 active torsions:
REMARK  status: ('A' for Active; 'I' for Inactive)
REMARK    1  A    between atoms: C_1  and  C_2
REMARK    2  A    between atoms: C_2  and  C_3
REMARK    3  A    between atoms: C_10  and  C_12
REMARK    4  A    between atoms: C_15  and  S_18
REMARK    5  A    between atoms: N_16  and  C_17
REMARK    6  A    between atoms: S_18  and  C_19
REMARK    7  A    between atoms: C_19  and  C_20
REMARK    8  A    between atoms: N_22  and  C_23
REMARK    9  A    between atoms: C_28  and  C_29
REMARK   10  A    between atoms: C_29  and  C_31
REMARK                            x       y       z     vdW  Elec       q    Type
REMARK                         _______ _______ _______ _____ _____    ______ ____
ROOT
ATOM      1  S   UNL     1       2.669   0.848   0.026  0.00  0.00    -0.077 S 
ENDROOT
BRANCH   1   5
ATOM      2  C   UNL     1       6.003   2.888   0.064  0.00  0.00    +0.171 A 
ATOM      3  N   UNL     1       5.086   3.829   0.080  0.00  0.00    -0.128 NA
ATOM      4  N   UNL     1       3.915   3.301   0.065  0.00  0.00    -0.122 NA
ATOM      5  C   UNL     1       4.009   1.991   0.048  0.00  0.00    +0.192 A 
ATOM      6  N   UNL     1       5.341   1.680   0.043  0.00  0.00    -0.305 N 
ATOM      7  C   UNL     1       5.938   0.343   0.020  0.00  0.00    +0.153 C 
BRANCH   2  14
ATOM      8  C   UNL     1      11.862   4.943  -0.711  0.00  0.00    -0.007 C 
ATOM      9  C   UNL     1      12.363   4.016   0.401  0.00  0.00    +0.009 C 
ATOM     10  C   UNL     1      11.596   2.688   0.318  0.00  0.00    +0.043 C 
ATOM     11  C   UNL     1      10.139   2.994   0.188  0.00  0.00    -0.006 A 
ATOM     12  C   UNL     1       9.567   4.191  -0.129  0.00  0.00    -0.036 A 
ATOM     13  C   UNL     1       8.180   4.222  -0.192  0.00  0.00    +0.023 A 
ATOM     14  C   UNL     1       7.462   3.086   0.068  0.00  0.00    +0.057 A 
ATOM     15  S   UNL     1       8.758   1.904   0.407  0.00  0.00    -0.090 S 
ATOM     16  C   UNL     1      10.441   5.412  -0.400  0.00  0.00    +0.039 C 
BRANCH   8  18
ATOM     17  C   UNL     1      12.371   7.014  -2.013  0.00  0.00    +0.004 C 
ATOM     18  C   UNL     1      12.787   6.157  -0.815  0.00  0.00    +0.000 C 
ENDBRANCH   8  18
ENDBRANCH   2  14
ENDBRANCH   1   5
BRANCH   1  19
ATOM     19  C   UNL     1       1.273   1.999   0.046  0.00  0.00    +0.173 C 
BRANCH  19  20
ATOM     20  C   UNL     1      -0.019   1.223   0.031  0.00  0.00    +0.228 C 
ATOM     21  O   UNL     1       0.003   0.010   0.009  0.00  0.00    -0.275 OA
ATOM     22  N   UNL     1      -1.198   1.876   0.036  0.00  0.00    -0.284 N 
ATOM     23  H   UNL     1      -1.219   2.972   0.130  0.00  0.00    +0.155 HD
BRANCH  22  24
ATOM     24  C   UNL     1      -2.389   1.163  -0.076  0.00  0.00    +0.048 A 
ATOM     25  C   UNL     1      -2.509  -0.088   0.508  0.00  0.00    +0.073 A 
ATOM     26  C   UNL     1      -3.694  -0.798   0.398  0.00  0.00    +0.168 A 
ATOM     27  C   UNL     1      -4.777  -0.257  -0.303  0.00  0.00    +0.167 A 
ATOM     28  C   UNL     1      -4.671   0.986  -0.889  0.00  0.00    +0.062 A 
ATOM     29  C   UNL     1      -3.478   1.714  -0.777  0.00  0.00    +0.042 A 
ATOM     30  O   UNL     1      -5.810  -1.149  -0.261  0.00  0.00    -0.453 OA
ATOM     31  C   UNL     1      -5.217  -2.406   0.117  0.00  0.00    +0.466 C 
ATOM     32  O   UNL     1      -4.055  -2.023   0.875  0.00  0.00    -0.453 OA
BRANCH  29  33
ATOM     33  C   UNL     1      -3.363   3.038  -1.393  0.00  0.00    +0.162 C 
ATOM     34  O   UNL     1      -2.299   3.622  -1.381  0.00  0.00    -0.292 OA
ATOM     35  C   UNL     1      -4.565   3.674  -2.041  0.00  0.00    +0.091 C 
ENDBRANCH  29  33
ENDBRANCH  22  24
ENDBRANCH  19  20
ENDBRANCH   1  19
TORSDOF 7
