REMARK  Name = ZINC20532167
REMARK  13 active torsions:
REMARK  status: ('A' for Active; 'I' for Inactive)
REMARK    1  A    between atoms: C_1  and  C_2
REMARK    2  A    between atoms: C_2  and  O_3
REMARK    3  A    between atoms: O_3  and  C_4
REMARK    4  A    between atoms: C_7  and  N_10
REMARK    5  A    between atoms: N_13  and  C_14
REMARK    6  A    between atoms: C_14  and  C_16
REMARK    7  A    between atoms: C_14  and  C_21
REMARK    8  A    between atoms: C_16  and  C_17
REMARK    9  A    between atoms: C_17  and  C_18
REMARK   10  A    between atoms: C_18  and  C_19
REMARK   11  A    between atoms: C_18  and  C_20
REMARK   12  A    between atoms: C_25  and  N_26
REMARK   13  A    between atoms: N_32  and  C_35
REMARK                            x       y       z     vdW  Elec       q    Type
REMARK                         _______ _______ _______ _____ _____    ______ ____
ROOT
ATOM      1  C   UNL     1      -0.854   1.400   1.571  0.00  0.00    +0.108 C 
ENDROOT
BRANCH   1   2
ATOM      2  C   UNL     1      -0.119   0.520   2.549  0.00  0.00    +0.007 A 
ATOM      3  C   UNL     1      -0.699  -0.665   2.995  0.00  0.00    -0.034 A 
ATOM      4  C   UNL     1       0.027  -1.408   3.876  0.00  0.00    -0.021 A 
ATOM      5  S   UNL     1       1.512  -0.469   4.100  0.00  0.00    -0.077 S 
ATOM      6  C   UNL     1       1.111   0.882   3.003  0.00  0.00    +0.090 A 
ATOM      7  C   UNL     1      -0.373  -2.708   4.495  0.00  0.00    -0.036 C 
ATOM      8  N   UNL     1      -1.819  -2.898   4.271  0.00  0.00    +0.381 N 
ATOM      9  C   UNL     1      -2.161  -2.661   2.862  0.00  0.00    -0.074 C 
ATOM     10  C   UNL     1      -2.067  -1.167   2.539  0.00  0.00    +0.018 C 
ATOM     11  C   UNL     1      -2.245  -4.238   4.698  0.00  0.00    -0.096 C 
ATOM     12  H   UNL     1      -2.365  -2.165   4.883  0.00  0.00    -0.082 HD
BRANCH   6  13
ATOM     13  N   UNL     1       1.866   2.019   2.691  0.00  0.00    -0.317 N 
ATOM     14  C   UNL     1       1.551   2.948   1.741  0.00  0.00    +0.092 A 
ATOM     15  C   UNL     1       2.516   3.891   1.738  0.00  0.00    +0.019 A 
ATOM     16  C   UNL     1       3.464   3.529   2.715  0.00  0.00    +0.019 A 
ATOM     17  C   UNL     1       3.042   2.380   3.283  0.00  0.00    +0.092 A 
ENDBRANCH   6  13
ENDBRANCH   1   2
BRANCH   1  21
ATOM     18  N   UNL     1      -1.788   4.917   2.094  0.00  0.00    -0.269 N 
ATOM     19  C   UNL     1      -1.796   3.646   1.648  0.00  0.00    +0.304 C 
ATOM     20  O   UNL     1      -2.662   3.277   0.878  0.00  0.00    -0.252 OA
ATOM     21  N   UNL     1      -0.845   2.782   2.056  0.00  0.00    -0.292 N 
ATOM     22  H   UNL     1      -0.958   5.275   2.722  0.00  0.00    +0.156 HD
ATOM     23  H   UNL     1      -0.062   3.115   2.753  0.00  0.00    +0.151 HD
BRANCH  18  27
ATOM     24  C   UNL     1      -4.908   7.498   1.096  0.00  0.00    +0.121 A 
ATOM     25  C   UNL     1      -5.132   6.130   1.157  0.00  0.00    +0.047 A 
ATOM     26  C   UNL     1      -4.099   5.275   1.487  0.00  0.00    +0.027 A 
ATOM     27  C   UNL     1      -2.837   5.785   1.759  0.00  0.00    +0.035 A 
ATOM     28  C   UNL     1      -2.614   7.154   1.703  0.00  0.00    +0.027 A 
ATOM     29  C   UNL     1      -3.647   8.007   1.367  0.00  0.00    +0.047 A 
BRANCH  24  30
ATOM     30  O   UNL     1      -5.925   8.339   0.770  0.00  0.00    -0.492 OA
BRANCH  30  32
ATOM     31  C   UNL     1      -6.883  10.517   0.346  0.00  0.00    +0.048 C 
ATOM     32  C   UNL     1      -5.624   9.735   0.727  0.00  0.00    +0.225 C 
ENDBRANCH  30  32
ENDBRANCH  24  30
ENDBRANCH  18  27
ENDBRANCH   1  21
BRANCH   1  33
ATOM     33  C   UNL     1      -0.164   1.334   0.207  0.00  0.00    +0.027 C 
BRANCH  33  34
ATOM     34  C   UNL     1      -0.979   2.127  -0.816  0.00  0.00    +0.005 C 
BRANCH  34  35
ATOM     35  C   UNL     1      -0.289   2.061  -2.180  0.00  0.00    -0.017 C 
ATOM     36  C   UNL     1      -0.299   0.617  -2.687  0.00  0.00    +0.007 C 
ATOM     37  C   UNL     1      -1.035   2.954  -3.173  0.00  0.00    +0.007 C 
ENDBRANCH  34  35
ENDBRANCH  33  34
ENDBRANCH   1  33
TORSDOF 9
