REMARK  Name = ZINC36508912
REMARK  20 active torsions:
REMARK  status: ('A' for Active; 'I' for Inactive)
REMARK    1  A    between atoms: C_1  and  C_2
REMARK    2  A    between atoms: C_2  and  C_3
REMARK    3  A    between atoms: C_3  and  C_4
REMARK    4  A    between atoms: C_4  and  C_5
REMARK    5  A    between atoms: C_5  and  C_6
REMARK    6  A    between atoms: C_6  and  N_7
REMARK    7  A    between atoms: N_7  and  C_8
REMARK    8  A    between atoms: C_8  and  C_10
REMARK    9  A    between atoms: C_8  and  C_19
REMARK   10  A    between atoms: C_11  and  O_18
REMARK   11  A    between atoms: C_13  and  O_17
REMARK   12  A    between atoms: C_15  and  O_16
REMARK   13  A    between atoms: N_21  and  C_22
REMARK   14  A    between atoms: C_22  and  C_23
REMARK   15  A    between atoms: C_22  and  C_24
REMARK   16  A    between atoms: C_22  and  C_25
REMARK   17  A    between atoms: C_26  and  C_28
REMARK   18  A    between atoms: C_28  and  C_30
REMARK   19  A    between atoms: C_28  and  O_36
REMARK   20  A    between atoms: O_36  and  C_37
REMARK                            x       y       z     vdW  Elec       q    Type
REMARK                         _______ _______ _______ _____ _____    ______ ____
ROOT
ATOM      1  C   UNL     1       1.612  -5.121   3.730  0.00  0.00    +0.199 C 
ENDROOT
BRANCH   1   2
ATOM      2  C   UNL     1       1.803  -6.596   3.486  0.00  0.00    +0.065 A 
ATOM      3  C   UNL     1       1.841  -7.476   4.556  0.00  0.00    +0.129 A 
ATOM      4  C   UNL     1       2.017  -8.834   4.331  0.00  0.00    +0.091 A 
ATOM      5  C   UNL     1       2.155  -9.310   3.036  0.00  0.00    +0.124 A 
ATOM      6  C   UNL     1       2.115  -8.429   1.966  0.00  0.00    +0.091 A 
ATOM      7  C   UNL     1       1.935  -7.072   2.190  0.00  0.00    +0.129 A 
BRANCH   7   8
ATOM      8  O   UNL     1       1.892  -6.210   1.141  0.00  0.00    -0.506 OA
ATOM      9  H   UNL     1       2.756  -5.855   0.888  0.00  0.00    +0.292 HD
ENDBRANCH   7   8
BRANCH   5  10
ATOM     10  O   UNL     1       2.328 -10.639   2.816  0.00  0.00    -0.507 OA
ATOM     11  H   UNL     1       1.502 -11.129   2.698  0.00  0.00    +0.292 HD
ENDBRANCH   5  10
BRANCH   3  12
ATOM     12  O   UNL     1       1.707  -7.010   5.825  0.00  0.00    -0.506 OA
ATOM     13  H   UNL     1       0.803  -7.052   6.166  0.00  0.00    +0.292 HD
ENDBRANCH   3  12
ENDBRANCH   1   2
BRANCH   1  14
ATOM     14  C   UNL     1       0.274  -4.691   3.186  0.00  0.00    +0.239 C 
ATOM     15  O   UNL     1       0.209  -3.782   2.385  0.00  0.00    -0.273 OA
ATOM     16  N   UNL     1      -0.850  -5.316   3.588  0.00  0.00    -0.309 N 
ATOM     17  H   UNL     1      -0.798  -6.043   4.228  0.00  0.00    +0.149 HD
BRANCH  16  18
ATOM     18  C   UNL     1      -2.150  -4.898   3.059  0.00  0.00    +0.026 C 
ATOM     19  C   UNL     1      -2.159  -5.064   1.538  0.00  0.00    +0.031 C 
ATOM     20  C   UNL     1      -3.253  -5.763   3.673  0.00  0.00    +0.031 C 
ATOM     21  C   UNL     1      -2.397  -3.430   3.413  0.00  0.00    +0.031 C 
ENDBRANCH  16  18
ENDBRANCH   1  14
BRANCH   1  22
ATOM     22  N   UNL     1       2.677  -4.372   3.058  0.00  0.00    -0.283 N 
ATOM     23  C   UNL     1       3.906  -4.309   3.606  0.00  0.00    +0.250 C 
ATOM     24  O   UNL     1       4.105  -4.783   4.704  0.00  0.00    -0.272 OA
BRANCH  22  25
ATOM     25  C   UNL     1       2.405  -3.693   1.788  0.00  0.00    +0.109 C 
BRANCH  25  26
ATOM     26  C   UNL     1       2.069  -2.225   2.058  0.00  0.00    +0.019 C 
BRANCH  26  27
ATOM     27  C   UNL     1       1.627  -1.555   0.755  0.00  0.00    +0.002 C 
BRANCH  27  28
ATOM     28  C   UNL     1       1.292  -0.087   1.024  0.00  0.00    -0.000 C 
BRANCH  28  30
ATOM     29  C   UNL     1       0.514   2.050  -0.010  0.00  0.00    +0.004 C 
ATOM     30  C   UNL     1       0.850   0.582  -0.279  0.00  0.00    -0.003 C 
ENDBRANCH  28  30
ENDBRANCH  27  28
ENDBRANCH  26  27
ENDBRANCH  25  26
ENDBRANCH  22  25
BRANCH  23  31
ATOM     31  C   UNL     1       5.033  -3.648   2.855  0.00  0.00    +0.233 C 
BRANCH  31  32
ATOM     32  C   UNL     1       5.584  -4.607   1.830  0.00  0.00    -0.010 A 
ATOM     33  C   UNL     1       6.456  -5.607   2.218  0.00  0.00    +0.006 A 
ATOM     34  C   UNL     1       6.961  -6.486   1.278  0.00  0.00    +0.000 A 
ATOM     35  C   UNL     1       6.593  -6.365  -0.049  0.00  0.00    +0.000 A 
ATOM     36  C   UNL     1       5.720  -5.366  -0.436  0.00  0.00    +0.000 A 
ATOM     37  C   UNL     1       5.212  -4.489   0.504  0.00  0.00    +0.006 A 
ENDBRANCH  31  32
BRANCH  31  38
ATOM     38  O   UNL     1       6.068  -3.285   3.771  0.00  0.00    -0.366 OA
ATOM     39  C   UNL     1       5.924  -1.973   4.320  0.00  0.00    +0.195 C 
ENDBRANCH  31  38
ENDBRANCH  23  31
ENDBRANCH   1  22
TORSDOF 15
