REMARK  Name = ZINC39467767
REMARK  11 active torsions:
REMARK  status: ('A' for Active; 'I' for Inactive)
REMARK    1  A    between atoms: C_1  and  O_2
REMARK    2  A    between atoms: O_2  and  C_3
REMARK    3  A    between atoms: C_6  and  C_13
REMARK    4  A    between atoms: C_7  and  O_11
REMARK    5  A    between atoms: C_8  and  O_9
REMARK    6  A    between atoms: O_9  and  C_10
REMARK    7  A    between atoms: O_11  and  C_12
REMARK    8  A    between atoms: C_13  and  N_14
REMARK    9  A    between atoms: C_18  and  C_21
REMARK   10  A    between atoms: C_25  and  C_27
REMARK   11  A    between atoms: C_31  and  C_33
REMARK                            x       y       z     vdW  Elec       q    Type
REMARK                         _______ _______ _______ _____ _____    ______ ____
ROOT
ATOM      1  N   UNL     1       1.488  -2.931  -5.356  0.00  0.00    +0.383 N 
ATOM      2  C   UNL     1       0.798  -1.757  -5.902  0.00  0.00    -0.078 C 
ATOM      3  C   UNL     1      -0.320  -2.210  -6.844  0.00  0.00    -0.018 C 
ATOM      4  C   UNL     1       0.285  -3.027  -7.989  0.00  0.00    +0.006 C 
ATOM      5  C   UNL     1       1.065  -4.208  -7.404  0.00  0.00    +0.020 C 
ATOM      6  C   UNL     1       2.131  -3.681  -6.442  0.00  0.00    -0.069 C 
ATOM      7  H   UNL     1       0.820  -3.525  -4.889  0.00  0.00    -0.081 HD
ENDROOT
BRANCH   5   8
ATOM      8  C   UNL     1       1.727  -4.976  -8.519  0.00  0.00    +0.055 C 
ATOM      9  N   UNL     1       2.996  -5.114  -8.722  0.00  0.00    -0.158 NA
ATOM     10  N   UNL     1       3.272  -5.888  -9.845  0.00  0.00    -0.161 NA
ATOM     11  C   UNL     1       2.200  -6.298 -10.438  0.00  0.00    +0.121 C 
ATOM     12  C   UNL     1       1.042  -5.749  -9.628  0.00  0.00    +0.108 C 
BRANCH  12  13
ATOM     13  C   UNL     1       0.196  -4.830 -10.472  0.00  0.00    -0.033 A 
ATOM     14  C   UNL     1       0.781  -3.774 -11.144  0.00  0.00    +0.004 A 
ATOM     15  C   UNL     1       0.005  -2.932 -11.918  0.00  0.00    +0.001 A 
ATOM     16  C   UNL     1      -1.357  -3.146 -12.020  0.00  0.00    +0.012 A 
ATOM     17  C   UNL     1      -1.942  -4.203 -11.348  0.00  0.00    +0.055 A 
ATOM     18  C   UNL     1      -1.165  -5.048 -10.578  0.00  0.00    +0.017 A 
BRANCH  17  19
ATOM     19  C   UNL     1      -3.427  -4.436 -11.459  0.00  0.00    +0.417 C 
ATOM     20  F   UNL     1      -3.991  -3.462 -12.289  0.00  0.00    -0.166 F 
ATOM     21  F   UNL     1      -3.660  -5.704 -12.003  0.00  0.00    -0.166 F 
ATOM     22  F   UNL     1      -4.007  -4.360 -10.189  0.00  0.00    -0.166 F 
ENDBRANCH  17  19
ENDBRANCH  12  13
ENDBRANCH   5   8
BRANCH   1  23
ATOM     23  C   UNL     1       2.509  -2.494  -4.394  0.00  0.00    -0.039 C 
BRANCH  23  27
ATOM     24  C   UNL     1       0.606  -0.608  -1.056  0.00  0.00    +0.165 A 
ATOM     25  C   UNL     1       1.173   0.160  -2.063  0.00  0.00    +0.050 A 
ATOM     26  C   UNL     1       1.787  -0.452  -3.139  0.00  0.00    +0.009 A 
ATOM     27  C   UNL     1       1.838  -1.831  -3.217  0.00  0.00    -0.018 A 
ATOM     28  C   UNL     1       1.274  -2.606  -2.216  0.00  0.00    +0.167 A 
ATOM     29  C   UNL     1       0.661  -1.994  -1.128  0.00  0.00    +0.204 A 
BRANCH  24  31
ATOM     30  C   UNL     1      -0.017   1.425   0.010  0.00  0.00    +0.277 C 
ATOM     31  O   UNL     1       0.002  -0.004   0.002  0.00  0.00    -0.491 OA
ENDBRANCH  24  31
BRANCH  29  32
ATOM     32  O   UNL     1       0.111  -2.751  -0.140  0.00  0.00    -0.488 OA
ATOM     33  C   UNL     1      -1.260  -3.123  -0.295  0.00  0.00    +0.277 C 
ENDBRANCH  29  32
BRANCH  28  34
ATOM     34  O   UNL     1       1.325  -3.963  -2.294  0.00  0.00    -0.491 OA
ATOM     35  C   UNL     1       2.456  -4.605  -1.704  0.00  0.00    +0.277 C 
ENDBRANCH  28  34
ENDBRANCH  23  27
ENDBRANCH   1  23
TORSDOF 8
