REMARK  Name = ZINC39016645
REMARK  7 active torsions:
REMARK  status: ('A' for Active; 'I' for Inactive)
REMARK    1  A    between atoms: C_1  and  C_2
REMARK    2  A    between atoms: C_5  and  C_8
REMARK    3  A    between atoms: C_10  and  C_14
REMARK    4  A    between atoms: C_18  and  S_22
REMARK    5  A    between atoms: N_20  and  N_21
REMARK    6  A    between atoms: S_22  and  C_23
REMARK    7  A    between atoms: C_23  and  C_24
REMARK                            x       y       z     vdW  Elec       q    Type
REMARK                         _______ _______ _______ _____ _____    ______ ____
ROOT
ATOM      1  C   UNL     1      -1.156  -7.214   0.974  0.00  0.00    +0.185 C 
ATOM      2  N   UNL     1      -1.240  -7.270   2.456  0.00  0.00    -0.234 NA
ATOM      3  N   UNL     1      -2.059  -8.454   2.733  0.00  0.00    -0.228 NA
ATOM      4  C   UNL     1      -1.943  -9.339   1.556  0.00  0.00    +0.214 C 
ATOM      5  N   UNL     1      -1.055  -8.647   0.590  0.00  0.00    -0.197 NA
ATOM      6  H   UNL     1      -0.323  -7.361   2.868  0.00  0.00    +0.143 HD
ATOM      7  H   UNL     1      -3.020  -8.198   2.900  0.00  0.00    +0.143 HD
ENDROOT
BRANCH   1  10
ATOM      8  C   UNL     1       0.061  -4.256  -0.021  0.00  0.00    +0.091 C 
ATOM      9  C   UNL     1       0.071  -5.030   1.081  0.00  0.00    +0.034 C 
ATOM     10  C   UNL     1       0.090  -6.445   0.530  0.00  0.00    +0.187 C 
ATOM     11  N   UNL     1       0.087  -6.239  -0.927  0.00  0.00    -0.176 NA
ATOM     12  N   UNL     1       0.065  -5.025  -1.142  0.00  0.00    -0.154 NA
BRANCH   8  17
ATOM     13  C   UNL     1      -0.018   1.503   0.010  0.00  0.00    +0.044 C 
ATOM     14  C   UNL     1       0.002  -0.004   0.002  0.00  0.00    -0.050 A 
ATOM     15  C   UNL     1       0.006  -0.686  -1.201  0.00  0.00    +0.004 A 
ATOM     16  C   UNL     1       0.025  -2.066  -1.215  0.00  0.00    +0.010 A 
ATOM     17  C   UNL     1       0.041  -2.772  -0.013  0.00  0.00    +0.002 A 
ATOM     18  C   UNL     1       0.037  -2.080   1.196  0.00  0.00    +0.010 A 
ATOM     19  C   UNL     1       0.023  -0.700   1.198  0.00  0.00    +0.004 A 
ENDBRANCH   8  17
ENDBRANCH   1  10
BRANCH   5  20
ATOM     20  N   UNL     1      -1.504  -8.854  -0.777  0.00  0.00    -0.264 NA
ATOM     21  H   UNL     1      -1.436  -9.826  -1.038  0.00  0.00    +0.137 HD
ATOM     22  H   UNL     1      -2.445  -8.511  -0.905  0.00  0.00    +0.137 HD
ENDBRANCH   5  20
BRANCH   4  23
ATOM     23  S   UNL     1      -1.220 -10.930   2.042  0.00  0.00    -0.119 S 
BRANCH  23  24
ATOM     24  C   UNL     1       0.386 -10.481   2.757  0.00  0.00    +0.107 C 
BRANCH  24  25
ATOM     25  C   UNL     1       1.101 -11.728   3.208  0.00  0.00    -0.037 A 
ATOM     26  C   UNL     1       0.917 -12.204   4.493  0.00  0.00    +0.005 A 
ATOM     27  C   UNL     1       1.572 -13.349   4.907  0.00  0.00    +0.015 A 
ATOM     28  C   UNL     1       2.413 -14.018   4.036  0.00  0.00    +0.018 A 
ATOM     29  C   UNL     1       2.597 -13.541   2.750  0.00  0.00    +0.015 A 
ATOM     30  C   UNL     1       1.938 -12.400   2.335  0.00  0.00    +0.005 A 
ATOM     31 BR   UNL     1       3.310 -15.583   4.602  0.00  0.00    -0.050 Br
ENDBRANCH  24  25
ENDBRANCH  23  24
ENDBRANCH   4  23
TORSDOF 6
