REMARK  Name = ZINC40982864
REMARK  11 active torsions:
REMARK  status: ('A' for Active; 'I' for Inactive)
REMARK    1  A    between atoms: C_1  and  C_2
REMARK    2  A    between atoms: C_2  and  C_3
REMARK    3  A    between atoms: C_3  and  S_4
REMARK    4  A    between atoms: S_4  and  C_5
REMARK    5  A    between atoms: C_10  and  C_27
REMARK    6  A    between atoms: C_12  and  C_16
REMARK    7  A    between atoms: C_13  and  C_15
REMARK    8  A    between atoms: N_18  and  C_19
REMARK    9  A    between atoms: C_24  and  O_25
REMARK   10  A    between atoms: O_25  and  C_26
REMARK   11  A    between atoms: C_28  and  C_32
REMARK                            x       y       z     vdW  Elec       q    Type
REMARK                         _______ _______ _______ _____ _____    ______ ____
ROOT
ATOM      1  C   UNL     1       1.664  -2.422   2.704  0.00  0.00    +0.210 A 
ATOM      2  N   UNL     1       2.136  -1.516   3.572  0.00  0.00    -0.187 NA
ATOM      3  C   UNL     1       2.699  -2.127   4.579  0.00  0.00    +0.219 A 
ATOM      4  N   UNL     1       2.600  -3.463   4.368  0.00  0.00    -0.219 N 
ATOM      5  N   UNL     1       1.924  -3.629   3.160  0.00  0.00    -0.141 NA
ATOM      6  C   UNL     1       3.131  -4.467   5.287  0.00  0.00    +0.184 C 
ATOM      7  C   UNL     1       3.508  -3.808   6.587  0.00  0.00    +0.061 C 
ATOM      8  C   UNL     1       3.585  -2.478   6.737  0.00  0.00    +0.018 C 
ATOM      9  N   UNL     1       3.313  -1.608   5.710  0.00  0.00    -0.287 N 
ATOM     10  C   UNL     1       3.983  -1.919   8.079  0.00  0.00    +0.061 C 
ATOM     11  H   UNL     1       3.541  -0.667   5.772  0.00  0.00    +0.155 HD
ENDROOT
BRANCH   6  12
ATOM     12  C   UNL     1       4.349  -5.111   4.678  0.00  0.00    +0.022 A 
ATOM     13  C   UNL     1       4.607  -6.426   4.472  0.00  0.00    -0.038 A 
ATOM     14  C   UNL     1       5.807  -6.791   3.890  0.00  0.00    +0.011 A 
ATOM     15  C   UNL     1       6.689  -5.823   3.541  0.00  0.00    +0.046 A 
ATOM     16  S   UNL     1       5.825  -4.340   4.033  0.00  0.00    -0.099 S 
ATOM     17  C   UNL     1       3.602  -7.475   4.873  0.00  0.00    +0.044 C 
ENDBRANCH   6  12
BRANCH   7  18
ATOM     18  C   UNL     1       3.794  -4.631   7.701  0.00  0.00    +0.248 C 
ATOM     19  O   UNL     1       2.887  -5.055   8.394  0.00  0.00    -0.270 OA
ATOM     20  N   UNL     1       5.071  -4.945   7.997  0.00  0.00    -0.279 N 
ATOM     21  H   UNL     1       5.787  -4.675   7.401  0.00  0.00    +0.155 HD
BRANCH  20  22
ATOM     22  C   UNL     1       5.364  -5.663   9.164  0.00  0.00    +0.076 A 
ATOM     23  C   UNL     1       4.443  -6.566   9.674  0.00  0.00    +0.027 A 
ATOM     24  C   UNL     1       4.734  -7.273  10.825  0.00  0.00    +0.002 A 
ATOM     25  C   UNL     1       5.942  -7.082  11.471  0.00  0.00    +0.004 A 
ATOM     26  C   UNL     1       6.864  -6.183  10.969  0.00  0.00    +0.047 A 
ATOM     27  C   UNL     1       6.582  -5.475   9.812  0.00  0.00    +0.141 A 
BRANCH  27  28
ATOM     28  O   UNL     1       7.491  -4.594   9.313  0.00  0.00    -0.493 OA
ATOM     29  C   UNL     1       8.719  -4.453  10.030  0.00  0.00    +0.277 C 
ENDBRANCH  27  28
ENDBRANCH  20  22
ENDBRANCH   7  18
BRANCH   1  30
ATOM     30  S   UNL     1       0.826  -2.057   1.198  0.00  0.00    -0.084 S 
BRANCH  30  31
ATOM     31  C   UNL     1       0.788  -0.244   1.145  0.00  0.00    +0.077 C 
BRANCH  31  33
ATOM     32  C   UNL     1       0.046   1.743  -0.174  0.00  0.00    +0.004 C 
ATOM     33  C   UNL     1       0.077   0.214  -0.130  0.00  0.00    +0.008 C 
ENDBRANCH  31  33
ENDBRANCH  30  31
ENDBRANCH   1  30
TORSDOF 7
