REMARK  Name = ZINC28052172
REMARK  6 active torsions:
REMARK  status: ('A' for Active; 'I' for Inactive)
REMARK    1  A    between atoms: C_1  and  C_2
REMARK    2  A    between atoms: C_2  and  O_3
REMARK    3  A    between atoms: O_3  and  C_4
REMARK    4  A    between atoms: C_9  and  C_10
REMARK    5  A    between atoms: C_13  and  C_33
REMARK    6  A    between atoms: C_23  and  C_26
REMARK                            x       y       z     vdW  Elec       q    Type
REMARK                         _______ _______ _______ _____ _____    ______ ____
ROOT
ATOM      1  C   UNL     1       1.774  -1.796  -0.032  0.00  0.00    +0.094 C 
ATOM      2  C   UNL     1       1.323  -0.371  -0.016  0.00  0.00    +0.049 A 
ATOM      3  C   UNL     1       2.019   0.835  -0.015  0.00  0.00    +0.087 A 
ATOM      4  N   UNL     1       1.112   1.779   0.001  0.00  0.00    -0.081 NA
ATOM      5  O   UNL     1      -0.016   1.324   0.009  0.00  0.00    -0.339 OA
ATOM      6  C   UNL     1       0.002  -0.004   0.002  0.00  0.00    +0.226 A 
ATOM      7  N   UNL     1      -1.002  -0.951   0.012  0.00  0.00    -0.286 N 
ATOM      8  C   UNL     1      -0.672  -2.255   0.295  0.00  0.00    +0.019 C 
ATOM      9  C   UNL     1       0.603  -2.698   0.299  0.00  0.00    +0.024 C 
ATOM     10  C   UNL     1       0.903  -4.037   0.613  0.00  0.00    +0.162 C 
ATOM     11  O   UNL     1       2.060  -4.406   0.590  0.00  0.00    -0.292 OA
ATOM     12  C   UNL     1      -0.174  -5.019   0.977  0.00  0.00    +0.088 C 
ATOM     13  C   UNL     1      -1.351  -4.260   1.599  0.00  0.00    +0.032 C 
ATOM     14  C   UNL     1      -1.816  -3.195   0.604  0.00  0.00    +0.059 C 
ATOM     15  C   UNL     1       3.515   1.016  -0.028  0.00  0.00    +0.069 C 
ATOM     16  H   UNL     1      -2.039  -0.655  -0.203  0.00  0.00    +0.155 HD
ENDROOT
BRANCH  13  17
ATOM     17  C   UNL     1      -2.480  -5.217   1.883  0.00  0.00    -0.043 A 
ATOM     18  C   UNL     1      -3.061  -5.927   0.849  0.00  0.00    +0.005 A 
ATOM     19  C   UNL     1      -4.092  -6.809   1.110  0.00  0.00    +0.020 A 
ATOM     20  C   UNL     1      -4.551  -6.973   2.405  0.00  0.00    +0.041 A 
ATOM     21  C   UNL     1      -3.974  -6.258   3.438  0.00  0.00    +0.020 A 
ATOM     22  C   UNL     1      -2.938  -5.380   3.177  0.00  0.00    +0.005 A 
ATOM     23 CL   UNL     1      -5.852  -8.075   2.732  0.00  0.00    -0.084 Cl
ENDBRANCH  13  17
BRANCH   1  29
ATOM     24  C   UNL     1       3.616  -2.562  -1.552  0.00  0.00    +0.125 A 
ATOM     25  C   UNL     1       4.100  -2.879  -2.813  0.00  0.00    +0.046 A 
ATOM     26  C   UNL     1       3.273  -2.774  -3.914  0.00  0.00    +0.004 A 
ATOM     27  C   UNL     1       1.964  -2.355  -3.761  0.00  0.00    +0.001 A 
ATOM     28  C   UNL     1       1.479  -2.043  -2.505  0.00  0.00    +0.008 A 
ATOM     29  C   UNL     1       2.303  -2.141  -1.401  0.00  0.00    +0.006 A 
BRANCH  24  30
ATOM     30  O   UNL     1       4.428  -2.663  -0.466  0.00  0.00    -0.492 OA
BRANCH  30  32
ATOM     31  C   UNL     1       6.523  -3.154   0.633  0.00  0.00    +0.048 C 
ATOM     32  C   UNL     1       5.768  -3.103  -0.697  0.00  0.00    +0.225 C 
ENDBRANCH  30  32
ENDBRANCH  24  30
ENDBRANCH   1  29
TORSDOF 4
