REMARK  Name = ZINC24473188
REMARK  5 active torsions:
REMARK  status: ('A' for Active; 'I' for Inactive)
REMARK    1  A    between atoms: C_3  and  C_6
REMARK    2  A    between atoms: C_6  and  C_8
REMARK    3  A    between atoms: C_6  and  N_29
REMARK    4  A    between atoms: C_8  and  N_9
REMARK    5  A    between atoms: C_10  and  C_12
REMARK                            x       y       z     vdW  Elec       q    Type
REMARK                         _______ _______ _______ _____ _____    ______ ____
ROOT
ATOM      1  N   UNL     1      -2.623   3.732  -1.309  0.00  0.00    -0.312 N 
ATOM      2  C   UNL     1      -3.015   4.387  -2.420  0.00  0.00    +0.244 C 
ATOM      3  O   UNL     1      -2.424   4.213  -3.468  0.00  0.00    -0.270 OA
ATOM      4  H   UNL     1      -3.157   3.889  -0.361  0.00  0.00    +0.149 HD
ENDROOT
BRANCH   2   5
ATOM      5  C   UNL     1      -4.165   5.317  -2.364  0.00  0.00    +0.039 A 
ATOM      6  C   UNL     1      -4.840   5.512  -1.153  0.00  0.00    +0.014 A 
ATOM      7  C   UNL     1      -5.908   6.361  -1.082  0.00  0.00    +0.016 A 
ATOM      8  C   UNL     1      -6.327   7.042  -2.223  0.00  0.00    +0.065 A 
ATOM      9  C   UNL     1      -5.651   6.864  -3.450  0.00  0.00    +0.079 A 
ATOM     10  C   UNL     1      -4.566   5.989  -3.513  0.00  0.00    +0.041 A 
ATOM     11  N   UNL     1      -6.102   7.547  -4.521  0.00  0.00    -0.233 NA
ATOM     12  C   UNL     1      -7.096   8.379  -4.501  0.00  0.00    +0.113 A 
ATOM     13  N   UNL     1      -7.744   8.672  -3.356  0.00  0.00    -0.296 N 
ATOM     14  C   UNL     1      -7.466   7.965  -2.215  0.00  0.00    +0.262 A 
ATOM     15  O   UNL     1      -8.149   8.127  -1.219  0.00  0.00    -0.267 OA
ATOM     16  C   UNL     1      -8.730   9.716  -3.178  0.00  0.00    +0.126 C 
ATOM     17  C   UNL     1      -9.227  10.438  -4.430  0.00  0.00    +0.022 C 
ATOM     18  C   UNL     1      -8.352  11.652  -4.692  0.00  0.00    +0.002 C 
ATOM     19  C   UNL     1      -7.085  11.502  -5.472  0.00  0.00    +0.000 C 
ATOM     20  C   UNL     1      -6.572  10.208  -6.081  0.00  0.00    +0.008 C 
ATOM     21  C   UNL     1      -7.486   9.006  -5.830  0.00  0.00    +0.074 C 
ENDBRANCH   2   5
BRANCH   1  22
ATOM     22  C   UNL     1      -1.484   2.812  -1.365  0.00  0.00    +0.097 C 
BRANCH  22  23
ATOM     23  C   UNL     1      -1.250   2.205   0.020  0.00  0.00    +0.016 C 
BRANCH  23  24
ATOM     24  N   UNL     1      -1.085   3.283   1.005  0.00  0.00    +0.387 N 
ATOM     25  C   UNL     1       0.013   4.181   0.623  0.00  0.00    -0.078 C 
ATOM     26  C   UNL     1       0.063   5.368   1.587  0.00  0.00    -0.019 C 
ATOM     27  C   UNL     1       0.273   4.851   3.014  0.00  0.00    -0.004 C 
ATOM     28  C   UNL     1      -0.857   3.882   3.369  0.00  0.00    -0.019 C 
ATOM     29  C   UNL     1      -0.880   2.738   2.353  0.00  0.00    -0.078 C 
ATOM     30  H   UNL     1      -2.012   3.875   1.020  0.00  0.00    -0.081 HD
ENDBRANCH  23  24
BRANCH  23  33
ATOM     31  C   UNL     1       1.389  -0.366  -0.020  0.00  0.00    +0.041 A 
ATOM     32  C   UNL     1       0.028   0.011   0.034  0.00  0.00    +0.043 A 
ATOM     33  C   UNL     1      -0.007   1.355  -0.007  0.00  0.00    +0.093 A 
ATOM     34  O   UNL     1       1.254   1.810  -0.083  0.00  0.00    -0.469 OA
ATOM     35  C   UNL     1       2.105   0.770  -0.091  0.00  0.00    +0.195 A 
ENDBRANCH  23  33
ENDBRANCH  22  23
ENDBRANCH   1  22
TORSDOF 5
