REMARK  Name = ZINC28060085
REMARK  3 active torsions:
REMARK  status: ('A' for Active; 'I' for Inactive)
REMARK    1  A    between atoms: C_1  and  C_2
REMARK    2  A    between atoms: C_10  and  C_13
REMARK    3  A    between atoms: C_20  and  C_28
REMARK                            x       y       z     vdW  Elec       q    Type
REMARK                         _______ _______ _______ _____ _____    ______ ____
ROOT
ATOM      1  C   UNL     1      -0.702   1.057  -0.170  0.00  0.00    +0.044 C 
ATOM      2  C   UNL     1      -1.256   1.563   1.137  0.00  0.00    -0.050 A 
ATOM      3  C   UNL     1      -2.606   1.849   1.248  0.00  0.00    +0.007 A 
ATOM      4  C   UNL     1      -3.130   2.310   2.442  0.00  0.00    +0.046 A 
ATOM      5  C   UNL     1      -2.298   2.499   3.530  0.00  0.00    +0.131 A 
ATOM      6  C   UNL     1      -0.931   2.214   3.418  0.00  0.00    +0.038 A 
ATOM      7  C   UNL     1      -0.413   1.746   2.217  0.00  0.00    +0.016 A 
ATOM      8  C   UNL     1      -0.069   2.422   4.606  0.00  0.00    +0.050 C 
ATOM      9  C   UNL     1      -0.532   3.182   5.601  0.00  0.00    +0.025 C 
ATOM     10  C   UNL     1      -1.905   3.804   5.475  0.00  0.00    +0.234 C 
ATOM     11  O   UNL     1      -2.770   2.961   4.715  0.00  0.00    -0.479 OA
ATOM     12  C   UNL     1       0.268   3.450   6.851  0.00  0.00    +0.175 C 
ATOM     13  N   UNL     1       1.409   2.549   6.920  0.00  0.00    -0.201 N 
ATOM     14  C   UNL     1       1.838   1.790   5.878  0.00  0.00    +0.240 A 
ATOM     15  N   UNL     1       2.876   1.119   6.288  0.00  0.00    -0.092 NA
ATOM     16  N   UNL     1       3.129   1.397   7.521  0.00  0.00    -0.021 NA
ATOM     17  N   UNL     1       2.276   2.259   7.973  0.00  0.00    -0.042 NA
ATOM     18  N   UNL     1       1.191   1.814   4.654  0.00  0.00    -0.282 N 
ATOM     19  H   UNL     1       1.628   1.381   3.742  0.00  0.00    +0.155 HD
ENDROOT
BRANCH  10  20
ATOM     20  C   UNL     1      -1.784   5.140   4.789  0.00  0.00    -0.002 A 
ATOM     21  C   UNL     1      -1.907   6.306   5.521  0.00  0.00    +0.007 A 
ATOM     22  C   UNL     1      -1.791   7.532   4.892  0.00  0.00    +0.001 A 
ATOM     23  C   UNL     1      -1.562   7.592   3.530  0.00  0.00    +0.015 A 
ATOM     24  C   UNL     1      -1.445   6.425   2.797  0.00  0.00    +0.018 A 
ATOM     25  C   UNL     1      -1.556   5.199   3.427  0.00  0.00    +0.022 A 
ATOM     26 BR   UNL     1      -1.133   6.507   0.934  0.00  0.00    -0.050 Br
ENDBRANCH  10  20
BRANCH  12  27
ATOM     27  C   UNL     1       0.758   4.875   6.835  0.00  0.00    -0.001 A 
ATOM     28  C   UNL     1       0.392   5.756   7.841  0.00  0.00    +0.009 A 
ATOM     29  C   UNL     1       0.866   7.057   7.784  0.00  0.00    +0.020 A 
ATOM     30  C   UNL     1       1.683   7.431   6.734  0.00  0.00    +0.111 A 
ATOM     31  N   UNL     1       2.011   6.567   5.794  0.00  0.00    -0.263 NA
ATOM     32  C   UNL     1       1.583   5.319   5.819  0.00  0.00    +0.116 A 
ENDBRANCH  12  27
TORSDOF 2
