REMARK  Name = ZINC38739769
REMARK  7 active torsions:
REMARK  status: ('A' for Active; 'I' for Inactive)
REMARK    1  A    between atoms: C_4  and  C_7
REMARK    2  A    between atoms: C_7  and  S_8
REMARK    3  A    between atoms: S_8  and  C_9
REMARK    4  A    between atoms: C_9  and  C_10
REMARK    5  A    between atoms: C_10  and  N_11
REMARK    6  A    between atoms: C_12  and  C_14
REMARK    7  A    between atoms: C_20  and  C_22
REMARK                            x       y       z     vdW  Elec       q    Type
REMARK                         _______ _______ _______ _____ _____    ______ ____
ROOT
ATOM      1  C   UNL     1       9.687  -4.082   3.616  0.00  0.00    +0.087 C 
ATOM      2  C   UNL     1      10.685  -3.217   2.844  0.00  0.00    +0.013 C 
ATOM      3  C   UNL     1      12.006  -3.973   2.694  0.00  0.00    +0.001 C 
ATOM      4  C   UNL     1      12.572  -4.290   4.079  0.00  0.00    +0.001 C 
ATOM      5  C   UNL     1      11.575  -5.155   4.852  0.00  0.00    +0.013 C 
ATOM      6  C   UNL     1      10.253  -4.399   5.002  0.00  0.00    +0.087 C 
ENDROOT
BRANCH   6   7
ATOM      7  C   UNL     1       9.270  -5.251   5.763  0.00  0.00    +0.219 C 
ATOM      8  O   UNL     1       8.466  -5.932   5.163  0.00  0.00    -0.275 OA
ATOM      9  N   UNL     1       9.285  -5.256   7.111  0.00  0.00    -0.298 N 
ATOM     10  C   UNL     1      10.181  -4.358   7.852  0.00  0.00    +0.126 C 
ATOM     11  C   UNL     1       9.341  -3.523   8.827  0.00  0.00    +0.125 C 
ATOM     12  N   UNL     1       8.461  -4.427   9.582  0.00  0.00    -0.314 N 
ATOM     13  C   UNL     1       7.565  -5.325   8.840  0.00  0.00    +0.125 C 
ATOM     14  C   UNL     1       8.401  -6.156   7.865  0.00  0.00    +0.126 C 
ATOM     15  C   UNL     1       8.476  -4.432  10.972  0.00  0.00    +0.099 A 
ATOM     16  C   UNL     1       9.229  -3.483  11.656  0.00  0.00    +0.042 A 
ATOM     17  C   UNL     1       9.235  -3.500  13.039  0.00  0.00    +0.005 A 
ATOM     18  C   UNL     1       8.486  -4.469  13.694  0.00  0.00    +0.018 A 
ATOM     19  C   UNL     1       7.763  -5.380  12.951  0.00  0.00    +0.084 A 
ATOM     20  N   UNL     1       7.771  -5.337  11.632  0.00  0.00    -0.350 N 
ATOM     21  H   UNL     1       7.251  -5.987  11.134  0.00  0.00    +0.166 HD
ENDBRANCH   6   7
BRANCH   1  23
ATOM     22  N   UNL     1       7.702  -2.951   2.668  0.00  0.00    -0.314 N 
ATOM     23  C   UNL     1       8.385  -3.337   3.764  0.00  0.00    +0.217 C 
ATOM     24  O   UNL     1       7.953  -3.085   4.869  0.00  0.00    -0.275 OA
ATOM     25  H   UNL     1       8.047  -3.153   1.785  0.00  0.00    +0.149 HD
BRANCH  22  26
ATOM     26  C   UNL     1       6.436  -2.227   2.812  0.00  0.00    +0.115 C 
BRANCH  26  27
ATOM     27  C   UNL     1       5.870  -1.910   1.426  0.00  0.00    +0.088 C 
BRANCH  27  28
ATOM     28  S   UNL     1       4.303  -1.014   1.604  0.00  0.00    -0.155 S 
BRANCH  28  29
ATOM     29  C   UNL     1       3.771  -0.717  -0.105  0.00  0.00    +0.104 C 
BRANCH  29  33
ATOM     30  C   UNL     1       0.063   1.403  -0.096  0.00  0.00    +0.000 A 
ATOM     31  C   UNL     1       1.257   2.099  -0.101  0.00  0.00    +0.000 A 
ATOM     32  C   UNL     1       2.457   1.413  -0.104  0.00  0.00    +0.004 A 
ATOM     33  C   UNL     1       2.463   0.031  -0.101  0.00  0.00    -0.038 A 
ATOM     34  C   UNL     1       1.269  -0.666  -0.095  0.00  0.00    +0.004 A 
ATOM     35  C   UNL     1       0.069   0.021  -0.093  0.00  0.00    +0.000 A 
ENDBRANCH  29  33
ENDBRANCH  28  29
ENDBRANCH  27  28
ENDBRANCH  26  27
ENDBRANCH  22  26
ENDBRANCH   1  23
TORSDOF 7
