REMARK  Name = ZINC11264993
REMARK  7 active torsions:
REMARK  status: ('A' for Active; 'I' for Inactive)
REMARK    1  A    between atoms: C_1  and  C_2
REMARK    2  A    between atoms: N_13  and  C_29
REMARK    3  A    between atoms: C_14  and  S_16
REMARK    4  A    between atoms: S_16  and  C_17
REMARK    5  A    between atoms: C_17  and  C_19
REMARK    6  A    between atoms: C_17  and  C_20
REMARK    7  A    between atoms: N_25  and  C_26
REMARK                            x       y       z     vdW  Elec       q    Type
REMARK                         _______ _______ _______ _____ _____    ______ ____
ROOT
ATOM      1  C   UNL     1     -11.395  -6.338  -2.982  0.00  0.00    +0.008 C 
ATOM      2  C   UNL     1     -11.079  -4.961  -2.393  0.00  0.00    -0.009 C 
ATOM      3  C   UNL     1     -10.763  -3.978  -3.524  0.00  0.00    +0.008 C 
ATOM      4  C   UNL     1     -10.694  -2.555  -2.970  0.00  0.00    +0.037 C 
ATOM      5  C   UNL     1      -9.728  -2.532  -1.789  0.00  0.00    -0.023 A 
ATOM      6  C   UNL     1      -9.386  -3.673  -1.157  0.00  0.00    -0.004 A 
ATOM      7  S   UNL     1      -8.265  -3.173   0.122  0.00  0.00    -0.073 S 
ATOM      8  C   UNL     1      -8.259  -1.427  -0.198  0.00  0.00    +0.117 A 
ATOM      9  C   UNL     1      -9.131  -1.292  -1.290  0.00  0.00    +0.076 A 
ATOM     10  C   UNL     1      -9.323   0.041  -1.775  0.00  0.00    +0.268 A 
ATOM     11  O   UNL     1     -10.063   0.254  -2.720  0.00  0.00    -0.267 OA
ATOM     12  N   UNL     1      -8.676   1.055  -1.173  0.00  0.00    -0.255 N 
ATOM     13  C   UNL     1      -7.842   0.834  -0.112  0.00  0.00    +0.178 A 
ATOM     14  N   UNL     1      -7.645  -0.384   0.350  0.00  0.00    -0.215 NA
ATOM     15  C   UNL     1      -9.856  -5.061  -1.470  0.00  0.00    +0.046 C 
ENDROOT
BRANCH  12  16
ATOM     16  C   UNL     1      -8.859   2.363  -1.642  0.00  0.00    +0.052 A 
ATOM     17  C   UNL     1      -9.876   3.152  -1.121  0.00  0.00    +0.026 A 
ATOM     18  C   UNL     1     -10.050   4.443  -1.582  0.00  0.00    +0.002 A 
ATOM     19  C   UNL     1      -9.222   4.945  -2.568  0.00  0.00    +0.000 A 
ATOM     20  C   UNL     1      -8.212   4.159  -3.093  0.00  0.00    +0.002 A 
ATOM     21  C   UNL     1      -8.029   2.869  -2.632  0.00  0.00    +0.026 A 
ENDBRANCH  12  16
BRANCH  13  22
ATOM     22  S   UNL     1      -7.016   2.195   0.643  0.00  0.00    -0.075 S 
BRANCH  22  23
ATOM     23  C   UNL     1      -6.094   1.325   1.935  0.00  0.00    +0.137 C 
ATOM     24  C   UNL     1      -7.074   0.704   2.932  0.00  0.00    +0.029 C 
BRANCH  23  25
ATOM     25  C   UNL     1      -5.196   2.299   2.653  0.00  0.00    +0.233 C 
ATOM     26  O   UNL     1      -5.473   3.479   2.672  0.00  0.00    -0.274 OA
ATOM     27  N   UNL     1      -4.084   1.858   3.274  0.00  0.00    -0.239 N 
ATOM     28  C   UNL     1      -3.281   2.729   3.917  0.00  0.00    +0.306 C 
ATOM     29  O   UNL     1      -3.559   3.912   3.936  0.00  0.00    -0.252 OA
ATOM     30  N   UNL     1      -2.169   2.289   4.538  0.00  0.00    -0.296 N 
ATOM     31  H   UNL     1      -3.862   0.914   3.259  0.00  0.00    +0.159 HD
ATOM     32  H   UNL     1      -1.947   1.345   4.523  0.00  0.00    +0.151 HD
BRANCH  30  33
ATOM     33  C   UNL     1      -1.293   3.236   5.232  0.00  0.00    +0.075 C 
ATOM     34  C   UNL     1       0.215   3.085   5.025  0.00  0.00    +0.024 C 
ATOM     35  C   UNL     1      -0.417   2.692   6.362  0.00  0.00    +0.024 C 
ENDBRANCH  30  33
ENDBRANCH  23  25
ENDBRANCH  22  23
ENDBRANCH  13  22
TORSDOF 5
