REMARK  Name = ZINC62704610
REMARK  12 active torsions:
REMARK  status: ('A' for Active; 'I' for Inactive)
REMARK    1  A    between atoms: C_1  and  C_2
REMARK    2  A    between atoms: C_2  and  C_4
REMARK    3  A    between atoms: C_2  and  N_23
REMARK    4  A    between atoms: C_4  and  C_5
REMARK    5  A    between atoms: C_8  and  O_12
REMARK    6  A    between atoms: O_12  and  C_13
REMARK    7  A    between atoms: C_13  and  C_14
REMARK    8  A    between atoms: N_16  and  C_17
REMARK    9  A    between atoms: C_17  and  C_19
REMARK   10  A    between atoms: C_17  and  C_20
REMARK   11  A    between atoms: C_20  and  C_21
REMARK   12  A    between atoms: C_20  and  C_22
REMARK                            x       y       z     vdW  Elec       q    Type
REMARK                         _______ _______ _______ _____ _____    ______ ____
ROOT
ATOM      1  C   UNL     1       0.657  -2.014   1.298  0.00  0.00    -0.048 A 
ATOM      2  C   UNL     1      -0.397  -2.622   1.956  0.00  0.00    +0.007 A 
ATOM      3  C   UNL     1      -0.478  -4.000   2.009  0.00  0.00    +0.047 A 
ATOM      4  C   UNL     1       0.499  -4.775   1.402  0.00  0.00    +0.135 A 
ATOM      5  C   UNL     1       1.556  -4.163   0.742  0.00  0.00    +0.060 A 
ATOM      6  C   UNL     1       1.629  -2.784   0.686  0.00  0.00    +0.022 A 
ATOM      7 BR   UNL     1       2.890  -5.216  -0.087  0.00  0.00    -0.047 Br
ENDROOT
BRANCH   1   8
ATOM      8  C   UNL     1       0.742  -0.511   1.242  0.00  0.00    +0.019 C 
BRANCH   8  10
ATOM      9  C   UNL     1      -0.019   1.526   0.010  0.00  0.00    -0.014 C 
ATOM     10  C   UNL     1       0.002  -0.004   0.002  0.00  0.00    -0.074 C 
BRANCH  10  11
ATOM     11  N   UNL     1       0.690  -0.478  -1.207  0.00  0.00    +0.380 N 
ATOM     12  H   UNL     1       1.636  -0.129  -1.214  0.00  0.00    -0.090 HD
ATOM     13  H   UNL     1       0.703  -1.487  -1.212  0.00  0.00    -0.090 HD
ATOM     14  H   UNL     1       0.202  -0.144  -2.024  0.00  0.00    -0.090 HD
ENDBRANCH  10  11
ENDBRANCH   8  10
ENDBRANCH   1   8
BRANCH   4  15
ATOM     15  O   UNL     1       0.422  -6.131   1.454  0.00  0.00    -0.482 OA
BRANCH  15  16
ATOM     16  C   UNL     1      -0.692  -6.691   2.151  0.00  0.00    +0.324 C 
BRANCH  16  17
ATOM     17  C   UNL     1      -0.610  -8.195   2.103  0.00  0.00    +0.251 C 
ATOM     18  O   UNL     1       0.313  -8.734   1.529  0.00  0.00    -0.272 OA
ATOM     19  N   UNL     1      -1.561  -8.941   2.699  0.00  0.00    -0.310 N 
ATOM     20  H   UNL     1      -2.299  -8.510   3.158  0.00  0.00    +0.149 HD
BRANCH  19  21
ATOM     21  C   UNL     1      -1.481 -10.403   2.653  0.00  0.00    +0.073 C 
ATOM     22  C   UNL     1      -0.586 -10.901   3.790  0.00  0.00    +0.028 C 
BRANCH  21  23
ATOM     23  C   UNL     1      -2.883 -10.996   2.811  0.00  0.00    +0.003 C 
ATOM     24  C   UNL     1      -3.778 -10.499   1.674  0.00  0.00    +0.009 C 
ATOM     25  C   UNL     1      -2.799 -12.523   2.763  0.00  0.00    +0.009 C 
ENDBRANCH  21  23
ENDBRANCH  19  21
ENDBRANCH  16  17
ENDBRANCH  15  16
ENDBRANCH   4  15
TORSDOF 8
