REMARK  Name = ZINC40415319
REMARK  9 active torsions:
REMARK  status: ('A' for Active; 'I' for Inactive)
REMARK    1  A    between atoms: C_1  and  C_2
REMARK    2  A    between atoms: C_2  and  C_3
REMARK    3  A    between atoms: C_3  and  C_5
REMARK    4  A    between atoms: C_3  and  N_6
REMARK    5  A    between atoms: N_6  and  C_7
REMARK    6  A    between atoms: C_7  and  C_8
REMARK    7  A    between atoms: N_10  and  C_11
REMARK    8  A    between atoms: C_12  and  C_22
REMARK    9  A    between atoms: C_17  and  C_21
REMARK                            x       y       z     vdW  Elec       q    Type
REMARK                         _______ _______ _______ _____ _____    ______ ____
ROOT
ATOM      1  C   UNL     1      -0.107  -0.086  -4.873  0.00  0.00    +0.201 C 
ATOM      2  O   UNL     1      -1.188   0.449  -4.744  0.00  0.00    -0.278 OA
ATOM      3  N   UNL     1       0.383  -0.327  -6.105  0.00  0.00    -0.281 N 
ATOM      4  H   UNL     1       1.247  -0.754  -6.208  0.00  0.00    +0.155 HD
ENDROOT
BRANCH   3   5
ATOM      5  C   UNL     1      -0.350   0.037  -7.227  0.00  0.00    +0.090 A 
ATOM      6  C   UNL     1      -0.010  -0.137  -8.559  0.00  0.00    +0.084 A 
ATOM      7  C   UNL     1      -0.958   0.334  -9.553  0.00  0.00    -0.018 A 
ATOM      8  C   UNL     1      -2.073   0.893  -9.032  0.00  0.00    -0.004 A 
ATOM      9  S   UNL     1      -1.855   0.780  -7.281  0.00  0.00    -0.077 S 
ATOM     10  C   UNL     1      -3.228   1.470  -9.791  0.00  0.00    +0.046 C 
ATOM     11  C   UNL     1      -2.793   1.675 -11.249  0.00  0.00    -0.009 C 
ATOM     12  C   UNL     1      -2.111   0.398 -11.748  0.00  0.00    +0.008 C 
ATOM     13  C   UNL     1      -0.755   0.228 -11.057  0.00  0.00    +0.037 C 
ATOM     14  C   UNL     1      -4.020   1.974 -12.113  0.00  0.00    +0.008 C 
BRANCH   6  15
ATOM     15  C   UNL     1       1.224  -0.754  -8.939  0.00  0.00    +0.102 C 
ATOM     16  N   UNL     1       2.204  -1.243  -9.241  0.00  0.00    -0.191 NA
ENDBRANCH   6  15
ENDBRANCH   3   5
BRANCH   1  17
ATOM     17  C   UNL     1       0.688  -0.480  -3.655  0.00  0.00    +0.015 C 
BRANCH  17  18
ATOM     18  N   UNL     1      -0.057  -0.113  -2.444  0.00  0.00    +0.386 N 
ATOM     19  H   UNL     1      -0.945  -0.593  -2.436  0.00  0.00    -0.085 HD
ATOM     20  H   UNL     1      -0.214   0.884  -2.435  0.00  0.00    -0.085 HD
BRANCH  18  21
ATOM     21  C   UNL     1       0.718  -0.497  -1.257  0.00  0.00    -0.075 C 
ATOM     22  C   UNL     1       0.849  -2.021  -1.205  0.00  0.00    -0.014 C 
BRANCH  21  24
ATOM     23  C   UNL     1      -0.019   1.526   0.010  0.00  0.00    +0.002 C 
ATOM     24  C   UNL     1       0.002  -0.004   0.002  0.00  0.00    -0.019 C 
ENDBRANCH  21  24
ENDBRANCH  18  21
ENDBRANCH  17  18
ENDBRANCH   1  17
TORSDOF 6
