REMARK  Name = ZINC23590565
REMARK  8 active torsions:
REMARK  status: ('A' for Active; 'I' for Inactive)
REMARK    1  A    between atoms: C_1  and  C_2
REMARK    2  A    between atoms: C_2  and  C_4
REMARK    3  A    between atoms: C_2  and  S_18
REMARK    4  A    between atoms: N_6  and  C_7
REMARK    5  A    between atoms: C_9  and  N_15
REMARK    6  A    between atoms: C_12  and  O_13
REMARK    7  A    between atoms: O_13  and  C_14
REMARK    8  A    between atoms: S_18  and  C_19
REMARK                            x       y       z     vdW  Elec       q    Type
REMARK                         _______ _______ _______ _____ _____    ______ ____
ROOT
ATOM      1  C   UNL     1      -6.641  -0.977  -1.696  0.00  0.00    +0.029 C 
ATOM      2  C   UNL     1      -6.181  -0.933  -0.237  0.00  0.00    +0.137 C 
ENDROOT
BRANCH   2   3
ATOM      3  C   UNL     1      -4.881  -0.177  -0.143  0.00  0.00    +0.230 C 
ATOM      4  O   UNL     1      -3.827  -0.777  -0.155  0.00  0.00    -0.274 OA
ATOM      5  N   UNL     1      -4.889   1.167  -0.045  0.00  0.00    -0.282 N 
ATOM      6  H   UNL     1      -5.843   1.705   0.061  0.00  0.00    +0.155 HD
BRANCH   5   7
ATOM      7  C   UNL     1      -3.683   1.880  -0.080  0.00  0.00    +0.078 A 
ATOM      8  C   UNL     1      -2.571   1.334  -0.703  0.00  0.00    +0.059 A 
ATOM      9  C   UNL     1      -1.382   2.039  -0.736  0.00  0.00    +0.128 A 
ATOM     10  C   UNL     1      -1.297   3.286  -0.145  0.00  0.00    +0.036 A 
ATOM     11  C   UNL     1      -2.403   3.839   0.474  0.00  0.00    +0.050 A 
ATOM     12  C   UNL     1      -3.598   3.139   0.511  0.00  0.00    +0.141 A 
BRANCH   9  13
ATOM     13  N   UNL     1      -0.196   1.455  -1.401  0.00  0.00    +0.056 N 
ATOM     14  O   UNL     1      -0.268   0.354  -1.918  0.00  0.00    -0.126 OA
ATOM     15  O   UNL     1       0.851   2.077  -1.435  0.00  0.00    -0.126 OA
ENDBRANCH   9  13
BRANCH  12  16
ATOM     16  O   UNL     1      -4.686   3.679   1.124  0.00  0.00    -0.493 OA
ATOM     17  C   UNL     1      -4.525   4.973   1.708  0.00  0.00    +0.277 C 
ENDBRANCH  12  16
ENDBRANCH   5   7
ENDBRANCH   2   3
BRANCH   2  18
ATOM     18  S   UNL     1      -5.942  -2.622   0.370  0.00  0.00    -0.073 S 
BRANCH  18  19
ATOM     19  C   UNL     1      -7.600  -3.212   0.293  0.00  0.00    +0.192 A 
ATOM     20  N   UNL     1      -8.560  -2.403  -0.139  0.00  0.00    -0.207 NA
ATOM     21  C   UNL     1      -9.822  -2.790  -0.220  0.00  0.00    +0.129 A 
ATOM     22  C   UNL     1     -10.169  -4.115   0.168  0.00  0.00    +0.051 A 
ATOM     23  C   UNL     1     -11.487  -4.754   0.164  0.00  0.00    -0.025 A 
ATOM     24  C   UNL     1     -11.548  -6.034   0.584  0.00  0.00    -0.004 A 
ATOM     25  S   UNL     1      -9.880  -6.462   1.005  0.00  0.00    -0.073 S 
ATOM     26  C   UNL     1      -9.101  -4.917   0.615  0.00  0.00    +0.115 A 
ATOM     27  N   UNL     1      -7.864  -4.458   0.662  0.00  0.00    -0.214 NA
ATOM     28  C   UNL     1     -12.765  -6.903   0.675  0.00  0.00    +0.043 C 
ATOM     29  C   UNL     1     -14.008  -6.008   0.570  0.00  0.00    +0.005 C 
ATOM     30  C   UNL     1     -13.828  -5.055  -0.615  0.00  0.00    +0.005 C 
ATOM     31  C   UNL     1     -12.747  -4.023  -0.291  0.00  0.00    +0.037 C 
ATOM     32  N   UNL     1     -10.793  -1.918  -0.675  0.00  0.00    -0.343 N 
ATOM     33  H   UNL     1     -11.841  -2.246  -0.740  0.00  0.00    +0.144 HD
ATOM     34  H   UNL     1     -10.518  -0.895  -0.974  0.00  0.00    +0.144 HD
ENDBRANCH  18  19
ENDBRANCH   2  18
TORSDOF 6
