REMARK  Name = ZINC38052301
REMARK  7 active torsions:
REMARK  status: ('A' for Active; 'I' for Inactive)
REMARK    1  A    between atoms: C_1  and  O_2
REMARK    2  A    between atoms: O_2  and  C_3
REMARK    3  A    between atoms: C_6  and  C_10
REMARK    4  A    between atoms: C_10  and  C_12
REMARK    5  A    between atoms: C_10  and  N_15
REMARK    6  A    between atoms: N_15  and  C_16
REMARK    7  A    between atoms: C_16  and  C_17
REMARK                            x       y       z     vdW  Elec       q    Type
REMARK                         _______ _______ _______ _____ _____    ______ ____
ROOT
ATOM      1  C   UNL     1       2.504  -2.503  -4.383  0.00  0.00    +0.047 C 
ENDROOT
BRANCH   1   5
ATOM      2  C   UNL     1       0.606  -0.607  -1.056  0.00  0.00    +0.134 A 
ATOM      3  C   UNL     1       1.173   0.160  -2.062  0.00  0.00    +0.047 A 
ATOM      4  C   UNL     1       1.786  -0.455  -3.137  0.00  0.00    +0.006 A 
ATOM      5  C   UNL     1       1.835  -1.835  -3.209  0.00  0.00    -0.051 A 
ATOM      6  C   UNL     1       1.271  -2.603  -2.208  0.00  0.00    +0.021 A 
ATOM      7  C   UNL     1       0.661  -1.992  -1.128  0.00  0.00    +0.060 A 
ATOM      8 BR   UNL     1      -0.103  -3.043   0.246  0.00  0.00    -0.047 Br
BRANCH   2  10
ATOM      9  C   UNL     1      -0.017   1.425   0.010  0.00  0.00    +0.277 C 
ATOM     10  O   UNL     1       0.002  -0.004   0.002  0.00  0.00    -0.494 OA
ENDBRANCH   2  10
ENDBRANCH   1   5
BRANCH   1  11
ATOM     11  C   UNL     1       1.457  -2.954  -5.369  0.00  0.00    +0.201 C 
ATOM     12  O   UNL     1       1.357  -4.128  -5.652  0.00  0.00    -0.277 OA
ATOM     13  N   UNL     1       0.632  -2.051  -5.935  0.00  0.00    -0.330 N 
ATOM     14  H   UNL     1       0.712  -1.111  -5.708  0.00  0.00    +0.145 HD
ATOM     15  H   UNL     1      -0.042  -2.341  -6.569  0.00  0.00    +0.145 HD
ENDBRANCH   1  11
BRANCH   1  16
ATOM     16  N   UNL     1       3.268  -3.667  -3.914  0.00  0.00    +0.392 N 
ATOM     17  H   UNL     1       3.913  -3.378  -3.194  0.00  0.00    -0.084 HD
ATOM     18  H   UNL     1       2.634  -4.357  -3.540  0.00  0.00    -0.084 HD
BRANCH  16  19
ATOM     19  C   UNL     1       4.016  -4.247  -5.037  0.00  0.00    -0.038 C 
BRANCH  19  20
ATOM     20  C   UNL     1       4.799  -5.441  -4.556  0.00  0.00    -0.027 A 
ATOM     21  C   UNL     1       4.428  -6.744  -4.509  0.00  0.00    +0.009 A 
ATOM     22  C   UNL     1       5.322  -7.679  -4.023  0.00  0.00    +0.008 A 
ATOM     23  C   UNL     1       6.544  -7.266  -3.608  0.00  0.00    +0.045 A 
ATOM     24  S   UNL     1       6.461  -5.508  -3.906  0.00  0.00    -0.104 S 
ENDBRANCH  19  20
ENDBRANCH  16  19
ENDBRANCH   1  16
TORSDOF 6
