REMARK  Name = ZINC22205573
REMARK  7 active torsions:
REMARK  status: ('A' for Active; 'I' for Inactive)
REMARK    1  A    between atoms: C_1  and  C_2
REMARK    2  A    between atoms: C_2  and  C_17
REMARK    3  A    between atoms: N_3  and  N_4
REMARK    4  A    between atoms: C_5  and  C_7
REMARK    5  A    between atoms: C_7  and  O_8
REMARK    6  A    between atoms: O_8  and  C_9
REMARK    7  A    between atoms: C_18  and  C_19
REMARK                            x       y       z     vdW  Elec       q    Type
REMARK                         _______ _______ _______ _____ _____    ______ ____
ROOT
ATOM      1  N   UNL     1       3.909  -2.192  -0.023  0.00  0.00    -0.204 N 
ATOM      2  C   UNL     1       3.714  -0.859  -0.004  0.00  0.00    +0.270 C 
ATOM      3  O   UNL     1       4.665  -0.106  -0.015  0.00  0.00    -0.270 OA
ATOM      4  H   UNL     1       3.047  -2.874  -0.013  0.00  0.00    +0.177 HD
ENDROOT
BRANCH   1   7
ATOM      5  C   UNL     1       6.805  -4.544   0.112  0.00  0.00    +0.067 C 
ATOM      6  C   UNL     1       5.404  -3.996   0.026  0.00  0.00    +0.056 C 
ATOM      7  N   UNL     1       5.211  -2.709  -0.054  0.00  0.00    -0.185 NA
BRANCH   6   8
ATOM      8  C   UNL     1       4.297  -4.878   0.034  0.00  0.00    +0.028 C 
ATOM      9  C   UNL     1       4.489  -6.204   0.228  0.00  0.00    +0.048 C 
BRANCH   9  10
ATOM     10  C   UNL     1       3.340  -7.100   0.344  0.00  0.00    +0.128 A 
ATOM     11  C   UNL     1       3.392  -8.453   0.535  0.00  0.00    +0.049 A 
ATOM     12  C   UNL     1       2.062  -8.904   0.588  0.00  0.00    +0.042 A 
ATOM     13  C   UNL     1       1.268  -7.825   0.422  0.00  0.00    +0.195 A 
ATOM     14  O   UNL     1       2.043  -6.738   0.275  0.00  0.00    -0.464 OA
ENDBRANCH   9  10
ENDBRANCH   6   8
ENDBRANCH   1   7
BRANCH   2  15
ATOM     15  C   UNL     1       2.314  -0.303   0.029  0.00  0.00    +0.326 C 
BRANCH  15  16
ATOM     16  O   UNL     1       2.368   1.125   0.044  0.00  0.00    -0.482 OA
BRANCH  16  17
ATOM     17  C   UNL     1       1.182   1.788   0.074  0.00  0.00    +0.134 A 
ATOM     18  C   UNL     1      -0.010   1.078   0.090  0.00  0.00    +0.048 A 
ATOM     19  C   UNL     1      -1.215   1.753   0.116  0.00  0.00    +0.023 A 
ATOM     20  C   UNL     1      -1.234   3.137   0.136  0.00  0.00    +0.042 A 
ATOM     21  C   UNL     1      -0.046   3.847   0.120  0.00  0.00    +0.038 A 
ATOM     22  C   UNL     1       1.161   3.175   0.089  0.00  0.00    +0.056 A 
ATOM     23  I   UNL     1       2.959   4.251   0.065  0.00  0.00    -0.040 I 
ATOM     24 CL   UNL     1      -2.749   3.983   0.173  0.00  0.00    -0.084 Cl
ENDBRANCH  16  17
ENDBRANCH  15  16
ENDBRANCH   2  15
TORSDOF 6
