REMARK  Name = ZINC59421607
REMARK  6 active torsions:
REMARK  status: ('A' for Active; 'I' for Inactive)
REMARK    1  A    between atoms: C_4  and  C_7
REMARK    2  A    between atoms: C_7  and  C_9
REMARK    3  A    between atoms: C_7  and  N_17
REMARK    4  A    between atoms: C_18  and  C_20
REMARK    5  A    between atoms: C_20  and  C_21
REMARK    6  A    between atoms: C_26  and  N_27
REMARK                            x       y       z     vdW  Elec       q    Type
REMARK                         _______ _______ _______ _____ _____    ______ ____
ROOT
ATOM      1  C   UNL     1       3.549  -1.658  -0.171  0.00  0.00    +0.136 C 
ENDROOT
BRANCH   1   2
ATOM      2  C   UNL     1       3.770  -2.356  -1.488  0.00  0.00    +0.012 A 
ATOM      3  C   UNL     1       3.338  -3.658  -1.661  0.00  0.00    +0.010 A 
ATOM      4  C   UNL     1       3.539  -4.299  -2.869  0.00  0.00    +0.016 A 
ATOM      5  C   UNL     1       4.174  -3.638  -3.906  0.00  0.00    +0.021 A 
ATOM      6  C   UNL     1       4.607  -2.337  -3.735  0.00  0.00    +0.054 A 
ATOM      7  C   UNL     1       4.400  -1.692  -2.527  0.00  0.00    +0.130 A 
ATOM      8  F   UNL     1       4.818  -0.418  -2.360  0.00  0.00    -0.205 F 
ATOM      9 BR   UNL     1       4.449  -4.516  -5.558  0.00  0.00    -0.050 Br
ENDBRANCH   1   2
BRANCH   1  13
ATOM     10  C   UNL     1      -0.057   0.624  -0.358  0.00  0.00    +0.000 A 
ATOM     11  C   UNL     1       1.165   1.248  -0.522  0.00  0.00    +0.000 A 
ATOM     12  C   UNL     1       2.332   0.510  -0.461  0.00  0.00    +0.006 A 
ATOM     13  C   UNL     1       2.277  -0.853  -0.236  0.00  0.00    -0.023 A 
ATOM     14  C   UNL     1       1.055  -1.477  -0.071  0.00  0.00    +0.006 A 
ATOM     15  C   UNL     1      -0.112  -0.739  -0.133  0.00  0.00    +0.000 A 
ENDBRANCH   1  13
BRANCH   1  16
ATOM     16  N   UNL     1       3.442  -2.654   0.898  0.00  0.00    -0.304 N 
ATOM     17  C   UNL     1       3.744  -2.316   2.167  0.00  0.00    +0.218 C 
ATOM     18  O   UNL     1       4.104  -1.187   2.424  0.00  0.00    -0.275 OA
ATOM     19  H   UNL     1       3.155  -3.558   0.692  0.00  0.00    +0.150 HD
BRANCH  17  20
ATOM     20  C   UNL     1       3.634  -3.341   3.267  0.00  0.00    +0.133 C 
BRANCH  20  21
ATOM     21  C   UNL     1       4.025  -2.712   4.580  0.00  0.00    -0.008 A 
ATOM     22  C   UNL     1       5.285  -2.932   5.103  0.00  0.00    +0.006 A 
ATOM     23  C   UNL     1       5.644  -2.356   6.308  0.00  0.00    +0.000 A 
ATOM     24  C   UNL     1       4.742  -1.560   6.988  0.00  0.00    +0.002 A 
ATOM     25  C   UNL     1       3.482  -1.339   6.464  0.00  0.00    +0.033 A 
ATOM     26  C   UNL     1       3.125  -1.912   5.258  0.00  0.00    +0.130 A 
BRANCH  26  27
ATOM     27  N   UNL     1       1.778  -1.671   4.694  0.00  0.00    +0.057 N 
ATOM     28  O   UNL     1       0.954  -1.063   5.336  0.00  0.00    -0.126 OA
ATOM     29  O   UNL     1       1.501  -2.084   3.591  0.00  0.00    -0.126 OA
ENDBRANCH  26  27
ENDBRANCH  20  21
ENDBRANCH  17  20
ENDBRANCH   1  16
TORSDOF 6
