REMARK  Name = ZINC22017848
REMARK  11 active torsions:
REMARK  status: ('A' for Active; 'I' for Inactive)
REMARK    1  A    between atoms: C_1  and  C_2
REMARK    2  A    between atoms: C_2  and  C_3
REMARK    3  A    between atoms: C_3  and  C_30
REMARK    4  A    between atoms: N_6  and  N_10
REMARK    5  A    between atoms: C_11  and  C_13
REMARK    6  A    between atoms: C_13  and  N_14
REMARK    7  A    between atoms: N_14  and  C_15
REMARK    8  A    between atoms: C_20  and  C_21
REMARK    9  A    between atoms: C_21  and  N_22
REMARK   10  A    between atoms: N_22  and  C_23
REMARK   11  A    between atoms: N_22  and  C_24
REMARK                            x       y       z     vdW  Elec       q    Type
REMARK                         _______ _______ _______ _____ _____    ______ ____
ROOT
ATOM      1  N   UNL     1      -2.348  -0.192   1.011  0.00  0.00    -0.335 N 
ATOM      2  H   UNL     1      -1.834  -0.549   0.106  0.00  0.00    +0.147 HD
ENDROOT
BRANCH   1   3
ATOM      3  C   UNL     1      -1.856   0.917   1.702  0.00  0.00    +0.029 A 
ATOM      4  C   UNL     1      -2.502   1.368   2.846  0.00  0.00    +0.023 A 
ATOM      5  C   UNL     1      -2.013   2.465   3.527  0.00  0.00    +0.002 A 
ATOM      6  C   UNL     1      -0.880   3.115   3.072  0.00  0.00    +0.000 A 
ATOM      7  C   UNL     1      -0.231   2.665   1.937  0.00  0.00    +0.003 A 
ATOM      8  C   UNL     1      -0.718   1.572   1.248  0.00  0.00    -0.043 A 
BRANCH   8   9
ATOM      9  C   UNL     1      -0.013   1.086   0.008  0.00  0.00    -0.041 C 
BRANCH   9  10
ATOM     10  N   UNL     1      -0.723   1.572  -1.182  0.00  0.00    +0.382 N 
ATOM     11  C   UNL     1      -0.640   3.036  -1.283  0.00  0.00    -0.095 C 
ATOM     12  H   UNL     1      -1.784   1.301  -1.077  0.00  0.00    -0.081 HD
BRANCH  10  13
ATOM     13  C   UNL     1      -0.211   0.930  -2.400  0.00  0.00    -0.069 C 
ATOM     14  C   UNL     1       1.244   1.346  -2.622  0.00  0.00    -0.015 C 
ATOM     15  C   UNL     1       1.778   0.677  -3.891  0.00  0.00    -0.002 C 
ATOM     16  C   UNL     1       0.934   1.113  -5.090  0.00  0.00    -0.000 C 
ATOM     17  C   UNL     1      -0.522   0.698  -4.868  0.00  0.00    -0.002 C 
ATOM     18  C   UNL     1      -1.055   1.366  -3.600  0.00  0.00    -0.015 C 
ENDBRANCH  10  13
ENDBRANCH   9  10
ENDBRANCH   8   9
ENDBRANCH   1   3
BRANCH   1  19
ATOM     19  C   UNL     1      -3.548  -0.882   1.492  0.00  0.00    +0.199 C 
BRANCH  19  21
ATOM     20  N   UNL     1      -4.934  -2.818   0.824  0.00  0.00    -0.222 N 
ATOM     21  C   UNL     1      -3.865  -2.035   0.576  0.00  0.00    +0.247 C 
ATOM     22  O   UNL     1      -3.159  -2.260  -0.384  0.00  0.00    -0.273 OA
ATOM     23  H   UNL     1      -5.575  -2.614   1.694  0.00  0.00    +0.174 HD
BRANCH  20  27
ATOM     24  C   UNL     1      -6.172  -5.240  -1.612  0.00  0.00    +0.111 C 
ATOM     25  C   UNL     1      -6.236  -3.890  -0.925  0.00  0.00    +0.263 C 
ATOM     26  O   UNL     1      -7.025  -2.996  -1.139  0.00  0.00    -0.271 OA
ATOM     27  N   UNL     1      -5.230  -3.890  -0.028  0.00  0.00    -0.137 N 
ATOM     28  C   UNL     1      -4.552  -5.044  -0.047  0.00  0.00    +0.326 C 
ATOM     29  O   UNL     1      -3.604  -5.282   0.675  0.00  0.00    -0.251 OA
ATOM     30  N   UNL     1      -5.036  -5.910  -0.955  0.00  0.00    -0.284 N 
ATOM     31  C   UNL     1      -5.907  -5.075  -3.109  0.00  0.00    +0.041 C 
ATOM     32  H   UNL     1      -4.751  -6.929  -1.254  0.00  0.00    +0.151 HD
BRANCH  24  34
ATOM     33  C   UNL     1      -7.290  -7.459  -1.876  0.00  0.00    +0.006 C 
ATOM     34  C   UNL     1      -7.466  -6.023  -1.379  0.00  0.00    +0.032 C 
ENDBRANCH  24  34
ENDBRANCH  20  27
ENDBRANCH  19  21
ENDBRANCH   1  19
TORSDOF 8
