REMARK  Name = ZINC29725443
REMARK  13 active torsions:
REMARK  status: ('A' for Active; 'I' for Inactive)
REMARK    1  A    between atoms: C_1  and  C_2
REMARK    2  A    between atoms: C_2  and  C_4
REMARK    3  A    between atoms: C_2  and  N_7
REMARK    4  A    between atoms: N_7  and  C_8
REMARK    5  A    between atoms: N_7  and  C_31
REMARK    6  A    between atoms: C_8  and  C_9
REMARK    7  A    between atoms: N_11  and  C_12
REMARK    8  A    between atoms: C_14  and  S_22
REMARK    9  A    between atoms: C_17  and  O_18
REMARK   10  A    between atoms: O_18  and  C_19
REMARK   11  A    between atoms: C_19  and  C_20
REMARK   12  A    between atoms: C_19  and  C_21
REMARK   13  A    between atoms: S_22  and  N_25
REMARK                            x       y       z     vdW  Elec       q    Type
REMARK                         _______ _______ _______ _____ _____    ______ ____
ROOT
ATOM      1  C   UNL     1       1.661  -3.675   4.263  0.00  0.00    +0.077 A 
ATOM      2  C   UNL     1       1.875  -2.673   5.197  0.00  0.00    +0.055 A 
ATOM      3  C   UNL     1       2.285  -2.997   6.477  0.00  0.00    +0.107 A 
ATOM      4  C   UNL     1       2.483  -4.319   6.829  0.00  0.00    +0.032 A 
ATOM      5  C   UNL     1       2.272  -5.324   5.902  0.00  0.00    +0.049 A 
ATOM      6  C   UNL     1       1.856  -5.008   4.619  0.00  0.00    +0.142 A 
ENDROOT
BRANCH   1   9
ATOM      7  C   UNL     1       1.665  -2.204   2.391  0.00  0.00    +0.201 C 
ATOM      8  O   UNL     1       2.470  -1.498   2.962  0.00  0.00    -0.278 OA
ATOM      9  N   UNL     1       1.246  -3.349   2.965  0.00  0.00    -0.284 N 
ATOM     10  H   UNL     1       0.656  -3.947   2.480  0.00  0.00    +0.155 HD
BRANCH   7  11
ATOM     11  C   UNL     1       1.134  -1.800   1.040  0.00  0.00    +0.020 C 
BRANCH  11  12
ATOM     12  N   UNL     1       1.741  -0.524   0.636  0.00  0.00    +0.389 N 
ATOM     13  H   UNL     1       1.608   0.157   1.368  0.00  0.00    -0.080 HD
BRANCH  12  14
ATOM     14  C   UNL     1       3.178  -0.718   0.402  0.00  0.00    -0.068 C 
ATOM     15  C   UNL     1       4.147  -0.114   1.420  0.00  0.00    -0.017 C 
ATOM     16  C   UNL     1       4.006   0.514   0.032  0.00  0.00    -0.017 C 
ENDBRANCH  12  14
BRANCH  12  18
ATOM     17  C   UNL     1      -0.387   0.190  -0.344  0.00  0.00    -0.013 C 
ATOM     18  C   UNL     1       1.103  -0.047  -0.598  0.00  0.00    -0.068 C 
BRANCH  18  19
ATOM     19  C   UNL     1       1.272  -1.098  -1.698  0.00  0.00    -0.025 C 
ATOM     20  C   UNL     1       2.283  -0.802  -2.808  0.00  0.00    +0.002 C 
ATOM     21  C   UNL     1       0.782  -0.736  -3.102  0.00  0.00    +0.002 C 
ENDBRANCH  18  19
ENDBRANCH  12  18
ENDBRANCH  11  12
ENDBRANCH   7  11
ENDBRANCH   1   9
BRANCH   3  22
ATOM     22  S   UNL     1       2.555  -1.722   7.662  0.00  0.00    +0.061 S 
ATOM     23  O   UNL     1       3.460  -2.248   8.624  0.00  0.00    -0.153 OA
ATOM     24  O   UNL     1       2.828  -0.536   6.928  0.00  0.00    -0.153 OA
BRANCH  22  25
ATOM     25  N   UNL     1       1.120  -1.472   8.449  0.00  0.00    -0.177 NA
ATOM     26  C   UNL     1       0.148  -0.495   7.941  0.00  0.00    +0.109 C 
ATOM     27  C   UNL     1      -1.208  -1.188   7.774  0.00  0.00    +0.017 C 
ATOM     28  C   UNL     1      -1.608  -1.841   9.099  0.00  0.00    +0.003 C 
ATOM     29  C   UNL     1      -0.569  -2.897   9.483  0.00  0.00    +0.017 C 
ATOM     30  C   UNL     1       0.791  -2.228   9.665  0.00  0.00    +0.109 C 
ENDBRANCH  22  25
ENDBRANCH   3  22
BRANCH   6  31
ATOM     31  O   UNL     1       1.642  -5.995   3.709  0.00  0.00    -0.488 OA
BRANCH  31  32
ATOM     32  C   UNL     1       1.751  -7.341   4.175  0.00  0.00    +0.167 C 
ATOM     33  C   UNL     1       0.916  -8.260   3.280  0.00  0.00    +0.051 C 
ATOM     34  C   UNL     1       3.216  -7.780   4.130  0.00  0.00    +0.051 C 
ENDBRANCH  31  32
ENDBRANCH   6  31
TORSDOF 10
