REMARK  Name = ZINC16742419
REMARK  7 active torsions:
REMARK  status: ('A' for Active; 'I' for Inactive)
REMARK    1  A    between atoms: C_2  and  C_3
REMARK    2  A    between atoms: C_3  and  N_4
REMARK    3  A    between atoms: C_14  and  C_20
REMARK    4  A    between atoms: C_15  and  O_19
REMARK    5  A    between atoms: C_20  and  C_22
REMARK    6  A    between atoms: C_25  and  S_28
REMARK    7  A    between atoms: S_28  and  N_31
REMARK                            x       y       z     vdW  Elec       q    Type
REMARK                         _______ _______ _______ _____ _____    ______ ____
ROOT
ATOM      1  N   UNL     1      -4.408   1.718  -3.179  0.00  0.00    -0.265 N 
ATOM      2  C   UNL     1      -5.163   0.601  -2.818  0.00  0.00    +0.043 A 
ATOM      3  C   UNL     1      -5.667  -0.445  -3.587  0.00  0.00    +0.024 A 
ATOM      4  C   UNL     1      -6.395  -1.455  -2.993  0.00  0.00    +0.002 A 
ATOM      5  C   UNL     1      -6.633  -1.436  -1.630  0.00  0.00    +0.000 A 
ATOM      6  C   UNL     1      -6.136  -0.400  -0.859  0.00  0.00    +0.008 A 
ATOM      7  C   UNL     1      -5.408   0.609  -1.449  0.00  0.00    +0.011 A 
ATOM      8  C   UNL     1      -4.743   1.849  -0.914  0.00  0.00    +0.172 C 
ATOM      9  C   UNL     1      -4.119   2.501  -2.123  0.00  0.00    +0.253 C 
ATOM     10  O   UNL     1      -3.480   3.531  -2.139  0.00  0.00    -0.272 OA
ATOM     11  C   UNL     1      -3.703   1.510   0.118  0.00  0.00    +0.083 C 
ATOM     12  C   UNL     1      -4.065   2.156   1.254  0.00  0.00    +0.189 C 
ATOM     13  C   UNL     1      -5.307   2.920   1.003  0.00  0.00    +0.280 C 
ATOM     14  O   UNL     1      -5.883   3.605   1.824  0.00  0.00    -0.267 OA
ATOM     15  N   UNL     1      -5.708   2.737  -0.271  0.00  0.00    -0.287 N 
ATOM     16  H   UNL     1      -6.494   3.126  -0.685  0.00  0.00    +0.151 HD
ENDROOT
BRANCH  12  17
ATOM     17  O   UNL     1      -3.396   2.111   2.429  0.00  0.00    -0.502 OA
ATOM     18  H   UNL     1      -3.872   2.673   3.106  0.00  0.00    +0.292 HD
ENDBRANCH  12  17
BRANCH  11  19
ATOM     19  C   UNL     1      -2.532   0.647  -0.065  0.00  0.00    +0.196 C 
ATOM     20  O   UNL     1      -2.669  -0.561  -0.114  0.00  0.00    -0.287 OA
BRANCH  19  21
ATOM     21  C   UNL     1      -1.186   1.245  -0.191  0.00  0.00    +0.022 A 
ATOM     22  C   UNL     1      -0.083   0.436  -0.475  0.00  0.00    +0.013 A 
ATOM     23  C   UNL     1       1.169   1.000  -0.597  0.00  0.00    +0.029 A 
ATOM     24  C   UNL     1       1.336   2.365  -0.433  0.00  0.00    +0.106 A 
ATOM     25  C   UNL     1       0.248   3.171  -0.146  0.00  0.00    +0.029 A 
ATOM     26  C   UNL     1      -1.010   2.620  -0.022  0.00  0.00    +0.013 A 
BRANCH  24  27
ATOM     27  S   UNL     1       2.939   3.078  -0.591  0.00  0.00    +0.061 S 
ATOM     28  O   UNL     1       2.917   4.293   0.145  0.00  0.00    -0.153 OA
ATOM     29  O   UNL     1       3.873   2.041  -0.322  0.00  0.00    -0.153 OA
BRANCH  27  30
ATOM     30  N   UNL     1       3.137   3.492  -2.182  0.00  0.00    -0.177 NA
ATOM     31  C   UNL     1       3.716   2.538  -3.137  0.00  0.00    +0.109 C 
ATOM     32  C   UNL     1       2.755   2.392  -4.327  0.00  0.00    +0.017 C 
ATOM     33  C   UNL     1       2.469   3.775  -4.916  0.00  0.00    +0.003 C 
ATOM     34  C   UNL     1       1.796   4.653  -3.858  0.00  0.00    +0.017 C 
ATOM     35  C   UNL     1       2.741   4.822  -2.664  0.00  0.00    +0.109 C 
ENDBRANCH  27  30
ENDBRANCH  24  27
ENDBRANCH  19  21
ENDBRANCH  11  19
BRANCH   1  36
ATOM     36  C   UNL     1      -3.980   2.006  -4.550  0.00  0.00    +0.140 C 
BRANCH  36  38
ATOM     37  C   UNL     1      -4.772   3.937  -5.818  0.00  0.00    +0.005 C 
ATOM     38  C   UNL     1      -5.057   2.786  -5.260  0.00  0.00    -0.015 C 
ENDBRANCH  36  38
ENDBRANCH   1  36
TORSDOF 7
