REMARK  Name = ZINC63855452
REMARK  5 active torsions:
REMARK  status: ('A' for Active; 'I' for Inactive)
REMARK    1  A    between atoms: C_1  and  C_2
REMARK    2  A    between atoms: C_2  and  C_3
REMARK    3  A    between atoms: C_3  and  C_4
REMARK    4  A    between atoms: N_13  and  C_16
REMARK    5  A    between atoms: C_16  and  C_17
REMARK                            x       y       z     vdW  Elec       q    Type
REMARK                         _______ _______ _______ _____ _____    ______ ____
ROOT
ATOM      1  C   UNL     1       0.739  -2.004  -1.265  0.00  0.00    -0.016 C 
ATOM      2  C   UNL     1      -0.126  -2.820  -1.877  0.00  0.00    -0.002 C 
ATOM      3  C   UNL     1       0.123  -4.261  -1.794  0.00  0.00    +0.126 C 
ATOM      4  C   UNL     1       0.948  -4.623  -0.518  0.00  0.00    +0.133 C 
ATOM      5  S   UNL     1       1.931  -3.074  -0.464  0.00  0.00    -0.110 S 
ATOM      6  N   UNL     1       1.712  -5.808  -0.876  0.00  0.00    -0.288 NA
ATOM      7  C   UNL     1       0.854  -6.850  -1.448  0.00  0.00    +0.193 C 
ATOM      8  N   UNL     1      -0.558  -6.526  -1.563  0.00  0.00    -0.284 N 
ATOM      9  C   UNL     1      -0.977  -5.266  -1.831  0.00  0.00    +0.226 C 
ATOM     10  O   UNL     1      -2.134  -4.992  -2.071  0.00  0.00    -0.275 OA
ATOM     11  H   UNL     1       2.467  -5.576  -1.504  0.00  0.00    +0.124 HD
ENDROOT
BRANCH   1  12
ATOM     12  C   UNL     1       0.718  -0.497  -1.257  0.00  0.00    +0.041 C 
BRANCH  12  14
ATOM     13  C   UNL     1      -0.019   1.526   0.010  0.00  0.00    +0.004 C 
ATOM     14  C   UNL     1       0.002  -0.004   0.002  0.00  0.00    +0.002 C 
ENDBRANCH  12  14
ENDBRANCH   1  12
BRANCH   8  15
ATOM     15  C   UNL     1      -1.551  -7.587  -1.375  0.00  0.00    +0.155 C 
BRANCH  15  16
ATOM     16  C   UNL     1      -1.944  -7.662   0.102  0.00  0.00    +0.192 C 
ATOM     17  N   UNL     1      -2.469  -6.367   0.550  0.00  0.00    -0.362 N 
ATOM     18  C   UNL     1      -1.696  -5.941   1.506  0.00  0.00    +0.060 A 
ATOM     19  C   UNL     1      -1.708  -4.727   2.336  0.00  0.00    +0.029 A 
ATOM     20  C   UNL     1      -0.755  -4.551   3.272  0.00  0.00    +0.022 A 
ATOM     21  C   UNL     1       0.269  -5.490   3.497  0.00  0.00    +0.043 A 
ATOM     22  C   UNL     1       0.373  -6.636   2.792  0.00  0.00    +0.047 A 
ATOM     23  C   UNL     1      -0.613  -6.934   1.744  0.00  0.00    +0.062 A 
ATOM     24  N   UNL     1      -0.759  -7.937   0.925  0.00  0.00    -0.362 N 
ATOM     25 CL   UNL     1       1.446  -5.161   4.730  0.00  0.00    -0.083 Cl
ATOM     26  H   UNL     1      -3.250  -5.911   0.198  0.00  0.00    +0.162 HD
ATOM     27  H   UNL     1      -0.191  -8.721   0.869  0.00  0.00    +0.162 HD
ENDBRANCH  15  16
ENDBRANCH   8  15
TORSDOF 4
