REMARK  Name = ZINC62185512
REMARK  5 active torsions:
REMARK  status: ('A' for Active; 'I' for Inactive)
REMARK    1  A    between atoms: C_1  and  C_2
REMARK    2  A    between atoms: C_5  and  S_8
REMARK    3  A    between atoms: S_8  and  N_11
REMARK    4  A    between atoms: N_17  and  C_28
REMARK    5  A    between atoms: C_18  and  C_21
REMARK                            x       y       z     vdW  Elec       q    Type
REMARK                         _______ _______ _______ _____ _____    ______ ____
ROOT
ATOM      1  N   UNL     1       1.651  -4.999  -0.034  0.00  0.00    -0.072 NA
ATOM      2  C   UNL     1       1.956  -6.264  -0.043  0.00  0.00    +0.354 C 
ATOM      3  O   UNL     1       0.976  -7.195  -0.042  0.00  0.00    -0.246 OA
ATOM      4  N   UNL     1       3.273  -6.653  -0.052  0.00  0.00    -0.278 N 
ATOM      5  C   UNL     1       4.354  -5.657  -0.047  0.00  0.00    +0.125 C 
ATOM      6  C   UNL     1       5.334  -6.008   1.078  0.00  0.00    +0.104 C 
ATOM      7  N   UNL     1       5.774  -7.401   0.922  0.00  0.00    -0.295 NA
ATOM      8  C   UNL     1       4.647  -8.334   1.057  0.00  0.00    +0.104 C 
ATOM      9  C   UNL     1       3.639  -8.078  -0.062  0.00  0.00    +0.133 C 
ATOM     10  C   UNL     1       6.843  -7.725   1.877  0.00  0.00    +0.105 C 
ENDROOT
BRANCH   8  11
ATOM     11  C   UNL     1       5.153  -9.750   0.967  0.00  0.00    -0.029 A 
ATOM     12  C   UNL     1       6.143 -10.073   0.058  0.00  0.00    +0.008 A 
ATOM     13  C   UNL     1       6.609 -11.372  -0.025  0.00  0.00    +0.038 A 
ATOM     14  C   UNL     1       6.083 -12.350   0.802  0.00  0.00    +0.123 A 
ATOM     15  C   UNL     1       5.091 -12.025   1.712  0.00  0.00    +0.038 A 
ATOM     16  C   UNL     1       4.631 -10.724   1.797  0.00  0.00    +0.008 A 
ATOM     17  F   UNL     1       6.536 -13.620   0.722  0.00  0.00    -0.205 F 
ENDBRANCH   8  11
BRANCH   1  18
ATOM     18  S   UNL     1       0.063  -4.530  -0.023  0.00  0.00    +0.103 S 
ATOM     19  O   UNL     1      -0.476  -4.950   1.223  0.00  0.00    -0.146 OA
ATOM     20  O   UNL     1      -0.490  -4.937  -1.267  0.00  0.00    -0.146 OA
BRANCH  18  25
ATOM     21  C   UNL     1      -0.018   1.503   0.010  0.00  0.00    +0.044 C 
ATOM     22  C   UNL     1       0.002  -0.004   0.002  0.00  0.00    -0.050 A 
ATOM     23  C   UNL     1       0.006  -0.689  -1.199  0.00  0.00    +0.005 A 
ATOM     24  C   UNL     1       0.025  -2.071  -1.206  0.00  0.00    +0.029 A 
ATOM     25  C   UNL     1       0.040  -2.768  -0.013  0.00  0.00    +0.113 A 
ATOM     26  C   UNL     1       0.037  -2.084   1.188  0.00  0.00    +0.029 A 
ATOM     27  C   UNL     1       0.023  -0.702   1.195  0.00  0.00    +0.005 A 
ENDBRANCH  18  25
ENDBRANCH   1  18
TORSDOF 3
