REMARK  Name = ZINC63296110
REMARK  3 active torsions:
REMARK  status: ('A' for Active; 'I' for Inactive)
REMARK    1  A    between atoms: C_5  and  N_7
REMARK    2  A    between atoms: C_8  and  C_10
REMARK    3  A    between atoms: C_10  and  N_11
REMARK                            x       y       z     vdW  Elec       q    Type
REMARK                         _______ _______ _______ _____ _____    ______ ____
ROOT
ATOM      1  N   UNL     1      -1.251  -4.788   0.298  0.00  0.00    -0.291 N 
ATOM      2  C   UNL     1      -1.469  -6.114   0.405  0.00  0.00    +0.303 C 
ATOM      3  O   UNL     1      -0.528  -6.879   0.503  0.00  0.00    -0.253 OA
ATOM      4  N   UNL     1      -2.729  -6.593   0.403  0.00  0.00    -0.283 N 
ATOM      5  C   UNL     1      -3.859  -5.659   0.391  0.00  0.00    +0.114 C 
ATOM      6  C   UNL     1      -4.744  -5.940  -0.838  0.00  0.00    +0.052 C 
ATOM      7  C   UNL     1      -4.928  -7.436  -0.904  0.00  0.00    -0.035 C 
ATOM      8  C   UNL     1      -6.021  -8.183  -0.998  0.00  0.00    +0.001 A 
ATOM      9  C   UNL     1      -7.438  -7.827  -1.181  0.00  0.00    +0.030 A 
ATOM     10  C   UNL     1      -8.317  -8.864  -1.215  0.00  0.00    +0.042 A 
ATOM     11  C   UNL     1      -7.932 -10.204  -1.087  0.00  0.00    +0.022 A 
ATOM     12  C   UNL     1      -6.652 -10.621  -0.925  0.00  0.00    +0.027 A 
ATOM     13  C   UNL     1      -5.636  -9.622  -0.882  0.00  0.00    +0.043 A 
ATOM     14  N   UNL     1      -4.346  -9.739  -0.761  0.00  0.00    -0.376 N 
ATOM     15  C   UNL     1      -3.752  -8.404  -0.847  0.00  0.00    +0.124 C 
ATOM     16  C   UNL     1      -2.955  -8.046   0.406  0.00  0.00    +0.138 C 
ATOM     17 CL   UNL     1     -10.003  -8.508  -1.429  0.00  0.00    -0.084 Cl
ATOM     18  H   UNL     1      -2.001  -4.173   0.293  0.00  0.00    +0.151 HD
ATOM     19  H   UNL     1      -3.861 -10.569  -0.635  0.00  0.00    +0.160 HD
ENDROOT
BRANCH   1  20
ATOM     20  C   UNL     1       0.117  -4.277   0.189  0.00  0.00    +0.202 C 
BRANCH  20  22
ATOM     21  N   UNL     1       1.236  -2.082  -0.028  0.00  0.00    -0.282 N 
ATOM     22  C   UNL     1       0.085  -2.774   0.083  0.00  0.00    +0.234 C 
ATOM     23  O   UNL     1      -0.976  -2.188   0.097  0.00  0.00    -0.274 OA
ATOM     24  H   UNL     1       2.079  -2.553  -0.120  0.00  0.00    +0.155 HD
BRANCH  21  29
ATOM     25  C   UNL     1       0.154   1.372   0.627  0.00  0.00    +0.002 A 
ATOM     26  C   UNL     1       1.173   2.086   0.025  0.00  0.00    +0.003 A 
ATOM     27  C   UNL     1       2.215   1.421  -0.595  0.00  0.00    +0.040 A 
ATOM     28  C   UNL     1       2.239   0.039  -0.615  0.00  0.00    +0.144 A 
ATOM     29  C   UNL     1       1.215  -0.681  -0.010  0.00  0.00    +0.069 A 
ATOM     30  C   UNL     1       0.172  -0.009   0.612  0.00  0.00    +0.026 A 
ATOM     31  F   UNL     1       3.256  -0.611  -1.222  0.00  0.00    -0.204 F 
ENDBRANCH  21  29
ENDBRANCH  20  22
ENDBRANCH   1  20
TORSDOF 3
