REMARK  Name = ZINC22990757
REMARK  6 active torsions:
REMARK  status: ('A' for Active; 'I' for Inactive)
REMARK    1  A    between atoms: C_1  and  C_2
REMARK    2  A    between atoms: C_4  and  C_33
REMARK    3  A    between atoms: C_6  and  C_30
REMARK    4  A    between atoms: C_10  and  C_11
REMARK    5  A    between atoms: N_13  and  N_14
REMARK    6  A    between atoms: C_21  and  C_24
REMARK                            x       y       z     vdW  Elec       q    Type
REMARK                         _______ _______ _______ _____ _____    ______ ____
ROOT
ATOM      1  C   UNL     1      -0.038   1.300   0.114  0.00  0.00    +0.269 C 
ATOM      2  O   UNL     1      -1.101   1.891   0.133  0.00  0.00    -0.268 OA
ATOM      3  N   UNL     1      -0.015  -0.043   0.007  0.00  0.00    -0.214 N 
ATOM      4  H   UNL     1       0.947  -0.577  -0.015  0.00  0.00    +0.176 HD
ENDROOT
BRANCH   1  14
ATOM      5  C   UNL     1       0.207   4.314   0.360  0.00  0.00    +0.046 C 
ATOM      6  C   UNL     1       1.401   3.395   0.314  0.00  0.00    -0.020 A 
ATOM      7  C   UNL     1       2.699   3.924   0.386  0.00  0.00    +0.032 A 
ATOM      8  C   UNL     1       3.114   5.274   0.504  0.00  0.00    +0.050 A 
ATOM      9  N   UNL     1       4.398   5.552   0.556  0.00  0.00    -0.236 NA
ATOM     10  C   UNL     1       5.328   4.615   0.502  0.00  0.00    +0.134 A 
ATOM     11  N   UNL     1       5.012   3.339   0.393  0.00  0.00    -0.225 NA
ATOM     12  C   UNL     1       3.751   2.972   0.334  0.00  0.00    +0.113 A 
ATOM     13  S   UNL     1       2.893   1.425   0.197  0.00  0.00    -0.064 S 
ATOM     14  C   UNL     1       1.222   2.052   0.202  0.00  0.00    +0.081 A 
ATOM     15  C   UNL     1       2.093   6.381   0.569  0.00  0.00    +0.066 C 
BRANCH  10  16
ATOM     16  C   UNL     1       6.781   5.012   0.568  0.00  0.00    +0.057 C 
ATOM     17  C   UNL     1       7.823   3.925   0.301  0.00  0.00    +0.012 C 
ATOM     18  C   UNL     1       7.615   4.451   1.722  0.00  0.00    +0.012 C 
ENDBRANCH  10  16
ENDBRANCH   1  14
BRANCH   3  19
ATOM     19  N   UNL     1      -1.216  -0.760  -0.077  0.00  0.00    -0.212 N 
ATOM     20  C   UNL     1      -1.966  -0.934   1.040  0.00  0.00    +0.223 A 
ATOM     21  N   UNL     1      -3.094  -1.591   1.000  0.00  0.00    -0.228 NA
ATOM     22  C   UNL     1      -3.539  -2.121  -0.136  0.00  0.00    +0.116 A 
ATOM     23  C   UNL     1      -2.828  -1.997  -1.341  0.00  0.00    +0.081 A 
ATOM     24  C   UNL     1      -1.600  -1.266  -1.264  0.00  0.00    +0.280 A 
ATOM     25  O   UNL     1      -0.912  -1.106  -2.257  0.00  0.00    -0.265 OA
ATOM     26  C   UNL     1      -3.452  -2.634  -2.494  0.00  0.00    +0.004 A 
ATOM     27  C   UNL     1      -4.632  -3.278  -2.325  0.00  0.00    +0.056 A 
ATOM     28  S   UNL     1      -4.974  -3.061  -0.589  0.00  0.00    -0.076 S 
BRANCH  26  29
ATOM     29  C   UNL     1      -2.806  -2.580  -3.828  0.00  0.00    -0.017 A 
ATOM     30  C   UNL     1      -2.375  -1.360  -4.347  0.00  0.00    +0.008 A 
ATOM     31  C   UNL     1      -1.770  -1.316  -5.587  0.00  0.00    +0.001 A 
ATOM     32  C   UNL     1      -1.602  -2.478  -6.319  0.00  0.00    +0.000 A 
ATOM     33  C   UNL     1      -2.033  -3.690  -5.811  0.00  0.00    +0.001 A 
ATOM     34  C   UNL     1      -2.634  -3.747  -4.570  0.00  0.00    +0.008 A 
ENDBRANCH  26  29
ENDBRANCH   3  19
TORSDOF 4
