REMARK  Name = ZINC17176535
REMARK  8 active torsions:
REMARK  status: ('A' for Active; 'I' for Inactive)
REMARK    1  A    between atoms: C_4  and  C_7
REMARK    2  A    between atoms: C_7  and  C_9
REMARK    3  A    between atoms: C_7  and  C_23
REMARK    4  A    between atoms: C_9  and  C_17
REMARK    5  A    between atoms: N_10  and  N_11
REMARK    6  A    between atoms: C_12  and  C_14
REMARK    7  A    between atoms: C_14  and  C_15
REMARK    8  A    between atoms: C_23  and  O_35
REMARK                            x       y       z     vdW  Elec       q    Type
REMARK                         _______ _______ _______ _____ _____    ______ ____
ROOT
ATOM      1  C   UNL     1      -1.272  -0.921   0.040  0.00  0.00    +0.115 C 
ENDROOT
BRANCH   1   2
ATOM      2  C   UNL     1      -1.821  -0.433   1.382  0.00  0.00    +0.182 C 
ATOM      3  C   UNL     1      -3.058  -1.215   1.764  0.00  0.00    +0.035 A 
ATOM      4  C   UNL     1      -3.281  -2.552   2.014  0.00  0.00    +0.049 A 
ATOM      5  C   UNL     1      -4.552  -2.988   2.350  0.00  0.00    +0.022 A 
ATOM      6  C   UNL     1      -5.591  -2.080   2.433  0.00  0.00    +0.023 A 
ATOM      7  C   UNL     1      -5.370  -0.741   2.183  0.00  0.00    +0.063 A 
ATOM      8  C   UNL     1      -4.093  -0.294   1.843  0.00  0.00    +0.060 A 
ATOM      9  N   UNL     1      -3.624   0.987   1.549  0.00  0.00    -0.281 N 
ATOM     10  C   UNL     1      -2.309   0.995   1.268  0.00  0.00    +0.255 C 
ATOM     11  O   UNL     1      -1.640   1.964   0.978  0.00  0.00    -0.272 OA
ATOM     12 CL   UNL     1      -6.684   0.389   2.290  0.00  0.00    -0.082 Cl
ATOM     13 CL   UNL     1      -1.972  -3.687   1.907  0.00  0.00    -0.083 Cl
ATOM     14  H   UNL     1      -4.182   1.781   1.546  0.00  0.00    +0.155 HD
BRANCH   2  15
ATOM     15  O   UNL     1      -0.823  -0.542   2.399  0.00  0.00    -0.374 OA
ATOM     16  H   UNL     1      -1.142  -0.330   3.287  0.00  0.00    +0.211 HD
ENDBRANCH   2  15
ENDBRANCH   1   2
BRANCH   1  20
ATOM     17  C   UNL     1       0.612  -4.718   0.566  0.00  0.00    +0.000 A 
ATOM     18  C   UNL     1      -0.391  -4.568  -0.374  0.00  0.00    +0.000 A 
ATOM     19  C   UNL     1      -1.000  -3.340  -0.544  0.00  0.00    +0.004 A 
ATOM     20  C   UNL     1      -0.608  -2.260   0.225  0.00  0.00    -0.035 A 
ATOM     21  C   UNL     1       0.399  -2.409   1.162  0.00  0.00    +0.004 A 
ATOM     22  C   UNL     1       1.006  -3.639   1.335  0.00  0.00    +0.000 A 
ENDBRANCH   1  20
BRANCH   1  23
ATOM     23  C   UNL     1      -0.265   0.072  -0.481  0.00  0.00    +0.077 C 
ATOM     24  N   UNL     1      -0.534   0.775  -1.538  0.00  0.00    -0.184 NA
BRANCH  23  25
ATOM     25  C   UNL     1       1.026   0.244   0.210  0.00  0.00    -0.002 A 
ATOM     26  C   UNL     1       1.073   0.852   1.467  0.00  0.00    +0.010 A 
ATOM     27  C   UNL     1       2.284   1.006   2.110  0.00  0.00    +0.001 A 
ATOM     28  C   UNL     1       3.451   0.569   1.509  0.00  0.00    +0.000 A 
ATOM     29  C   UNL     1       3.412  -0.029   0.262  0.00  0.00    +0.001 A 
ATOM     30  C   UNL     1       2.208  -0.195  -0.391  0.00  0.00    +0.010 A 
ENDBRANCH  23  25
BRANCH  24  31
ATOM     31  N   UNL     1      -1.807   0.706  -2.120  0.00  0.00    -0.206 N 
ATOM     32  C   UNL     1      -2.054   1.350  -3.278  0.00  0.00    +0.246 C 
ATOM     33  O   UNL     1      -1.153   1.913  -3.864  0.00  0.00    -0.273 OA
ATOM     34  H   UNL     1      -2.510   0.196  -1.689  0.00  0.00    +0.177 HD
BRANCH  32  35
ATOM     35  C   UNL     1      -3.450   1.371  -3.846  0.00  0.00    +0.215 C 
BRANCH  35  36
ATOM     36  C   UNL     1      -3.434   2.026  -5.164  0.00  0.00    +0.072 C 
ATOM     37  N   UNL     1      -3.421   2.531  -6.181  0.00  0.00    -0.196 NA
ENDBRANCH  35  36
ENDBRANCH  32  35
ENDBRANCH  24  31
ENDBRANCH   1  23
TORSDOF 8
