REMARK  Name = ZINC18180902
REMARK  11 active torsions:
REMARK  status: ('A' for Active; 'I' for Inactive)
REMARK    1  A    between atoms: C_1  and  C_2
REMARK    2  A    between atoms: C_2  and  C_3
REMARK    3  A    between atoms: C_15  and  C_17
REMARK    4  A    between atoms: C_20  and  C_23
REMARK    5  A    between atoms: C_27  and  C_30
REMARK    6  A    between atoms: C_32  and  O_40
REMARK    7  A    between atoms: C_33  and  O_38
REMARK    8  A    between atoms: C_34  and  O_36
REMARK    9  A    between atoms: O_36  and  C_37
REMARK   10  A    between atoms: O_38  and  C_39
REMARK   11  A    between atoms: O_40  and  C_41
REMARK                            x       y       z     vdW  Elec       q    Type
REMARK                         _______ _______ _______ _____ _____    ______ ____
ROOT
ATOM      1  C   UNL     1      -0.548   6.026  -0.831  0.00  0.00    +0.220 C 
ATOM      2  O   UNL     1      -0.513   7.235  -0.737  0.00  0.00    -0.275 OA
ATOM      3  N   UNL     1      -0.070   5.258   0.168  0.00  0.00    -0.258 N 
ATOM      4  C   UNL     1      -0.116   3.869   0.048  0.00  0.00    +0.058 A 
ATOM      5  C   UNL     1      -1.322   3.185   0.030  0.00  0.00    +0.025 A 
ATOM      6  C   UNL     1      -1.319   1.802  -0.020  0.00  0.00    +0.002 A 
ATOM      7  C   UNL     1      -0.124   1.105  -0.049  0.00  0.00    +0.002 A 
ATOM      8  C   UNL     1       1.081   1.786  -0.058  0.00  0.00    +0.025 A 
ATOM      9  C   UNL     1       1.079   3.169  -0.017  0.00  0.00    +0.053 A 
ATOM     10  N   UNL     1       2.249   3.916  -0.086  0.00  0.00    -0.316 N 
ATOM     11  C   UNL     1       2.703   4.735   0.897  0.00  0.00    +0.017 C 
ATOM     12  C   UNL     1       1.957   5.636   1.557  0.00  0.00    +0.037 C 
ATOM     13  C   UNL     1       0.482   5.888   1.349  0.00  0.00    +0.147 C 
ATOM     14  C   UNL     1       2.542   6.458   2.549  0.00  0.00    +0.163 C 
ATOM     15  O   UNL     1       1.837   7.250   3.143  0.00  0.00    -0.292 OA
ATOM     16  C   UNL     1       3.999   6.389   2.893  0.00  0.00    +0.088 C 
ATOM     17  C   UNL     1       4.772   5.901   1.661  0.00  0.00    +0.032 C 
ATOM     18  C   UNL     1       4.174   4.560   1.239  0.00  0.00    +0.059 C 
ATOM     19  H   UNL     1       2.780   3.848  -0.894  0.00  0.00    +0.152 HD
ENDROOT
BRANCH  13  20
ATOM     20  C   UNL     1      -0.265   5.382   2.555  0.00  0.00    -0.022 A 
ATOM     21  C   UNL     1      -0.965   6.266   3.355  0.00  0.00    +0.006 A 
ATOM     22  C   UNL     1      -1.655   5.801   4.460  0.00  0.00    +0.004 A 
ATOM     23  C   UNL     1      -1.636   4.454   4.769  0.00  0.00    -0.050 A 
ATOM     24  C   UNL     1      -0.931   3.571   3.973  0.00  0.00    +0.004 A 
ATOM     25  C   UNL     1      -0.246   4.035   2.866  0.00  0.00    +0.006 A 
ATOM     26  C   UNL     1      -2.384   3.948   5.976  0.00  0.00    +0.044 C 
ENDBRANCH  13  20
BRANCH  17  27
ATOM     27  C   UNL     1       6.228   5.725   2.008  0.00  0.00    -0.036 A 
ATOM     28  C   UNL     1       6.595   4.870   3.030  0.00  0.00    +0.053 A 
ATOM     29  C   UNL     1       7.934   4.701   3.348  0.00  0.00    +0.165 A 
ATOM     30  C   UNL     1       8.907   5.401   2.645  0.00  0.00    +0.204 A 
ATOM     31  C   UNL     1       8.533   6.265   1.623  0.00  0.00    +0.165 A 
ATOM     32  C   UNL     1       7.192   6.425   1.307  0.00  0.00    +0.053 A 
BRANCH  31  33
ATOM     33  O   UNL     1       9.482   6.953   0.932  0.00  0.00    -0.491 OA
ATOM     34  C   UNL     1       9.025   7.822  -0.107  0.00  0.00    +0.277 C 
ENDBRANCH  31  33
BRANCH  30  35
ATOM     35  O   UNL     1      10.222   5.242   2.958  0.00  0.00    -0.488 OA
ATOM     36  C   UNL     1      10.765   6.122   3.944  0.00  0.00    +0.277 C 
ENDBRANCH  30  35
BRANCH  29  37
ATOM     37  O   UNL     1       8.294   3.854   4.349  0.00  0.00    -0.491 OA
ATOM     38  C   UNL     1       7.241   3.167   5.028  0.00  0.00    +0.277 C 
ENDBRANCH  29  37
ENDBRANCH  17  27
BRANCH   1  40
ATOM     39  C   UNL     1      -1.593   6.470  -3.036  0.00  0.00    +0.013 C 
ATOM     40  C   UNL     1      -1.126   5.383  -2.065  0.00  0.00    +0.093 C 
ENDBRANCH   1  40
TORSDOF 6
