REMARK  Name = ZINC08789681
REMARK  11 active torsions:
REMARK  status: ('A' for Active; 'I' for Inactive)
REMARK    1  A    between atoms: C_1  and  C_2
REMARK    2  A    between atoms: C_2  and  C_3
REMARK    3  A    between atoms: C_3  and  O_4
REMARK    4  A    between atoms: O_4  and  C_5
REMARK    5  A    between atoms: C_9  and  C_14
REMARK    6  A    between atoms: C_10  and  O_11
REMARK    7  A    between atoms: O_11  and  C_12
REMARK    8  A    between atoms: C_12  and  C_13
REMARK    9  A    between atoms: N_20  and  C_35
REMARK   10  A    between atoms: C_23  and  C_34
REMARK   11  A    between atoms: C_38  and  C_41
REMARK                            x       y       z     vdW  Elec       q    Type
REMARK                         _______ _______ _______ _____ _____    ______ ____
ROOT
ATOM      1  C   UNL     1      -0.047   1.498   0.002  0.00  0.00    +0.072 C 
ATOM      2  C   UNL     1       0.003  -0.038  -0.011  0.00  0.00    +0.123 C 
ATOM      3  N   UNL     1       1.105  -0.455   0.856  0.00  0.00    -0.265 N 
ATOM      4  C   UNL     1       1.105  -1.140   2.000  0.00  0.00    +0.317 C 
ATOM      5  O   UNL     1       0.163  -1.793   2.404  0.00  0.00    -0.252 OA
ATOM      6  N   UNL     1       2.274  -1.020   2.651  0.00  0.00    -0.192 N 
ATOM      7  C   UNL     1       3.188  -0.355   1.911  0.00  0.00    +0.257 C 
ATOM      8  O   UNL     1       4.311  -0.040   2.241  0.00  0.00    -0.272 OA
ATOM      9  C   UNL     1       2.516  -0.086   0.586  0.00  0.00    +0.153 C 
ATOM     10  C   UNL     1       2.490   1.390   0.267  0.00  0.00    +0.054 A 
ATOM     11  C   UNL     1       1.349   2.066   0.004  0.00  0.00    -0.008 A 
ATOM     12  C   UNL     1       1.736   3.439  -0.269  0.00  0.00    +0.004 A 
ATOM     13  C   UNL     1       0.997   4.578  -0.604  0.00  0.00    +0.010 A 
ATOM     14  C   UNL     1       1.702   5.741  -0.792  0.00  0.00    +0.001 A 
ATOM     15  C   UNL     1       3.080   5.796  -0.659  0.00  0.00    +0.002 A 
ATOM     16  C   UNL     1       3.835   4.684  -0.329  0.00  0.00    +0.026 A 
ATOM     17  C   UNL     1       3.146   3.489  -0.133  0.00  0.00    +0.047 A 
ATOM     18  N   UNL     1       3.566   2.232   0.194  0.00  0.00    -0.356 N 
ATOM     19  H   UNL     1       4.488   1.975   0.351  0.00  0.00    +0.166 HD
ATOM     20  C   UNL     1       3.125  -0.916  -0.546  0.00  0.00    +0.048 C 
ENDROOT
BRANCH   6  21
ATOM     21  C   UNL     1       2.515  -1.523   3.937  0.00  0.00    +0.045 A 
ATOM     22  C   UNL     1       3.793  -1.469   4.476  0.00  0.00    +0.024 A 
ATOM     23  C   UNL     1       4.027  -1.961   5.746  0.00  0.00    +0.005 A 
ATOM     24  C   UNL     1       2.991  -2.516   6.475  0.00  0.00    -0.050 A 
ATOM     25  C   UNL     1       1.718  -2.575   5.939  0.00  0.00    +0.005 A 
ATOM     26  C   UNL     1       1.477  -2.080   4.672  0.00  0.00    +0.024 A 
ATOM     27  C   UNL     1       3.251  -3.058   7.857  0.00  0.00    +0.044 C 
ENDBRANCH   6  21
BRANCH   1  32
ATOM     28  C   UNL     1      -2.601   3.148   2.257  0.00  0.00    +0.162 A 
ATOM     29  C   UNL     1      -2.114   2.812   3.510  0.00  0.00    +0.049 A 
ATOM     30  C   UNL     1      -0.963   2.054   3.624  0.00  0.00    +0.004 A 
ATOM     31  C   UNL     1      -0.299   1.625   2.490  0.00  0.00    +0.008 A 
ATOM     32  C   UNL     1      -0.777   1.962   1.236  0.00  0.00    +0.007 A 
ATOM     33  C   UNL     1      -1.929   2.721   1.115  0.00  0.00    +0.166 A 
BRANCH  28  34
ATOM     34  O   UNL     1      -3.732   3.894   2.143  0.00  0.00    -0.488 OA
BRANCH  34  35
ATOM     35  C   UNL     1      -4.369   4.297   3.358  0.00  0.00    +0.229 C 
BRANCH  35  37
ATOM     36  C   UNL     1      -6.296   5.553   4.332  0.00  0.00    +0.007 C 
ATOM     37  C   UNL     1      -5.615   5.122   3.031  0.00  0.00    +0.038 C 
ENDBRANCH  35  37
ENDBRANCH  34  35
ENDBRANCH  28  34
BRANCH  33  38
ATOM     38  O   UNL     1      -2.403   3.050  -0.117  0.00  0.00    -0.488 OA
BRANCH  38  39
ATOM     39  C   UNL     1      -3.329   2.142  -0.718  0.00  0.00    +0.226 C 
ATOM     40  C   UNL     1      -3.747   2.675  -2.090  0.00  0.00    +0.048 C 
ENDBRANCH  38  39
ENDBRANCH  33  38
ENDBRANCH   1  32
TORSDOF 7
