REMARK  Name = ZINC39686619
REMARK  11 active torsions:
REMARK  status: ('A' for Active; 'I' for Inactive)
REMARK    1  A    between atoms: C_1  and  C_2
REMARK    2  A    between atoms: C_2  and  C_3
REMARK    3  A    between atoms: C_3  and  C_5
REMARK    4  A    between atoms: C_3  and  C_11
REMARK    5  A    between atoms: C_15  and  C_24
REMARK    6  A    between atoms: N_26  and  C_27
REMARK    7  A    between atoms: C_27  and  C_29
REMARK    8  A    between atoms: C_27  and  C_30
REMARK    9  A    between atoms: C_30  and  C_31
REMARK   10  A    between atoms: C_36  and  O_37
REMARK   11  A    between atoms: O_37  and  C_38
REMARK                            x       y       z     vdW  Elec       q    Type
REMARK                         _______ _______ _______ _____ _____    ______ ____
ROOT
ATOM      1  C   UNL     1      -1.909  -0.070  -0.902  0.00  0.00    +0.223 C 
ATOM      2  O   UNL     1      -2.574  -0.905  -1.478  0.00  0.00    -0.275 OA
ATOM      3  N   UNL     1      -2.016   1.229  -1.245  0.00  0.00    -0.300 N 
ATOM      4  C   UNL     1      -1.366   2.395  -0.601  0.00  0.00    +0.121 C 
ATOM      5  C   UNL     1      -0.963   3.315  -1.775  0.00  0.00    +0.100 C 
ATOM      6  C   UNL     1      -1.915   2.931  -2.920  0.00  0.00    -0.004 C 
ATOM      7  C   UNL     1      -2.805   1.814  -2.356  0.00  0.00    +0.115 C 
ATOM      8  C   UNL     1      -1.122   2.411  -4.115  0.00  0.00    -0.010 C 
ATOM      9  C   UNL     1      -2.086   2.090  -5.261  0.00  0.00    -0.082 C 
ATOM     10  N   UNL     1      -2.830   3.300  -5.630  0.00  0.00    +0.379 N 
ATOM     11  C   UNL     1      -3.662   3.740  -4.504  0.00  0.00    -0.082 C 
ATOM     12  C   UNL     1      -2.765   4.131  -3.326  0.00  0.00    -0.010 C 
ATOM     13  H   UNL     1      -2.180   4.032  -5.873  0.00  0.00    -0.086 HD
ATOM     14  H   UNL     1      -3.420   3.101  -6.424  0.00  0.00    -0.086 HD
ENDROOT
BRANCH   5  15
ATOM     15  C   UNL     1      -1.150   4.761  -1.397  0.00  0.00    +0.218 C 
ATOM     16  O   UNL     1      -2.047   5.080  -0.644  0.00  0.00    -0.275 OA
ATOM     17  N   UNL     1      -0.322   5.701  -1.894  0.00  0.00    -0.312 N 
ATOM     18  H   UNL     1       0.395   5.446  -2.495  0.00  0.00    +0.149 HD
BRANCH  17  19
ATOM     19  C   UNL     1      -0.504   7.107  -1.526  0.00  0.00    +0.074 C 
ATOM     20  C   UNL     1       0.212   7.385  -0.203  0.00  0.00    +0.028 C 
BRANCH  19  21
ATOM     21  C   UNL     1       0.082   8.001  -2.621  0.00  0.00    +0.060 C 
BRANCH  21  22
ATOM     22  C   UNL     1      -0.704   7.817  -3.893  0.00  0.00    -0.004 A 
ATOM     23  C   UNL     1      -0.272   6.917  -4.849  0.00  0.00    +0.007 A 
ATOM     24  C   UNL     1      -0.992   6.748  -6.017  0.00  0.00    +0.000 A 
ATOM     25  C   UNL     1      -2.146   7.478  -6.232  0.00  0.00    +0.004 A 
ATOM     26  C   UNL     1      -2.583   8.379  -5.280  0.00  0.00    +0.046 A 
ATOM     27  C   UNL     1      -1.865   8.546  -4.104  0.00  0.00    +0.123 A 
BRANCH  27  28
ATOM     28  O   UNL     1      -2.295   9.428  -3.163  0.00  0.00    -0.495 OA
ATOM     29  C   UNL     1      -3.498  10.145  -3.448  0.00  0.00    +0.277 C 
ENDBRANCH  27  28
ENDBRANCH  21  22
ENDBRANCH  19  21
ENDBRANCH  17  19
ENDBRANCH   5  15
BRANCH   1  30
ATOM     30  C   UNL     1      -0.964  -0.484   0.195  0.00  0.00    +0.105 C 
BRANCH  30  31
ATOM     31  C   UNL     1      -1.706  -0.532   1.506  0.00  0.00    -0.036 A 
ATOM     32  C   UNL     1      -2.783  -1.385   1.660  0.00  0.00    +0.004 A 
ATOM     33  C   UNL     1      -3.463  -1.428   2.862  0.00  0.00    +0.000 A 
ATOM     34  C   UNL     1      -3.066  -0.620   3.911  0.00  0.00    +0.000 A 
ATOM     35  C   UNL     1      -1.989   0.232   3.757  0.00  0.00    +0.000 A 
ATOM     36  C   UNL     1      -1.306   0.273   2.556  0.00  0.00    +0.004 A 
ENDBRANCH  30  31
BRANCH  30  38
ATOM     37  C   UNL     1       0.477  -1.789  -1.374  0.00  0.00    +0.005 C 
ATOM     38  C   UNL     1      -0.393  -1.869  -0.119  0.00  0.00    +0.014 C 
ENDBRANCH  30  38
ENDBRANCH   1  30
TORSDOF 8
