REMARK  Name = ZINC35862736
REMARK  9 active torsions:
REMARK  status: ('A' for Active; 'I' for Inactive)
REMARK    1  A    between atoms: C_1  and  C_2
REMARK    2  A    between atoms: C_6  and  C_8
REMARK    3  A    between atoms: C_12  and  O_26
REMARK    4  A    between atoms: C_19  and  C_21
REMARK    5  A    between atoms: O_26  and  C_27
REMARK    6  A    between atoms: C_27  and  C_28
REMARK    7  A    between atoms: C_31  and  C_33
REMARK    8  A    between atoms: N_35  and  C_36
REMARK    9  A    between atoms: C_36  and  C_37
REMARK                            x       y       z     vdW  Elec       q    Type
REMARK                         _______ _______ _______ _____ _____    ______ ____
ROOT
ATOM      1  C   UNL     1       0.063  -2.856   2.484  0.00  0.00    +0.137 C 
ATOM      2  C   UNL     1       1.457  -3.399   2.678  0.00  0.00    -0.016 A 
ATOM      3  C   UNL     1       2.519  -2.519   2.534  0.00  0.00    +0.051 A 
ATOM      4  C   UNL     1       3.821  -2.955   2.710  0.00  0.00    +0.121 A 
ATOM      5  C   UNL     1       4.061  -4.283   3.033  0.00  0.00    +0.046 A 
ATOM      6  C   UNL     1       3.004  -5.155   3.171  0.00  0.00    +0.007 A 
ATOM      7  C   UNL     1       1.696  -4.719   2.989  0.00  0.00    -0.040 A 
ATOM      8  C   UNL     1       0.596  -5.738   3.130  0.00  0.00    +0.054 C 
ATOM      9  C   UNL     1      -0.748  -5.056   3.382  0.00  0.00    +0.114 C 
ATOM     10  N   UNL     1      -0.892  -3.966   2.402  0.00  0.00    -0.284 N 
ATOM     11  C   UNL     1      -1.864  -3.988   1.469  0.00  0.00    +0.283 C 
ATOM     12  O   UNL     1      -1.897  -3.131   0.605  0.00  0.00    -0.267 OA
ENDROOT
BRANCH   1  18
ATOM     13  C   UNL     1      -0.828   1.459   0.111  0.00  0.00    +0.044 C 
ATOM     14  C   UNL     1      -0.416   0.010   0.073  0.00  0.00    -0.050 A 
ATOM     15  C   UNL     1      -0.088  -0.584  -1.131  0.00  0.00    +0.003 A 
ATOM     16  C   UNL     1       0.289  -1.914  -1.165  0.00  0.00    +0.001 A 
ATOM     17  C   UNL     1       0.338  -2.649   0.005  0.00  0.00    +0.006 A 
ATOM     18  C   UNL     1       0.010  -2.054   1.208  0.00  0.00    -0.022 A 
ATOM     19  C   UNL     1      -0.363  -0.724   1.244  0.00  0.00    +0.009 A 
ENDBRANCH   1  18
BRANCH  11  20
ATOM     20  C   UNL     1      -2.882  -5.043   1.494  0.00  0.00    +0.189 A 
ATOM     21  C   UNL     1      -3.835  -5.261   0.541  0.00  0.00    +0.054 A 
ATOM     22  C   UNL     1      -4.588  -6.366   0.969  0.00  0.00    +0.042 A 
ATOM     23  C   UNL     1      -4.067  -6.769   2.149  0.00  0.00    +0.196 A 
ATOM     24  O   UNL     1      -3.036  -5.972   2.459  0.00  0.00    -0.458 OA
ENDBRANCH  11  20
BRANCH   4  25
ATOM     25  O   UNL     1       4.858  -2.088   2.566  0.00  0.00    -0.484 OA
BRANCH  25  26
ATOM     26  C   UNL     1       6.173  -2.611   2.763  0.00  0.00    +0.303 C 
BRANCH  26  27
ATOM     27  C   UNL     1       7.186  -1.513   2.563  0.00  0.00    +0.143 A 
ATOM     28  C   UNL     1       7.658  -0.694   3.529  0.00  0.00    +0.049 A 
ATOM     29  C   UNL     1       8.576   0.176   2.919  0.00  0.00    +0.055 A 
ATOM     30  C   UNL     1       8.618  -0.161   1.597  0.00  0.00    +0.190 A 
ATOM     31  O   UNL     1       7.770  -1.193   1.402  0.00  0.00    -0.452 OA
BRANCH  30  32
ATOM     32  C   UNL     1       9.443   0.482   0.569  0.00  0.00    +0.279 C 
ATOM     33  O   UNL     1      10.176   1.406   0.868  0.00  0.00    -0.267 OA
ATOM     34  N   UNL     1       9.390   0.049  -0.706  0.00  0.00    -0.309 N 
ATOM     35  H   UNL     1       8.806  -0.687  -0.945  0.00  0.00    +0.149 HD
BRANCH  34  36
ATOM     36  C   UNL     1      10.214   0.692  -1.733  0.00  0.00    +0.108 C 
BRANCH  36  37
ATOM     37  C   UNL     1       9.966   0.016  -3.083  0.00  0.00    +0.006 C 
ATOM     38  C   UNL     1      11.145  -0.708  -3.737  0.00  0.00    +0.005 C 
ATOM     39  C   UNL     1      10.649   0.620  -4.311  0.00  0.00    +0.005 C 
ENDBRANCH  36  37
ENDBRANCH  34  36
ENDBRANCH  30  32
ENDBRANCH  26  27
ENDBRANCH  25  26
ENDBRANCH   4  25
TORSDOF 8
