REMARK  Name = ZINC01241355
REMARK  7 active torsions:
REMARK  status: ('A' for Active; 'I' for Inactive)
REMARK    1  A    between atoms: C_1  and  C_2
REMARK    2  A    between atoms: C_7  and  N_8
REMARK    3  A    between atoms: C_18  and  S_19
REMARK    4  A    between atoms: S_19  and  C_20
REMARK    5  A    between atoms: C_20  and  C_21
REMARK    6  A    between atoms: N_23  and  N_24
REMARK    7  A    between atoms: C_25  and  C_26
REMARK                            x       y       z     vdW  Elec       q    Type
REMARK                         _______ _______ _______ _____ _____    ______ ____
ROOT
ATOM      1  N   UNL     1       2.309  13.036   0.052  0.00  0.00    -0.255 N 
ATOM      2  C   UNL     1       3.262  13.996   0.048  0.00  0.00    +0.267 A 
ATOM      3  O   UNL     1       2.968  15.177   0.058  0.00  0.00    -0.267 OA
ATOM      4  C   UNL     1       4.665  13.561   0.032  0.00  0.00    +0.065 A 
ATOM      5  C   UNL     1       5.719  14.474   0.027  0.00  0.00    +0.015 A 
ATOM      6  C   UNL     1       7.007  14.015   0.012  0.00  0.00    +0.001 A 
ATOM      7  C   UNL     1       7.275  12.652   0.002  0.00  0.00    +0.002 A 
ATOM      8  C   UNL     1       6.261  11.736   0.006  0.00  0.00    +0.028 A 
ATOM      9  C   UNL     1       4.934  12.173   0.021  0.00  0.00    +0.079 A 
ATOM     10  N   UNL     1       3.899  11.301   0.032  0.00  0.00    -0.223 NA
ATOM     11  C   UNL     1       2.655  11.713   0.041  0.00  0.00    +0.177 A 
ENDROOT
BRANCH   1  18
ATOM     12  C   UNL     1       0.984  13.399  -2.440  0.00  0.00    +0.046 C 
ATOM     13  C   UNL     1       0.272  13.587  -1.125  0.00  0.00    -0.026 A 
ATOM     14  C   UNL     1      -1.062  13.946  -1.107  0.00  0.00    +0.005 A 
ATOM     15  C   UNL     1      -1.716  14.118   0.099  0.00  0.00    +0.000 A 
ATOM     16  C   UNL     1      -1.037  13.932   1.290  0.00  0.00    +0.002 A 
ATOM     17  C   UNL     1       0.295  13.568   1.278  0.00  0.00    +0.026 A 
ATOM     18  C   UNL     1       0.956  13.400   0.068  0.00  0.00    +0.055 A 
ENDBRANCH   1  18
BRANCH  11  19
ATOM     19  S   UNL     1       1.371  10.507   0.047  0.00  0.00    -0.078 S 
BRANCH  19  20
ATOM     20  C   UNL     1       2.361   8.992   0.029  0.00  0.00    +0.174 C 
BRANCH  20  21
ATOM     21  C   UNL     1       1.447   7.794   0.031  0.00  0.00    +0.242 C 
ATOM     22  O   UNL     1       0.243   7.950   0.044  0.00  0.00    -0.273 OA
ATOM     23  N   UNL     1       1.966   6.551   0.019  0.00  0.00    -0.206 N 
ATOM     24  H   UNL     1       2.928   6.426   0.009  0.00  0.00    +0.177 HD
BRANCH  23  25
ATOM     25  N   UNL     1       1.116   5.437   0.021  0.00  0.00    -0.188 NA
ATOM     26  C   UNL     1       1.616   4.238   0.009  0.00  0.00    +0.140 C 
BRANCH  26  27
ATOM     27  C   UNL     1       0.723   3.068   0.012  0.00  0.00    +0.020 A 
ATOM     28  C   UNL     1       1.096   1.760   0.001  0.00  0.00    +0.093 A 
ATOM     29  N   UNL     1      -0.011   0.966   0.007  0.00  0.00    -0.360 N 
ATOM     30  H   UNL     1       0.002  -0.004   0.002  0.00  0.00    +0.165 HD
ATOM     31  C   UNL     1      -1.153   1.738   0.016  0.00  0.00    +0.047 A 
ATOM     32  C   UNL     1      -0.751   3.085   0.026  0.00  0.00    +0.008 A 
ATOM     33  C   UNL     1      -1.706   4.098   0.040  0.00  0.00    +0.010 A 
ATOM     34  C   UNL     1      -3.045   3.774   0.051  0.00  0.00    +0.001 A 
ATOM     35  C   UNL     1      -3.443   2.445   0.048  0.00  0.00    +0.002 A 
ATOM     36  C   UNL     1      -2.510   1.432   0.033  0.00  0.00    +0.026 A 
ENDBRANCH  26  27
ENDBRANCH  23  25
ENDBRANCH  20  21
ENDBRANCH  19  20
ENDBRANCH  11  19
TORSDOF 6
