REMARK  Name = ZINC09546550
REMARK  2 active torsions:
REMARK  status: ('A' for Active; 'I' for Inactive)
REMARK    1  A    between atoms: C_4  and  C_7
REMARK    2  A    between atoms: C_13  and  C_19
REMARK                            x       y       z     vdW  Elec       q    Type
REMARK                         _______ _______ _______ _____ _____    ______ ____
ROOT
ATOM      1  C   UNL     1       3.691  -0.689  -0.051  0.00  0.00    +0.081 C 
ATOM      2  N   UNL     1       4.885  -0.163  -0.148  0.00  0.00    -0.151 NA
ATOM      3  N   UNL     1       5.893  -1.124  -0.070  0.00  0.00    -0.138 NA
ATOM      4  C   UNL     1       5.420  -2.297   0.175  0.00  0.00    +0.133 C 
ATOM      5  C   UNL     1       3.905  -2.177   0.053  0.00  0.00    +0.113 C 
ATOM      6  C   UNL     1       3.341  -2.759   1.353  0.00  0.00    +0.044 C 
ATOM      7  C   UNL     1       3.801  -4.214   1.465  0.00  0.00    +0.105 C 
ATOM      8  C   UNL     1       5.265  -4.382   1.198  0.00  0.00    +0.219 C 
ATOM      9  O   UNL     1       5.807  -5.388   1.601  0.00  0.00    -0.275 OA
ATOM     10  N   UNL     1       6.015  -3.482   0.526  0.00  0.00    -0.272 N 
ATOM     11  H   UNL     1       6.943  -3.663   0.310  0.00  0.00    +0.156 HD
ENDROOT
BRANCH   6  12
ATOM     12  C   UNL     1       1.836  -2.701   1.324  0.00  0.00    -0.042 A 
ATOM     13  C   UNL     1       1.133  -3.447   0.396  0.00  0.00    +0.004 A 
ATOM     14  C   UNL     1      -0.248  -3.395   0.370  0.00  0.00    +0.001 A 
ATOM     15  C   UNL     1      -0.927  -2.596   1.271  0.00  0.00    +0.015 A 
ATOM     16  C   UNL     1      -0.225  -1.850   2.199  0.00  0.00    +0.018 A 
ATOM     17  C   UNL     1       1.157  -1.907   2.229  0.00  0.00    +0.019 A 
ATOM     18 BR   UNL     1      -1.153  -0.757   3.432  0.00  0.00    -0.050 Br
ENDBRANCH   6  12
BRANCH   1  22
ATOM     19  C   UNL     1      -0.016   1.372  -0.015  0.00  0.00    +0.000 A 
ATOM     20  C   UNL     1       1.097   1.949   0.570  0.00  0.00    +0.001 A 
ATOM     21  C   UNL     1       2.306   1.285   0.562  0.00  0.00    +0.010 A 
ATOM     22  C   UNL     1       2.405   0.026  -0.038  0.00  0.00    -0.001 A 
ATOM     23  C   UNL     1       1.275  -0.550  -0.627  0.00  0.00    +0.010 A 
ATOM     24  C   UNL     1       0.073   0.126  -0.611  0.00  0.00    +0.001 A 
ENDBRANCH   1  22
TORSDOF 2
