REMARK  Name = ZINC13351248
REMARK  15 active torsions:
REMARK  status: ('A' for Active; 'I' for Inactive)
REMARK    1  A    between atoms: C_1  and  C_2
REMARK    2  A    between atoms: C_2  and  O_3
REMARK    3  A    between atoms: O_3  and  C_4
REMARK    4  A    between atoms: C_6  and  C_19
REMARK    5  A    between atoms: C_9  and  O_10
REMARK    6  A    between atoms: O_10  and  C_11
REMARK    7  A    between atoms: C_11  and  C_13
REMARK    8  A    between atoms: C_11  and  C_14
REMARK    9  A    between atoms: N_16  and  C_17
REMARK   10  A    between atoms: N_16  and  C_18
REMARK   11  A    between atoms: C_20  and  C_21
REMARK   12  A    between atoms: C_21  and  C_23
REMARK   13  A    between atoms: C_26  and  O_29
REMARK   14  A    between atoms: O_29  and  C_30
REMARK   15  A    between atoms: C_30  and  C_31
REMARK                            x       y       z     vdW  Elec       q    Type
REMARK                         _______ _______ _______ _____ _____    ______ ____
ROOT
ATOM      1  C   UNL     1       0.477   1.806   2.603  0.00  0.00    +0.162 A 
ATOM      2  C   UNL     1       1.640   1.069   2.704  0.00  0.00    +0.057 A 
ATOM      3  C   UNL     1       1.968   0.448   3.915  0.00  0.00    -0.021 A 
ATOM      4  C   UNL     1       1.109   0.569   5.014  0.00  0.00    +0.012 A 
ATOM      5  C   UNL     1      -0.052   1.301   4.902  0.00  0.00    +0.050 A 
ATOM      6  C   UNL     1      -0.374   1.921   3.702  0.00  0.00    +0.163 A 
ENDROOT
BRANCH   3   7
ATOM      7  C   UNL     1       3.207  -0.333   4.030  0.00  0.00    +0.012 C 
ATOM      8  C   UNL     1       3.519  -0.937   5.199  0.00  0.00    +0.052 C 
BRANCH   8   9
ATOM      9  C   UNL     1       4.715  -1.691   5.311  0.00  0.00    +0.186 C 
ATOM     10  O   UNL     1       5.461  -1.794   4.354  0.00  0.00    -0.287 OA
BRANCH   9  11
ATOM     11  C   UNL     1       5.056  -2.350   6.588  0.00  0.00    +0.022 A 
ATOM     12  C   UNL     1       4.204  -2.228   7.689  0.00  0.00    +0.015 A 
ATOM     13  C   UNL     1       4.522  -2.848   8.876  0.00  0.00    +0.046 A 
ATOM     14  C   UNL     1       5.695  -3.587   8.984  0.00  0.00    +0.121 A 
ATOM     15  C   UNL     1       6.548  -3.707   7.893  0.00  0.00    +0.046 A 
ATOM     16  C   UNL     1       6.234  -3.094   6.700  0.00  0.00    +0.015 A 
BRANCH  14  17
ATOM     17  O   UNL     1       6.008  -4.193  10.157  0.00  0.00    -0.481 OA
BRANCH  17  18
ATOM     18  C   UNL     1       5.087  -4.029  11.238  0.00  0.00    +0.353 C 
BRANCH  18  19
ATOM     19  C   UNL     1       5.598  -4.767  12.449  0.00  0.00    +0.393 C 
ATOM     20  O   UNL     1       6.643  -5.370  12.392  0.00  0.00    -0.243 OA
ATOM     21  O   UNL     1       4.891  -4.753  13.590  0.00  0.00    -0.243 OA
ENDBRANCH  18  19
ENDBRANCH  17  18
ENDBRANCH  14  17
ENDBRANCH   9  11
ENDBRANCH   8   9
ENDBRANCH   3   7
BRANCH   1  22
ATOM     22  O   UNL     1       0.158   2.416   1.429  0.00  0.00    -0.489 OA
BRANCH  22  24
ATOM     23  C   UNL     1       0.551   3.006  -0.881  0.00  0.00    +0.048 C 
ATOM     24  C   UNL     1       1.075   2.256   0.345  0.00  0.00    +0.226 C 
ENDBRANCH  22  24
ENDBRANCH   1  22
BRANCH   6  25
ATOM     25  O   UNL     1      -1.520   2.642   3.598  0.00  0.00    -0.476 OA
BRANCH  25  26
ATOM     26  C   UNL     1      -2.283   2.823   4.793  0.00  0.00    +0.256 C 
ATOM     27  C   UNL     1      -3.154   1.588   5.033  0.00  0.00    +0.062 C 
BRANCH  26  28
ATOM     28  C   UNL     1      -3.163   4.037   4.648  0.00  0.00    +0.256 C 
ATOM     29  O   UNL     1      -3.327   4.541   3.556  0.00  0.00    -0.272 OA
ATOM     30  N   UNL     1      -3.769   4.564   5.730  0.00  0.00    -0.305 N 
ATOM     31  C   UNL     1      -4.710   5.676   5.575  0.00  0.00    +0.131 C 
ATOM     32  C   UNL     1      -3.486   4.024   7.063  0.00  0.00    +0.131 C 
ENDBRANCH  26  28
ENDBRANCH  25  26
ENDBRANCH   6  25
TORSDOF 11
