REMARK  Name = ZINC54253557
REMARK  5 active torsions:
REMARK  status: ('A' for Active; 'I' for Inactive)
REMARK    1  A    between atoms: C_1  and  C_2
REMARK    2  A    between atoms: C_3  and  C_23
REMARK    3  A    between atoms: N_13  and  C_16
REMARK    4  A    between atoms: C_16  and  C_17
REMARK    5  A    between atoms: C_23  and  C_24
REMARK                            x       y       z     vdW  Elec       q    Type
REMARK                         _______ _______ _______ _____ _____    ______ ____
ROOT
ATOM      1  C   UNL     1      -2.329  -2.983  -0.040  0.00  0.00    +0.066 C 
ATOM      2  C   UNL     1      -1.090  -2.125  -0.022  0.00  0.00    +0.050 A 
ATOM      3  C   UNL     1      -1.204  -0.765   0.003  0.00  0.00    +0.042 A 
ATOM      4  C   UNL     1      -0.034   0.014   0.020  0.00  0.00    +0.256 A 
ATOM      5  O   UNL     1      -0.099   1.232   0.043  0.00  0.00    -0.267 OA
ATOM      6  N   UNL     1       1.163  -0.611   0.010  0.00  0.00    -0.295 N 
ATOM      7  H   UNL     1       1.983  -0.093   0.021  0.00  0.00    +0.172 HD
ATOM      8  C   UNL     1       1.215  -1.970  -0.015  0.00  0.00    +0.199 A 
ATOM      9  N   UNL     1       0.113  -2.694  -0.026  0.00  0.00    -0.221 NA
ATOM     10  N   UNL     1       2.432  -2.597  -0.025  0.00  0.00    -0.299 N 
ATOM     11  C   UNL     1       2.527  -4.061   0.070  0.00  0.00    +0.123 C 
ATOM     12  C   UNL     1       3.419  -4.566  -1.070  0.00  0.00    +0.103 C 
ATOM     13  N   UNL     1       4.704  -3.855  -1.033  0.00  0.00    -0.295 NA
ATOM     14  C   UNL     1       4.524  -2.416  -1.262  0.00  0.00    +0.103 C 
ATOM     15  C   UNL     1       3.678  -1.824  -0.137  0.00  0.00    +0.123 C 
ENDROOT
BRANCH  13  16
ATOM     16  C   UNL     1       5.651  -4.428  -1.999  0.00  0.00    +0.119 C 
BRANCH  16  17
ATOM     17  C   UNL     1       7.021  -3.847  -1.766  0.00  0.00    -0.033 A 
ATOM     18  C   UNL     1       7.402  -2.690  -2.421  0.00  0.00    +0.005 A 
ATOM     19  C   UNL     1       8.659  -2.157  -2.207  0.00  0.00    +0.000 A 
ATOM     20  C   UNL     1       9.535  -2.779  -1.338  0.00  0.00    +0.000 A 
ATOM     21  C   UNL     1       9.154  -3.935  -0.682  0.00  0.00    +0.000 A 
ATOM     22  C   UNL     1       7.896  -4.466  -0.893  0.00  0.00    +0.005 A 
ENDBRANCH  16  17
ENDBRANCH  13  16
BRANCH   3  23
ATOM     23  C   UNL     1      -2.561  -0.110   0.012  0.00  0.00    +0.077 C 
BRANCH  23  24
ATOM     24  C   UNL     1      -2.963   0.193   1.433  0.00  0.00    -0.043 A 
ATOM     25  C   UNL     1      -3.661  -0.746   2.169  0.00  0.00    +0.005 A 
ATOM     26  C   UNL     1      -4.029  -0.469   3.472  0.00  0.00    +0.015 A 
ATOM     27  C   UNL     1      -3.699   0.749   4.040  0.00  0.00    +0.018 A 
ATOM     28  C   UNL     1      -3.001   1.688   3.302  0.00  0.00    +0.015 A 
ATOM     29  C   UNL     1      -2.628   1.408   2.001  0.00  0.00    +0.005 A 
ATOM     30 BR   UNL     1      -4.203   1.129   5.822  0.00  0.00    -0.050 Br
ENDBRANCH  23  24
ENDBRANCH   3  23
TORSDOF 4
