REMARK  Name = ZINC01664118
REMARK  4 active torsions:
REMARK  status: ('A' for Active; 'I' for Inactive)
REMARK    1  A    between atoms: C_1  and  N_52
REMARK    2  A    between atoms: C_2  and  N_52
REMARK    3  A    between atoms: C_3  and  C_16
REMARK    4  A    between atoms: C_3  and  N_52
REMARK                            x       y       z     vdW  Elec       q    Type
REMARK                         _______ _______ _______ _____ _____    ______ ____
ROOT
ATOM      1  C   UNL     1       0.213   5.950   1.202  0.00  0.00    -0.002 C 
ATOM      2  C   UNL     1      -0.495   5.249   2.336  0.00  0.00    -0.045 A 
ATOM      3  C   UNL     1      -0.531   3.928   2.729  0.00  0.00    +0.003 A 
ATOM      4  C   UNL     1      -1.279   3.553   3.831  0.00  0.00    +0.000 A 
ATOM      5  C   UNL     1      -1.992   4.503   4.540  0.00  0.00    +0.001 A 
ATOM      6  C   UNL     1      -1.962   5.827   4.154  0.00  0.00    +0.009 A 
ATOM      7  C   UNL     1      -1.209   6.212   3.043  0.00  0.00    -0.015 A 
ATOM      8  C   UNL     1      -1.001   7.541   2.417  0.00  0.00    -0.015 A 
ATOM      9  C   UNL     1      -0.157   7.408   1.318  0.00  0.00    -0.045 A 
ATOM     10  C   UNL     1       0.187   8.513   0.567  0.00  0.00    +0.003 A 
ATOM     11  C   UNL     1      -0.307   9.760   0.905  0.00  0.00    +0.000 A 
ATOM     12  C   UNL     1      -1.147   9.902   1.995  0.00  0.00    +0.001 A 
ATOM     13  C   UNL     1      -1.496   8.803   2.751  0.00  0.00    +0.009 A 
ENDROOT
BRANCH   1  14
ATOM     14  C   UNL     1      -0.261   5.391  -0.141  0.00  0.00    +0.048 C 
ATOM     15  C   UNL     1       0.103   3.931  -0.254  0.00  0.00    -0.033 A 
ATOM     16  C   UNL     1       1.316   3.276  -0.241  0.00  0.00    +0.005 A 
ATOM     17  C   UNL     1       1.361   1.899  -0.366  0.00  0.00    +0.000 A 
ATOM     18  C   UNL     1       0.190   1.176  -0.504  0.00  0.00    +0.001 A 
ATOM     19  C   UNL     1      -1.028   1.824  -0.524  0.00  0.00    +0.009 A 
ATOM     20  C   UNL     1      -1.081   3.212  -0.392  0.00  0.00    -0.014 A 
ATOM     21  C   UNL     1      -2.232   4.149  -0.376  0.00  0.00    -0.014 A 
ATOM     22  C   UNL     1      -1.767   5.453  -0.227  0.00  0.00    -0.033 A 
ATOM     23  C   UNL     1      -2.654   6.507  -0.184  0.00  0.00    +0.005 A 
ATOM     24  C   UNL     1      -4.013   6.274  -0.288  0.00  0.00    +0.000 A 
ATOM     25  C   UNL     1      -4.486   4.982  -0.437  0.00  0.00    +0.001 A 
ATOM     26  C   UNL     1      -3.606   3.921  -0.481  0.00  0.00    +0.009 A 
ENDBRANCH   1  14
BRANCH   1  29
ATOM     27  C   UNL     1       2.375   6.478   0.248  0.00  0.00    -0.095 C 
ATOM     28  C   UNL     1       2.133   6.249   2.646  0.00  0.00    -0.095 C 
ATOM     29  N   UNL     1       1.673   5.757   1.331  0.00  0.00    +0.386 N 
ATOM     30  H   UNL     1       1.885   4.755   1.256  0.00  0.00    -0.081 HD
ENDBRANCH   1  29
TORSDOF 2
