REMARK  Name = ZINC59104278
REMARK  9 active torsions:
REMARK  status: ('A' for Active; 'I' for Inactive)
REMARK    1  A    between atoms: C_1  and  C_2
REMARK    2  A    between atoms: C_5  and  C_10
REMARK    3  A    between atoms: C_6  and  O_8
REMARK    4  A    between atoms: O_8  and  C_9
REMARK    5  A    between atoms: N_12  and  N_13
REMARK    6  A    between atoms: C_14  and  C_15
REMARK    7  A    between atoms: C_16  and  C_28
REMARK    8  A    between atoms: N_17  and  C_22
REMARK    9  A    between atoms: C_18  and  C_21
REMARK                            x       y       z     vdW  Elec       q    Type
REMARK                         _______ _______ _______ _____ _____    ______ ____
ROOT
ATOM      1  N   UNL     1       0.081  -6.316  -1.222  0.00  0.00    -0.187 NA
ATOM      2  C   UNL     1       0.084  -6.955  -2.352  0.00  0.00    +0.141 C 
ENDROOT
BRANCH   2   3
ATOM      3  C   UNL     1       0.103  -8.429  -2.366  0.00  0.00    +0.030 A 
ATOM      4  C   UNL     1       0.114  -9.238  -3.466  0.00  0.00    +0.031 A 
ATOM      5  N   UNL     1       0.131 -10.531  -3.044  0.00  0.00    -0.316 N 
ATOM      6  C   UNL     1       0.132 -10.577  -1.678  0.00  0.00    +0.036 A 
ATOM      7  C   UNL     1       0.121  -9.319  -1.201  0.00  0.00    +0.048 A 
ATOM      8 BR   UNL     1       0.124  -8.800   0.618  0.00  0.00    -0.048 Br
ATOM      9  C   UNL     1       0.149 -11.832  -0.844  0.00  0.00    +0.065 C 
ATOM     10  C   UNL     1       0.107  -8.777  -4.901  0.00  0.00    +0.064 C 
BRANCH   5  11
ATOM     11  C   UNL     1       0.146 -11.651  -3.886  0.00  0.00    +0.047 A 
ATOM     12  C   UNL     1      -0.937 -11.914  -4.714  0.00  0.00    +0.026 A 
ATOM     13  C   UNL     1      -0.919 -13.018  -5.543  0.00  0.00    +0.002 A 
ATOM     14  C   UNL     1       0.176 -13.863  -5.548  0.00  0.00    +0.000 A 
ATOM     15  C   UNL     1       1.256 -13.604  -4.725  0.00  0.00    +0.002 A 
ATOM     16  C   UNL     1       1.247 -12.498  -3.898  0.00  0.00    +0.026 A 
ENDBRANCH   5  11
ENDBRANCH   2   3
BRANCH   1  19
ATOM     17  C   UNL     1       0.059  -4.252  -0.036  0.00  0.00    +0.267 C 
ATOM     18  O   UNL     1       0.072  -4.870   1.012  0.00  0.00    -0.268 OA
ATOM     19  N   UNL     1       0.062  -4.915  -1.209  0.00  0.00    -0.203 N 
ATOM     20  H   UNL     1       0.051  -4.423  -2.045  0.00  0.00    +0.178 HD
BRANCH  17  25
ATOM     21  C   UNL     1      -0.018   1.503   0.010  0.00  0.00    +0.044 C 
ATOM     22  C   UNL     1       0.002  -0.004   0.002  0.00  0.00    -0.047 A 
ATOM     23  C   UNL     1       0.006  -0.686  -1.204  0.00  0.00    +0.004 A 
ATOM     24  C   UNL     1       0.024  -2.064  -1.224  0.00  0.00    +0.017 A 
ATOM     25  C   UNL     1       0.040  -2.777  -0.022  0.00  0.00    +0.080 A 
ATOM     26  C   UNL     1       0.036  -2.083   1.196  0.00  0.00    +0.132 A 
ATOM     27  C   UNL     1       0.023  -0.697   1.196  0.00  0.00    +0.049 A 
BRANCH  26  28
ATOM     28  O   UNL     1       0.050  -2.765   2.368  0.00  0.00    -0.494 OA
ATOM     29  C   UNL     1       0.045  -1.991   3.569  0.00  0.00    +0.277 C 
ENDBRANCH  26  28
ENDBRANCH  17  25
ENDBRANCH   1  19
TORSDOF 5
