REMARK  Name = ZINC34749961
REMARK  9 active torsions:
REMARK  status: ('A' for Active; 'I' for Inactive)
REMARK    1  A    between atoms: C_1  and  C_2
REMARK    2  A    between atoms: C_2  and  C_3
REMARK    3  A    between atoms: C_3  and  S_4
REMARK    4  A    between atoms: S_4  and  C_5
REMARK    5  A    between atoms: C_16  and  C_18
REMARK    6  A    between atoms: C_16  and  C_19
REMARK    7  A    between atoms: N_23  and  C_26
REMARK    8  A    between atoms: C_26  and  C_27
REMARK    9  A    between atoms: C_27  and  C_29
REMARK                            x       y       z     vdW  Elec       q    Type
REMARK                         _______ _______ _______ _____ _____    ______ ____
ROOT
ATOM      1  C   UNL     1       1.114  -2.794  -2.633  0.00  0.00    +0.191 A 
ATOM      2  N   UNL     1       1.406  -4.047  -2.963  0.00  0.00    -0.206 NA
ATOM      3  C   UNL     1       2.190  -4.339  -3.987  0.00  0.00    +0.134 A 
ATOM      4  C   UNL     1       2.743  -3.283  -4.764  0.00  0.00    +0.051 A 
ATOM      5  C   UNL     1       3.627  -3.366  -5.926  0.00  0.00    -0.020 A 
ATOM      6  C   UNL     1       4.013  -2.201  -6.489  0.00  0.00    +0.021 A 
ATOM      7  S   UNL     1       3.235  -0.940  -5.520  0.00  0.00    -0.071 S 
ATOM      8  C   UNL     1       2.391  -1.980  -4.357  0.00  0.00    +0.115 A 
ATOM      9  N   UNL     1       1.597  -1.770  -3.325  0.00  0.00    -0.215 NA
ATOM     10  C   UNL     1       4.911  -2.046  -7.677  0.00  0.00    +0.203 C 
ATOM     11  O   UNL     1       5.544  -3.312  -7.921  0.00  0.00    -0.368 OA
ATOM     12  C   UNL     1       4.631  -4.413  -7.932  0.00  0.00    +0.068 C 
ATOM     13  C   UNL     1       4.118  -4.686  -6.515  0.00  0.00    +0.071 C 
ATOM     14  C   UNL     1       3.448  -4.081  -8.845  0.00  0.00    +0.041 C 
ATOM     15  C   UNL     1       5.343  -5.658  -8.463  0.00  0.00    +0.041 C 
ATOM     16  N   UNL     1       2.469  -5.657  -4.298  0.00  0.00    -0.318 N 
ATOM     17  C   UNL     1       3.689  -6.310  -3.799  0.00  0.00    +0.088 C 
ATOM     18  C   UNL     1       3.297  -7.642  -3.150  0.00  0.00    -0.059 C 
ATOM     19  N   UNL     1       2.529  -8.445  -4.110  0.00  0.00    +0.384 N 
ATOM     20  C   UNL     1       1.263  -7.771  -4.427  0.00  0.00    -0.059 C 
ATOM     21  C   UNL     1       1.552  -6.448  -5.134  0.00  0.00    +0.088 C 
ATOM     22  H   UNL     1       3.067  -8.562  -4.956  0.00  0.00    -0.081 HD
ENDROOT
BRANCH   1  23
ATOM     23  S   UNL     1       0.061  -2.486  -1.254  0.00  0.00    -0.086 S 
BRANCH  23  24
ATOM     24  C   UNL     1      -0.059  -0.677  -1.189  0.00  0.00    +0.077 C 
BRANCH  24  26
ATOM     25  C   UNL     1      -1.058   1.258   0.035  0.00  0.00    +0.004 C 
ATOM     26  C   UNL     1      -0.957  -0.267  -0.020  0.00  0.00    +0.008 C 
ENDBRANCH  24  26
ENDBRANCH  23  24
ENDBRANCH   1  23
BRANCH  19  27
ATOM     27  C   UNL     1       2.248  -9.764  -3.528  0.00  0.00    -0.048 C 
BRANCH  27  28
ATOM     28  C   UNL     1       3.539 -10.519  -3.347  0.00  0.00    -0.096 C 
ATOM     29  C   UNL     1       4.145 -10.511  -2.186  0.00  0.00    +0.005 C 
ATOM     30  C   UNL     1       4.133 -11.284  -4.502  0.00  0.00    +0.036 C 
ENDBRANCH  27  28
ENDBRANCH  19  27
TORSDOF 5
