REMARK  Name = ZINC63699837
REMARK  13 active torsions:
REMARK  status: ('A' for Active; 'I' for Inactive)
REMARK    1  A    between atoms: C_1  and  C_2
REMARK    2  A    between atoms: C_2  and  O_3
REMARK    3  A    between atoms: O_3  and  C_4
REMARK    4  A    between atoms: C_4  and  C_6
REMARK    5  A    between atoms: C_8  and  C_37
REMARK    6  A    between atoms: C_9  and  C_32
REMARK    7  A    between atoms: C_10  and  N_13
REMARK    8  A    between atoms: C_14  and  C_16
REMARK    9  A    between atoms: C_16  and  N_17
REMARK   10  A    between atoms: C_20  and  C_23
REMARK   11  A    between atoms: C_32  and  O_34
REMARK   12  A    between atoms: O_34  and  C_35
REMARK   13  A    between atoms: C_35  and  C_36
REMARK                            x       y       z     vdW  Elec       q    Type
REMARK                         _______ _______ _______ _____ _____    ______ ____
ROOT
ATOM      1  N   UNL     1      -0.402  -5.214  -4.340  0.00  0.00    -0.301 N 
ATOM      2  C   UNL     1      -1.590  -4.651  -4.638  0.00  0.00    +0.198 C 
ATOM      3  O   UNL     1      -1.662  -3.458  -4.840  0.00  0.00    -0.278 OA
ATOM      4  H   UNL     1      -0.344  -6.169  -4.178  0.00  0.00    +0.150 HD
ENDROOT
BRANCH   1   8
ATOM      5  C   UNL     1       1.710  -2.326  -2.673  0.00  0.00    +0.183 C 
ATOM      6  C   UNL     1       2.056  -3.750  -2.275  0.00  0.00    -0.037 C 
ATOM      7  C   UNL     1       1.624  -4.729  -3.030  0.00  0.00    +0.067 C 
ATOM      8  C   UNL     1       0.802  -4.383  -4.259  0.00  0.00    +0.169 C 
ATOM      9  S   UNL     1       0.375  -2.621  -3.912  0.00  0.00    -0.114 S 
ATOM     10  C   UNL     1       2.877  -4.030  -1.043  0.00  0.00    +0.041 C 
BRANCH   5  11
ATOM     11  C   UNL     1       1.193  -1.543  -1.494  0.00  0.00    +0.324 C 
ATOM     12  O   UNL     1       0.655  -2.117  -0.577  0.00  0.00    -0.249 OA
BRANCH  11  13
ATOM     13  O   UNL     1       1.330  -0.208  -1.462  0.00  0.00    -0.464 OA
BRANCH  13  15
ATOM     14  C   UNL     1       1.064   1.973  -0.456  0.00  0.00    +0.048 C 
ATOM     15  C   UNL     1       0.817   0.469  -0.314  0.00  0.00    +0.229 C 
ENDBRANCH  13  15
ENDBRANCH  11  13
ENDBRANCH   5  11
BRANCH   7  16
ATOM     16  C   UNL     1       1.927  -6.128  -2.696  0.00  0.00    +0.338 C 
ATOM     17  O   UNL     1       2.479  -6.396  -1.647  0.00  0.00    -0.245 OA
BRANCH  16  18
ATOM     18  O   UNL     1       1.592  -7.113  -3.552  0.00  0.00    -0.462 OA
BRANCH  18  19
ATOM     19  C   UNL     1       1.916  -8.449  -3.163  0.00  0.00    +0.229 C 
ATOM     20  C   UNL     1       1.463  -9.423  -4.253  0.00  0.00    +0.048 C 
ENDBRANCH  18  19
ENDBRANCH  16  18
ENDBRANCH   7  16
ENDBRANCH   1   8
BRANCH   2  21
ATOM     21  C   UNL     1      -2.828  -5.506  -4.721  0.00  0.00    +0.019 C 
BRANCH  21  22
ATOM     22  N   UNL     1      -3.983  -4.662  -5.058  0.00  0.00    +0.385 N 
ATOM     23  C   UNL     1      -4.229  -3.712  -3.967  0.00  0.00    -0.078 C 
ATOM     24  C   UNL     1      -5.379  -2.778  -4.348  0.00  0.00    -0.011 C 
ATOM     25  C   UNL     1      -6.642  -3.608  -4.598  0.00  0.00    +0.028 C 
ATOM     26  C   UNL     1      -6.351  -4.645  -5.687  0.00  0.00    -0.011 C 
ATOM     27  C   UNL     1      -5.165  -5.510  -5.256  0.00  0.00    -0.078 C 
ATOM     28  H   UNL     1      -3.790  -4.153  -5.908  0.00  0.00    -0.081 HD
BRANCH  25  29
ATOM     29  C   UNL     1      -7.776  -2.689  -5.056  0.00  0.00    +0.177 C 
ATOM     30  N   UNL     1      -8.107  -1.729  -3.996  0.00  0.00    -0.363 N 
ATOM     31  C   UNL     1      -9.350  -1.927  -3.664  0.00  0.00    +0.060 A 
ATOM     32  C   UNL     1     -10.235  -1.289  -2.680  0.00  0.00    +0.027 A 
ATOM     33  C   UNL     1     -11.508  -1.714  -2.556  0.00  0.00    +0.002 A 
ATOM     34  C   UNL     1     -12.038  -2.758  -3.336  0.00  0.00    +0.002 A 
ATOM     35  C   UNL     1     -11.313  -3.410  -4.266  0.00  0.00    +0.027 A 
ATOM     36  C   UNL     1      -9.911  -3.031  -4.490  0.00  0.00    +0.060 A 
ATOM     37  N   UNL     1      -8.993  -3.473  -5.300  0.00  0.00    -0.363 N 
ATOM     38  H   UNL     1      -7.508  -1.069  -3.612  0.00  0.00    +0.162 HD
ATOM     39  H   UNL     1      -9.094  -4.189  -5.947  0.00  0.00    +0.162 HD
ENDBRANCH  25  29
ENDBRANCH  21  22
ENDBRANCH   2  21
TORSDOF 10
