REMARK  Name = ZINC32669868
REMARK  7 active torsions:
REMARK  status: ('A' for Active; 'I' for Inactive)
REMARK    1  A    between atoms: C_1  and  O_2
REMARK    2  A    between atoms: O_2  and  C_3
REMARK    3  A    between atoms: C_8  and  C_9
REMARK    4  A    between atoms: C_12  and  S_15
REMARK    5  A    between atoms: N_13  and  N_14
REMARK    6  A    between atoms: S_15  and  C_16
REMARK    7  A    between atoms: C_16  and  C_17
REMARK                            x       y       z     vdW  Elec       q    Type
REMARK                         _______ _______ _______ _____ _____    ______ ____
ROOT
ATOM      1  C   UNL     1       1.258  -2.159  -0.021  0.00  0.00    +0.185 A 
ATOM      2  N   UNL     1       0.219  -2.962  -0.015  0.00  0.00    -0.127 NA
ATOM      3  N   UNL     1       0.610  -4.186  -0.026  0.00  0.00    -0.121 NA
ATOM      4  C   UNL     1       1.923  -4.241  -0.039  0.00  0.00    +0.209 A 
ATOM      5  N   UNL     1       2.382  -2.954  -0.042  0.00  0.00    -0.224 N 
ENDROOT
BRANCH   1  11
ATOM      6  C   UNL     1       0.002  -0.004   0.002  0.00  0.00    +0.131 A 
ATOM      7  C   UNL     1      -0.017   1.381   0.010  0.00  0.00    +0.046 A 
ATOM      8  C   UNL     1       1.170   2.090   0.002  0.00  0.00    +0.004 A 
ATOM      9  C   UNL     1       2.383   1.424  -0.013  0.00  0.00    +0.001 A 
ATOM     10  C   UNL     1       2.418   0.045  -0.021  0.00  0.00    +0.015 A 
ATOM     11  C   UNL     1       1.227  -0.682  -0.013  0.00  0.00    +0.062 A 
BRANCH   6  13
ATOM     12  C   UNL     1      -2.374   0.057   0.026  0.00  0.00    +0.277 C 
ATOM     13  O   UNL     1      -1.163  -0.702   0.010  0.00  0.00    -0.494 OA
ENDBRANCH   6  13
ENDBRANCH   1  11
BRANCH   5  14
ATOM     14  N   UNL     1       3.684  -2.541  -0.058  0.00  0.00    -0.295 N 
ATOM     15  H   UNL     1       4.495  -3.284  -0.074  0.00  0.00    +0.163 HD
ATOM     16  H   UNL     1       3.921  -1.467  -0.056  0.00  0.00    +0.163 HD
ENDBRANCH   5  14
BRANCH   4  17
ATOM     17  S   UNL     1       2.908  -5.701  -0.056  0.00  0.00    -0.078 S 
BRANCH  17  18
ATOM     18  C   UNL     1       1.606  -6.959  -0.050  0.00  0.00    +0.133 C 
BRANCH  18  19
ATOM     19  C   UNL     1       2.232  -8.330  -0.063  0.00  0.00    +0.059 A 
ATOM     20  C   UNL     1       2.253  -9.093   1.071  0.00  0.00    +0.095 A 
ATOM     21  C   UNL     1       2.837 -10.362   1.042  0.00  0.00    +0.259 A 
ATOM     22  O   UNL     1       2.859 -11.048   2.051  0.00  0.00    -0.267 OA
ATOM     23  N   UNL     1       3.384 -10.833  -0.120  0.00  0.00    -0.255 N 
ATOM     24  C   UNL     1       3.995 -12.082  -0.277  0.00  0.00    +0.066 A 
ATOM     25  C   UNL     1       4.155 -13.064   0.717  0.00  0.00    +0.027 A 
ATOM     26  C   UNL     1       4.777 -14.256   0.433  0.00  0.00    +0.002 A 
ATOM     27  C   UNL     1       5.264 -14.529  -0.834  0.00  0.00    +0.001 A 
ATOM     28  C   UNL     1       5.120 -13.581  -1.831  0.00  0.00    +0.017 A 
ATOM     29  C   UNL     1       4.497 -12.387  -1.546  0.00  0.00    +0.040 A 
ATOM     30  S   UNL     1       4.113 -10.938  -2.496  0.00  0.00    -0.049 S 
ATOM     31  C   UNL     1       3.320 -10.006  -1.204  0.00  0.00    +0.181 A 
ATOM     32  N   UNL     1       2.767  -8.817  -1.180  0.00  0.00    -0.227 NA
ENDBRANCH  18  19
ENDBRANCH  17  18
ENDBRANCH   4  17
TORSDOF 6
