REMARK  Name = ZINC66924909
REMARK  8 active torsions:
REMARK  status: ('A' for Active; 'I' for Inactive)
REMARK    1  A    between atoms: C_1  and  C_2
REMARK    2  A    between atoms: N_6  and  C_7
REMARK    3  A    between atoms: C_7  and  C_8
REMARK    4  A    between atoms: C_8  and  C_9
REMARK    5  A    between atoms: C_9  and  N_10
REMARK    6  A    between atoms: N_13  and  N_14
REMARK    7  A    between atoms: C_15  and  C_17
REMARK    8  A    between atoms: C_17  and  C_18
REMARK                            x       y       z     vdW  Elec       q    Type
REMARK                         _______ _______ _______ _____ _____    ______ ____
ROOT
ATOM      1  N   UNL     1      -2.774   0.610   4.853  0.00  0.00    -0.298 N 
ATOM      2  C   UNL     1      -3.013   1.028   6.111  0.00  0.00    +0.316 C 
ATOM      3  O   UNL     1      -2.087   1.204   6.880  0.00  0.00    -0.251 OA
ATOM      4  N   UNL     1      -4.278   1.253   6.518  0.00  0.00    -0.218 N 
ATOM      5  H   UNL     1      -3.512   0.470   4.239  0.00  0.00    +0.150 HD
ATOM      6  H   UNL     1      -4.450   1.554   7.423  0.00  0.00    +0.174 HD
ENDROOT
BRANCH   4   7
ATOM      7  N   UNL     1      -5.345   1.051   5.632  0.00  0.00    -0.233 N 
ATOM      8  C   UNL     1      -6.610   1.275   6.038  0.00  0.00    +0.234 C 
ATOM      9  O   UNL     1      -6.825   1.652   7.171  0.00  0.00    -0.274 OA
ATOM     10  H   UNL     1      -5.173   0.749   4.726  0.00  0.00    +0.173 HD
BRANCH   8  11
ATOM     11  C   UNL     1      -7.757   1.058   5.086  0.00  0.00    +0.135 C 
BRANCH  11  12
ATOM     12  C   UNL     1      -9.055   1.377   5.782  0.00  0.00    -0.003 A 
ATOM     13  C   UNL     1      -9.786   0.367   6.380  0.00  0.00    +0.007 A 
ATOM     14  C   UNL     1     -10.976   0.659   7.018  0.00  0.00    +0.000 A 
ATOM     15  C   UNL     1     -11.438   1.962   7.059  0.00  0.00    +0.003 A 
ATOM     16  C   UNL     1     -10.710   2.973   6.462  0.00  0.00    +0.038 A 
ATOM     17  C   UNL     1      -9.514   2.682   5.827  0.00  0.00    +0.127 A 
ATOM     18  F   UNL     1      -8.799   3.671   5.247  0.00  0.00    -0.205 F 
ENDBRANCH  11  12
ENDBRANCH   8  11
ENDBRANCH   4   7
BRANCH   1  19
ATOM     19  C   UNL     1      -1.399   0.366   4.411  0.00  0.00    +0.107 C 
BRANCH  19  20
ATOM     20  C   UNL     1      -1.406  -0.098   2.953  0.00  0.00    +0.040 C 
BRANCH  20  21
ATOM     21  C   UNL     1       0.030  -0.353   2.491  0.00  0.00    +0.124 C 
BRANCH  21  27
ATOM     22  C   UNL     1      -0.018   1.503   0.010  0.00  0.00    +0.084 C 
ATOM     23  C   UNL     1       0.002  -0.004   0.002  0.00  0.00    +0.084 A 
ATOM     24  N   UNL     1       0.008  -0.759  -1.063  0.00  0.00    -0.350 N 
ATOM     25  C   UNL     1       0.028  -2.047  -0.691  0.00  0.00    +0.101 A 
ATOM     26  C   UNL     1       0.034  -2.093   0.655  0.00  0.00    +0.104 A 
ATOM     27  N   UNL     1       0.023  -0.797   1.095  0.00  0.00    -0.336 N 
ATOM     28  H   UNL     1      -0.000  -0.438  -1.978  0.00  0.00    +0.166 HD
ENDBRANCH  21  27
ENDBRANCH  20  21
ENDBRANCH  19  20
ENDBRANCH   1  19
TORSDOF 7
