REMARK  Name = ZINC09672478
REMARK  8 active torsions:
REMARK  status: ('A' for Active; 'I' for Inactive)
REMARK    1  A    between atoms: C_1  and  C_2
REMARK    2  A    between atoms: C_9  and  N_13
REMARK    3  A    between atoms: C_10  and  C_11
REMARK    4  A    between atoms: C_14  and  C_16
REMARK    5  A    between atoms: C_16  and  S_17
REMARK    6  A    between atoms: S_17  and  C_18
REMARK    7  A    between atoms: N_31  and  C_32
REMARK    8  A    between atoms: C_32  and  C_33
REMARK                            x       y       z     vdW  Elec       q    Type
REMARK                         _______ _______ _______ _____ _____    ______ ____
ROOT
ATOM      1  S   UNL     1       3.858   0.746  -0.031  0.00  0.00    -0.076 S 
ENDROOT
BRANCH   1   2
ATOM      2  C   UNL     1       2.097   0.716  -0.014  0.00  0.00    +0.198 A 
ATOM      3  N   UNL     1       1.309   1.764  -0.001  0.00  0.00    -0.120 NA
ATOM      4  N   UNL     1      -0.016   1.310   0.009  0.00  0.00    -0.109 NA
ATOM      5  C   UNL     1       0.002  -0.004   0.002  0.00  0.00    +0.240 A 
ATOM      6  N   UNL     1       1.310  -0.404  -0.013  0.00  0.00    -0.256 N 
ATOM      7  C   UNL     1       1.637  -1.759  -0.024  0.00  0.00    +0.064 A 
ATOM      8  C   UNL     1       2.959  -2.175  -0.039  0.00  0.00    +0.027 A 
ATOM      9  C   UNL     1       3.255  -3.523  -0.050  0.00  0.00    +0.002 A 
ATOM     10  C   UNL     1       2.241  -4.468  -0.045  0.00  0.00    +0.001 A 
ATOM     11  C   UNL     1       0.920  -4.072  -0.030  0.00  0.00    +0.015 A 
ATOM     12  C   UNL     1       0.609  -2.714  -0.019  0.00  0.00    +0.064 A 
ATOM     13  C   UNL     1      -0.791  -2.249  -0.003  0.00  0.00    +0.263 A 
ATOM     14  O   UNL     1      -1.708  -3.049   0.001  0.00  0.00    -0.267 OA
ATOM     15  N   UNL     1      -1.036  -0.923   0.007  0.00  0.00    -0.273 N 
BRANCH  15  16
ATOM     16  C   UNL     1      -2.421  -0.447   0.024  0.00  0.00    +0.155 C 
BRANCH  16  17
ATOM     17  C   UNL     1      -2.910  -0.276  -1.391  0.00  0.00    -0.013 C 
ATOM     18  C   UNL     1      -4.003  -0.881  -1.784  0.00  0.00    +0.005 C 
ENDBRANCH  16  17
ENDBRANCH  15  16
ENDBRANCH   1   2
BRANCH   1  19
ATOM     19  C   UNL     1       4.268   2.513  -0.025  0.00  0.00    +0.173 C 
BRANCH  19  21
ATOM     20  N   UNL     1       6.304   3.917  -0.038  0.00  0.00    -0.278 N 
ATOM     21  C   UNL     1       5.765   2.682  -0.039  0.00  0.00    +0.228 C 
ATOM     22  O   UNL     1       6.485   1.706  -0.052  0.00  0.00    -0.275 OA
ATOM     23  H   UNL     1       5.728   4.697  -0.028  0.00  0.00    +0.155 HD
BRANCH  20  31
ATOM     24  C   UNL     1      14.115   4.362  -0.017  0.00  0.00    +0.008 C 
ATOM     25  C   UNL     1      12.646   4.665   0.283  0.00  0.00    -0.009 C 
ATOM     26  C   UNL     1      12.189   5.872  -0.542  0.00  0.00    +0.008 C 
ATOM     27  C   UNL     1      10.809   6.333  -0.069  0.00  0.00    +0.037 C 
ATOM     28  C   UNL     1       9.866   5.137  -0.066  0.00  0.00    -0.018 A 
ATOM     29  C   UNL     1      10.345   3.873  -0.078  0.00  0.00    -0.004 A 
ATOM     30  S   UNL     1       8.905   2.844  -0.070  0.00  0.00    -0.077 S 
ATOM     31  C   UNL     1       7.684   4.072  -0.050  0.00  0.00    +0.090 A 
ATOM     32  C   UNL     1       8.418   5.249  -0.057  0.00  0.00    +0.084 A 
ATOM     33  C   UNL     1      11.782   3.452  -0.094  0.00  0.00    +0.046 C 
BRANCH  32  34
ATOM     34  C   UNL     1       7.772   6.527  -0.050  0.00  0.00    +0.102 C 
ATOM     35  N   UNL     1       7.260   7.541  -0.045  0.00  0.00    -0.191 NA
ENDBRANCH  32  34
ENDBRANCH  20  31
ENDBRANCH  19  21
ENDBRANCH   1  19
TORSDOF 7
