REMARK  Name = ZINC02245814
REMARK  9 active torsions:
REMARK  status: ('A' for Active; 'I' for Inactive)
REMARK    1  A    between atoms: C_1  and  C_2
REMARK    2  A    between atoms: C_2  and  C_3
REMARK    3  A    between atoms: C_3  and  C_4
REMARK    4  A    between atoms: C_4  and  S_5
REMARK    5  A    between atoms: S_5  and  C_6
REMARK    6  A    between atoms: C_9  and  C_12
REMARK    7  A    between atoms: C_13  and  C_23
REMARK    8  A    between atoms: N_15  and  C_17
REMARK    9  A    between atoms: C_34  and  C_37
REMARK                            x       y       z     vdW  Elec       q    Type
REMARK                         _______ _______ _______ _____ _____    ______ ____
ROOT
ATOM      1  C   UNL     1      -3.181   3.256  -7.238  0.00  0.00    +0.100 A 
ATOM      2  C   UNL     1      -4.638   3.435  -7.255  0.00  0.00    +0.022 A 
ATOM      3  C   UNL     1      -4.949   3.981  -8.487  0.00  0.00    +0.123 A 
ATOM      4  N   UNL     1      -3.801   4.128  -9.173  0.00  0.00    -0.239 N 
ATOM      5  N   UNL     1      -2.728   3.685  -8.395  0.00  0.00    -0.166 NA
ENDROOT
BRANCH   2   6
ATOM      6  C   UNL     1      -5.577   3.102  -6.179  0.00  0.00    +0.032 C 
ATOM      7  C   UNL     1      -6.907   3.328  -6.344  0.00  0.00    +0.080 C 
ATOM      8  C   UNL     1      -8.032   3.079  -5.416  0.00  0.00    +0.276 C 
ATOM      9  O   UNL     1      -7.858   2.600  -4.307  0.00  0.00    -0.267 OA
ATOM     10  N   UNL     1      -9.231   3.402  -5.852  0.00  0.00    -0.154 NA
ATOM     11  C   UNL     1      -9.433   3.922  -7.051  0.00  0.00    +0.154 C 
ATOM     12  S   UNL     1      -7.788   4.018  -7.739  0.00  0.00    -0.052 S 
ATOM     13  N   UNL     1     -10.619   4.301  -7.626  0.00  0.00    -0.311 N 
ATOM     14  C   UNL     1     -10.646   4.870  -8.980  0.00  0.00    +0.107 C 
ATOM     15  C   UNL     1     -11.383   6.208  -8.942  0.00  0.00    +0.019 C 
ATOM     16  C   UNL     1     -12.765   6.009  -8.315  0.00  0.00    +0.006 C 
ATOM     17  C   UNL     1     -12.608   5.502  -6.880  0.00  0.00    +0.003 C 
ATOM     18  C   UNL     1     -11.885   4.151  -6.896  0.00  0.00    +0.110 C 
ATOM     19  C   UNL     1     -13.989   5.335  -6.243  0.00  0.00    +0.009 C 
ENDBRANCH   2   6
BRANCH   1  23
ATOM     20  C   UNL     1      -0.864   1.666  -4.046  0.00  0.00    +0.008 A 
ATOM     21  C   UNL     1      -1.991   2.433  -3.771  0.00  0.00    +0.015 A 
ATOM     22  C   UNL     1      -2.740   2.954  -4.804  0.00  0.00    +0.011 A 
ATOM     23  C   UNL     1      -2.374   2.701  -6.126  0.00  0.00    +0.003 A 
ATOM     24  C   UNL     1      -1.247   1.927  -6.400  0.00  0.00    +0.011 A 
ATOM     25  C   UNL     1      -0.497   1.412  -5.364  0.00  0.00    +0.015 A 
BRANCH  20  26
ATOM     26  S   UNL     1       0.096   1.008  -2.724  0.00  0.00    -0.125 S 
BRANCH  26  27
ATOM     27  C   UNL     1      -0.753   1.593  -1.232  0.00  0.00    +0.074 C 
BRANCH  27  28
ATOM     28  C   UNL     1      -0.013   1.086   0.008  0.00  0.00    +0.011 C 
BRANCH  28  30
ATOM     29  C   UNL     1       0.011   1.072   2.506  0.00  0.00    +0.004 C 
ATOM     30  C   UNL     1      -0.729   1.579   1.267  0.00  0.00    -0.003 C 
ENDBRANCH  28  30
ENDBRANCH  27  28
ENDBRANCH  26  27
ENDBRANCH  20  26
ENDBRANCH   1  23
BRANCH   4  31
ATOM     31  C   UNL     1      -3.696   4.650 -10.469  0.00  0.00    +0.065 A 
ATOM     32  C   UNL     1      -4.836   5.059 -11.148  0.00  0.00    +0.028 A 
ATOM     33  C   UNL     1      -4.729   5.578 -12.423  0.00  0.00    +0.002 A 
ATOM     34  C   UNL     1      -3.490   5.680 -13.028  0.00  0.00    +0.000 A 
ATOM     35  C   UNL     1      -2.353   5.269 -12.356  0.00  0.00    +0.002 A 
ATOM     36  C   UNL     1      -2.453   4.754 -11.079  0.00  0.00    +0.028 A 
ENDBRANCH   4  31
TORSDOF 7
