REMARK  Name = ZINC44713892
REMARK  8 active torsions:
REMARK  status: ('A' for Active; 'I' for Inactive)
REMARK    1  A    between atoms: C_1  and  C_2
REMARK    2  A    between atoms: C_6  and  C_9
REMARK    3  A    between atoms: C_13  and  C_22
REMARK    4  A    between atoms: N_24  and  C_25
REMARK    5  A    between atoms: C_25  and  C_27
REMARK    6  A    between atoms: C_25  and  C_28
REMARK    7  A    between atoms: C_29  and  C_35
REMARK    8  A    between atoms: C_33  and  C_34
REMARK                            x       y       z     vdW  Elec       q    Type
REMARK                         _______ _______ _______ _____ _____    ______ ____
ROOT
ATOM      1  C   UNL     1      -0.006  -2.789   2.454  0.00  0.00    +0.252 C 
ATOM      2  O   UNL     1       1.051  -3.069   2.986  0.00  0.00    -0.270 OA
ATOM      3  N   UNL     1      -1.168  -3.152   3.033  0.00  0.00    -0.296 N 
ATOM      4  C   UNL     1      -2.544  -2.909   2.538  0.00  0.00    +0.121 C 
ATOM      5  C   UNL     1      -3.312  -4.209   2.865  0.00  0.00    +0.100 C 
ATOM      6  C   UNL     1      -2.531  -4.844   4.028  0.00  0.00    -0.004 C 
ATOM      7  C   UNL     1      -1.359  -3.891   4.304  0.00  0.00    +0.115 C 
ATOM      8  C   UNL     1      -2.002  -6.216   3.622  0.00  0.00    -0.010 C 
ATOM      9  C   UNL     1      -1.278  -6.852   4.813  0.00  0.00    -0.082 C 
ATOM     10  N   UNL     1      -2.208  -6.977   5.942  0.00  0.00    +0.379 N 
ATOM     11  C   UNL     1      -2.639  -5.646   6.386  0.00  0.00    -0.082 C 
ATOM     12  C   UNL     1      -3.420  -4.960   5.262  0.00  0.00    -0.010 C 
ATOM     13  H   UNL     1      -3.013  -7.512   5.655  0.00  0.00    -0.086 HD
ATOM     14  H   UNL     1      -1.746  -7.451   6.704  0.00  0.00    -0.086 HD
ENDROOT
BRANCH   1  20
ATOM     15  C   UNL     1      -0.093   1.537  -0.037  0.00  0.00    +0.047 C 
ATOM     16  C   UNL     1      -0.059   0.031  -0.029  0.00  0.00    -0.014 A 
ATOM     17  C   UNL     1      -0.037  -0.665  -1.225  0.00  0.00    +0.009 A 
ATOM     18  C   UNL     1      -0.005  -2.047  -1.230  0.00  0.00    +0.039 A 
ATOM     19  C   UNL     1       0.005  -2.746  -0.037  0.00  0.00    +0.138 A 
ATOM     20  C   UNL     1      -0.017  -2.051   1.177  0.00  0.00    +0.107 A 
ATOM     21  C   UNL     1      -0.043  -0.652   1.172  0.00  0.00    +0.141 A 
ATOM     22  F   UNL     1      -0.058   0.029   2.338  0.00  0.00    -0.204 F 
ATOM     23  F   UNL     1       0.035  -4.097  -0.044  0.00  0.00    -0.205 F 
ENDBRANCH   1  20
BRANCH   5  24
ATOM     24  C   UNL     1      -3.320  -5.128   1.671  0.00  0.00    +0.219 C 
ATOM     25  O   UNL     1      -2.443  -5.048   0.838  0.00  0.00    -0.275 OA
ATOM     26  N   UNL     1      -4.303  -6.040   1.530  0.00  0.00    -0.308 N 
ATOM     27  H   UNL     1      -5.005  -6.104   2.196  0.00  0.00    +0.149 HD
BRANCH  26  28
ATOM     28  C   UNL     1      -4.311  -6.934   0.369  0.00  0.00    +0.104 C 
ATOM     29  C   UNL     1      -4.870  -6.189  -0.845  0.00  0.00    +0.033 C 
BRANCH  28  30
ATOM     30  C   UNL     1      -5.175  -8.133   0.664  0.00  0.00    +0.015 A 
ATOM     31  C   UNL     1      -4.831  -9.428   0.475  0.00  0.00    +0.038 A 
ATOM     32  N   UNL     1      -5.876 -10.191   0.860  0.00  0.00    -0.281 N 
ATOM     33  H   UNL     1      -5.914 -11.160   0.836  0.00  0.00    +0.189 HD
ATOM     34  N   UNL     1      -6.895  -9.337   1.300  0.00  0.00    -0.179 NA
ATOM     35  C   UNL     1      -6.472  -8.104   1.189  0.00  0.00    +0.065 A 
ATOM     36  C   UNL     1      -7.249  -6.866   1.556  0.00  0.00    +0.068 C 
ATOM     37  C   UNL     1      -3.518  -9.928  -0.068  0.00  0.00    +0.065 C 
ENDBRANCH  28  30
ENDBRANCH  26  28
ENDBRANCH   5  24
TORSDOF 4
