REMARK  Name = ZINC01805822
REMARK  12 active torsions:
REMARK  status: ('A' for Active; 'I' for Inactive)
REMARK    1  A    between atoms: C_1  and  C_2
REMARK    2  A    between atoms: C_2  and  O_3
REMARK    3  A    between atoms: O_3  and  C_4
REMARK    4  A    between atoms: C_4  and  C_6
REMARK    5  A    between atoms: C_7  and  C_34
REMARK    6  A    between atoms: C_8  and  C_33
REMARK    7  A    between atoms: C_10  and  N_11
REMARK    8  A    between atoms: C_12  and  C_14
REMARK    9  A    between atoms: C_14  and  C_31
REMARK   10  A    between atoms: C_15  and  C_16
REMARK   11  A    between atoms: C_19  and  C_21
REMARK   12  A    between atoms: C_25  and  N_27
REMARK                            x       y       z     vdW  Elec       q    Type
REMARK                         _______ _______ _______ _____ _____    ______ ____
ROOT
ATOM      1  C   UNL     1      -1.213   3.505   0.027  0.00  0.00    +0.117 C 
ATOM      2  C   UNL     1      -2.425   4.183   0.036  0.00  0.00    +0.070 C 
ENDROOT
BRANCH   2   3
ATOM      3  C   UNL     1      -2.444   5.587   0.044  0.00  0.00    +0.130 A 
ATOM      4  C   UNL     1      -3.579   6.386   0.054  0.00  0.00    +0.050 A 
ATOM      5  C   UNL     1      -3.140   7.708   0.059  0.00  0.00    +0.050 A 
ATOM      6  C   UNL     1      -1.761   7.677   0.052  0.00  0.00    +0.136 A 
ATOM      7  O   UNL     1      -1.361   6.394   0.049  0.00  0.00    -0.455 OA
BRANCH   6   8
ATOM      8  C   UNL     1      -0.873   8.855   0.054  0.00  0.00    +0.020 A 
ATOM      9  C   UNL     1      -1.416  10.143   0.064  0.00  0.00    +0.013 A 
ATOM     10  C   UNL     1      -0.581  11.240   0.066  0.00  0.00    +0.023 A 
ATOM     11  C   UNL     1       0.794  11.067   0.059  0.00  0.00    +0.071 A 
ATOM     12  C   UNL     1       1.339   9.794   0.049  0.00  0.00    +0.145 A 
ATOM     13  C   UNL     1       0.514   8.688   0.053  0.00  0.00    +0.045 A 
ATOM     14 CL   UNL     1       1.839  12.454   0.062  0.00  0.00    -0.081 Cl
BRANCH  12  15
ATOM     15  N   UNL     1       2.808   9.619   0.041  0.00  0.00    +0.058 N 
ATOM     16  O   UNL     1       3.289   8.500   0.032  0.00  0.00    -0.126 OA
ATOM     17  O   UNL     1       3.538  10.595   0.043  0.00  0.00    -0.126 OA
ENDBRANCH  12  15
ENDBRANCH   6   8
ENDBRANCH   2   3
BRANCH   1  19
ATOM     18  N   UNL     1      -0.017   1.380   0.010  0.00  0.00    -0.275 N 
ATOM     19  C   UNL     1      -1.193   2.038   0.019  0.00  0.00    +0.259 C 
ATOM     20  O   UNL     1      -2.239   1.415   0.020  0.00  0.00    -0.269 OA
ATOM     21  H   UNL     1       0.817   1.877   0.004  0.00  0.00    +0.156 HD
BRANCH  18  26
ATOM     22  C   UNL     1       1.104  -0.854  -0.013  0.00  0.00    +0.091 A 
ATOM     23  C   UNL     1       0.830  -2.271  -0.018  0.00  0.00    -0.025 A 
ATOM     24  C   UNL     1      -0.462  -2.647  -0.008  0.00  0.00    -0.008 A 
ATOM     25  S   UNL     1      -1.340  -1.098   0.017  0.00  0.00    -0.078 S 
ATOM     26  C   UNL     1       0.002  -0.004   0.002  0.00  0.00    +0.087 A 
ATOM     27  C   UNL     1      -1.029  -4.043  -0.009  0.00  0.00    +0.052 C 
ATOM     28  C   UNL     1       1.943  -3.287  -0.035  0.00  0.00    +0.045 C 
BRANCH  22  29
ATOM     29  C   UNL     1       2.473  -0.336  -0.024  0.00  0.00    +0.342 C 
ATOM     30  O   UNL     1       3.053  -0.127   1.025  0.00  0.00    -0.245 OA
BRANCH  29  31
ATOM     31  O   UNL     1       3.093  -0.091  -1.197  0.00  0.00    -0.461 OA
BRANCH  31  33
ATOM     32  C   UNL     1       4.983   0.636  -2.550  0.00  0.00    +0.048 C 
ATOM     33  C   UNL     1       4.450   0.421  -1.131  0.00  0.00    +0.229 C 
ENDBRANCH  31  33
ENDBRANCH  29  31
ENDBRANCH  22  29
ENDBRANCH  18  26
ENDBRANCH   1  19
BRANCH   1  34
ATOM     34  C   UNL     1       0.018   4.238   0.025  0.00  0.00    +0.104 C 
ATOM     35  N   UNL     1       0.994   4.819   0.024  0.00  0.00    -0.191 NA
ENDBRANCH   1  34
TORSDOF 9
