REMARK  Name = ZINC39609306
REMARK  9 active torsions:
REMARK  status: ('A' for Active; 'I' for Inactive)
REMARK    1  A    between atoms: C_1  and  C_2
REMARK    2  A    between atoms: C_5  and  C_9
REMARK    3  A    between atoms: C_7  and  C_8
REMARK    4  A    between atoms: C_9  and  C_10
REMARK    5  A    between atoms: C_10  and  N_11
REMARK    6  A    between atoms: C_12  and  C_14
REMARK    7  A    between atoms: C_25  and  C_27
REMARK    8  A    between atoms: C_32  and  O_33
REMARK    9  A    between atoms: O_33  and  C_34
REMARK                            x       y       z     vdW  Elec       q    Type
REMARK                         _______ _______ _______ _____ _____    ______ ____
ROOT
ATOM      1  C   UNL     1       2.568  -8.740  -0.476  0.00  0.00    +0.100 C 
ATOM      2  C   UNL     1       2.101  -9.106   0.951  0.00  0.00    +0.121 C 
ATOM      3  N   UNL     1       2.988 -10.220   1.360  0.00  0.00    -0.296 N 
ATOM      4  C   UNL     1       4.320  -9.846   0.829  0.00  0.00    +0.115 C 
ATOM      5  C   UNL     1       4.025  -9.226  -0.552  0.00  0.00    -0.004 C 
ATOM      6  C   UNL     1       4.962  -8.051  -0.813  0.00  0.00    -0.010 C 
ATOM      7  C   UNL     1       6.398  -8.568  -0.943  0.00  0.00    -0.082 C 
ATOM      8  N   UNL     1       6.475  -9.535  -2.044  0.00  0.00    +0.379 N 
ATOM      9  C   UNL     1       5.642 -10.705  -1.742  0.00  0.00    -0.082 C 
ATOM     10  C   UNL     1       4.174 -10.279  -1.646  0.00  0.00    -0.010 C 
ATOM     11  C   UNL     1       2.658 -11.325   2.058  0.00  0.00    +0.252 C 
ATOM     12  O   UNL     1       3.522 -12.109   2.400  0.00  0.00    -0.270 OA
ATOM     13  H   UNL     1       6.147  -9.101  -2.894  0.00  0.00    -0.086 HD
ATOM     14  H   UNL     1       7.432  -9.827  -2.167  0.00  0.00    -0.086 HD
ENDROOT
BRANCH  11  15
ATOM     15  C   UNL     1       1.248 -11.582   2.407  0.00  0.00    +0.099 A 
ATOM     16  C   UNL     1       0.383 -10.523   2.708  0.00  0.00    +0.020 A 
ATOM     17  C   UNL     1      -0.930 -10.818   3.028  0.00  0.00    +0.021 A 
ATOM     18  C   UNL     1      -1.348 -12.137   3.043  0.00  0.00    +0.114 A 
ATOM     19  N   UNL     1      -0.516 -13.120   2.758  0.00  0.00    -0.220 NA
ATOM     20  C   UNL     1       0.748 -12.893   2.439  0.00  0.00    +0.233 A 
BRANCH  20  21
ATOM     21  O   UNL     1       1.565 -13.932   2.147  0.00  0.00    -0.437 OA
BRANCH  21  22
ATOM     22  C   UNL     1       1.070 -15.191   2.282  0.00  0.00    +0.130 A 
ATOM     23  C   UNL     1       1.389 -15.947   3.401  0.00  0.00    +0.046 A 
ATOM     24  C   UNL     1       0.884 -17.226   3.536  0.00  0.00    +0.004 A 
ATOM     25  C   UNL     1       0.062 -17.752   2.557  0.00  0.00    +0.000 A 
ATOM     26  C   UNL     1      -0.257 -17.001   1.441  0.00  0.00    +0.004 A 
ATOM     27  C   UNL     1       0.241 -15.720   1.304  0.00  0.00    +0.046 A 
ENDBRANCH  21  22
ENDBRANCH  20  21
ENDBRANCH  11  15
BRANCH   1  29
ATOM     28  N   UNL     1       2.337  -6.748  -1.924  0.00  0.00    -0.315 N 
ATOM     29  C   UNL     1       2.502  -7.249  -0.684  0.00  0.00    +0.218 C 
ATOM     30  O   UNL     1       2.596  -6.500   0.265  0.00  0.00    -0.275 OA
ATOM     31  H   UNL     1       2.262  -7.347  -2.683  0.00  0.00    +0.149 HD
BRANCH  28  32
ATOM     32  C   UNL     1       2.272  -5.298  -2.126  0.00  0.00    +0.109 C 
BRANCH  32  33
ATOM     33  C   UNL     1       2.083  -4.998  -3.614  0.00  0.00    +0.054 C 
BRANCH  33  38
ATOM     34  C   UNL     1       1.828   0.719  -4.413  0.00  0.00    +0.044 C 
ATOM     35  C   UNL     1       1.894  -0.772  -4.205  0.00  0.00    -0.048 A 
ATOM     36  C   UNL     1       3.113  -1.423  -4.253  0.00  0.00    +0.004 A 
ATOM     37  C   UNL     1       3.174  -2.790  -4.061  0.00  0.00    +0.004 A 
ATOM     38  C   UNL     1       2.017  -3.507  -3.822  0.00  0.00    -0.046 A 
ATOM     39  C   UNL     1       0.798  -2.856  -3.773  0.00  0.00    +0.007 A 
ATOM     40  C   UNL     1       0.738  -1.488  -3.960  0.00  0.00    -0.047 A 
ATOM     41  C   UNL     1      -0.590  -0.777  -3.902  0.00  0.00    +0.044 C 
ENDBRANCH  33  38
ENDBRANCH  32  33
ENDBRANCH  28  32
ENDBRANCH   1  29
TORSDOF 7
