REMARK  Name = ZINC39561174
REMARK  8 active torsions:
REMARK  status: ('A' for Active; 'I' for Inactive)
REMARK    1  A    between atoms: C_4  and  O_7
REMARK    2  A    between atoms: O_7  and  C_8
REMARK    3  A    between atoms: C_13  and  N_14
REMARK    4  A    between atoms: C_15  and  C_17
REMARK    5  A    between atoms: C_17  and  O_18
REMARK    6  A    between atoms: O_18  and  C_19
REMARK    7  A    between atoms: C_19  and  C_21
REMARK    8  A    between atoms: C_23  and  N_29
REMARK                            x       y       z     vdW  Elec       q    Type
REMARK                         _______ _______ _______ _____ _____    ______ ____
ROOT
ATOM      1  N   UNL     1       5.929  -1.934   0.113  0.00  0.00    -0.280 N 
ATOM      2  C   UNL     1       7.082  -2.631   0.100  0.00  0.00    +0.255 C 
ATOM      3  O   UNL     1       7.061  -3.841   0.188  0.00  0.00    -0.272 OA
ATOM      4  H   UNL     1       5.948  -0.965   0.100  0.00  0.00    +0.155 HD
ENDROOT
BRANCH   1  10
ATOM      5  C   UNL     1       3.596  -2.081  -0.517  0.00  0.00    +0.150 A 
ATOM      6  C   UNL     1       2.386  -2.758  -0.487  0.00  0.00    +0.048 A 
ATOM      7  C   UNL     1       2.279  -3.951   0.202  0.00  0.00    +0.004 A 
ATOM      8  C   UNL     1       3.375  -4.474   0.863  0.00  0.00    +0.002 A 
ATOM      9  C   UNL     1       4.585  -3.806   0.838  0.00  0.00    +0.027 A 
ATOM     10  C   UNL     1       4.702  -2.611   0.144  0.00  0.00    +0.076 A 
BRANCH   5  11
ATOM     11  O   UNL     1       3.704  -0.907  -1.194  0.00  0.00    -0.454 OA
BRANCH  11  15
ATOM     12  C   UNL     1       0.273   0.723  -2.804  0.00  0.00    +0.000 A 
ATOM     13  C   UNL     1       0.422   0.646  -1.431  0.00  0.00    +0.004 A 
ATOM     14  C   UNL     1       1.570   0.101  -0.890  0.00  0.00    +0.046 A 
ATOM     15  C   UNL     1       2.573  -0.371  -1.724  0.00  0.00    +0.129 A 
ATOM     16  C   UNL     1       2.421  -0.293  -3.101  0.00  0.00    +0.046 A 
ATOM     17  C   UNL     1       1.271   0.254  -3.638  0.00  0.00    +0.004 A 
ENDBRANCH  11  15
ENDBRANCH   5  11
ENDBRANCH   1  10
BRANCH   2  18
ATOM     18  C   UNL     1       8.399  -1.908  -0.024  0.00  0.00    +0.328 C 
BRANCH  18  19
ATOM     19  O   UNL     1       9.467  -2.857  -0.013  0.00  0.00    -0.451 OA
BRANCH  19  20
ATOM     20  C   UNL     1      10.718  -2.370  -0.117  0.00  0.00    +0.360 C 
ATOM     21  O   UNL     1      10.898  -1.173  -0.212  0.00  0.00    -0.243 OA
BRANCH  20  22
ATOM     22  C   UNL     1      11.874  -3.293  -0.113  0.00  0.00    +0.169 A 
ATOM     23  C   UNL     1      13.165  -2.783  -0.214  0.00  0.00    +0.095 A 
ATOM     24  C   UNL     1      14.244  -3.668  -0.209  0.00  0.00    +0.067 A 
ATOM     25  C   UNL     1      13.981  -5.032  -0.102  0.00  0.00    +0.100 A 
ATOM     26  C   UNL     1      12.667  -5.463  -0.005  0.00  0.00    +0.150 A 
ATOM     27  N   UNL     1      11.670  -4.603  -0.008  0.00  0.00    -0.226 NA
ATOM     28 CL   UNL     1      12.331  -7.161   0.128  0.00  0.00    -0.060 Cl
ATOM     29 CL   UNL     1      15.284  -6.179  -0.091  0.00  0.00    -0.078 Cl
ATOM     30 CL   UNL     1      13.429  -1.072  -0.345  0.00  0.00    -0.079 Cl
BRANCH  24  31
ATOM     31  N   UNL     1      15.553  -3.199  -0.308  0.00  0.00    -0.356 N 
ATOM     32  H   UNL     1      15.722  -2.246  -0.383  0.00  0.00    +0.142 HD
ATOM     33  H   UNL     1      16.294  -3.824  -0.304  0.00  0.00    +0.142 HD
ENDBRANCH  24  31
ENDBRANCH  20  22
ENDBRANCH  19  20
ENDBRANCH  18  19
ENDBRANCH   2  18
TORSDOF 8
