REMARK  Name = ZINC13028473
REMARK  15 active torsions:
REMARK  status: ('A' for Active; 'I' for Inactive)
REMARK    1  A    between atoms: C_1  and  C_2
REMARK    2  A    between atoms: C_5  and  C_8
REMARK    3  A    between atoms: C_8  and  N_9
REMARK    4  A    between atoms: N_9  and  C_10
REMARK    5  A    between atoms: C_10  and  C_12
REMARK    6  A    between atoms: C_10  and  C_21
REMARK    7  A    between atoms: C_15  and  N_18
REMARK    8  A    between atoms: N_18  and  C_19
REMARK    9  A    between atoms: N_18  and  C_20
REMARK   10  A    between atoms: N_23  and  C_24
REMARK   11  A    between atoms: C_24  and  C_25
REMARK   12  A    between atoms: C_24  and  C_26
REMARK   13  A    between atoms: C_24  and  C_27
REMARK   14  A    between atoms: C_28  and  C_30
REMARK   15  A    between atoms: C_30  and  N_31
REMARK                            x       y       z     vdW  Elec       q    Type
REMARK                         _______ _______ _______ _____ _____    ______ ____
ROOT
ATOM      1  N   UNL     1      -5.771   3.429  -1.698  0.00  0.00    -0.280 N 
ATOM      2  C   UNL     1      -4.516   3.193  -2.128  0.00  0.00    +0.238 C 
ATOM      3  O   UNL     1      -4.314   2.926  -3.293  0.00  0.00    -0.274 OA
ENDROOT
BRANCH   1   4
ATOM      4  C   UNL     1      -6.017   3.737  -0.287  0.00  0.00    +0.144 C 
BRANCH   4   9
ATOM      5  C   UNL     1      -3.362   8.679   1.099  0.00  0.00    +0.044 C 
ATOM      6  C   UNL     1      -4.054   7.390   0.738  0.00  0.00    -0.050 A 
ATOM      7  C   UNL     1      -5.185   7.412  -0.058  0.00  0.00    +0.003 A 
ATOM      8  C   UNL     1      -5.820   6.230  -0.389  0.00  0.00    +0.005 A 
ATOM      9  C   UNL     1      -5.324   5.025   0.074  0.00  0.00    -0.030 A 
ATOM     10  C   UNL     1      -4.197   5.004   0.874  0.00  0.00    +0.005 A 
ATOM     11  C   UNL     1      -3.559   6.186   1.201  0.00  0.00    +0.003 A 
ENDBRANCH   4   9
ENDBRANCH   1   4
BRANCH   1  12
ATOM     12  C   UNL     1      -6.890   3.378  -2.642  0.00  0.00    +0.193 C 
BRANCH  12  13
ATOM     13  C   UNL     1      -7.146   1.948  -3.041  0.00  0.00    -0.018 A 
ATOM     14  C   UNL     1      -7.183   0.958  -2.075  0.00  0.00    +0.008 A 
ATOM     15  C   UNL     1      -7.423  -0.353  -2.437  0.00  0.00    +0.023 A 
ATOM     16  C   UNL     1      -7.616  -0.679  -3.773  0.00  0.00    +0.029 A 
ATOM     17  C   UNL     1      -7.572   0.316  -4.741  0.00  0.00    +0.023 A 
ATOM     18  C   UNL     1      -7.338   1.626  -4.372  0.00  0.00    +0.008 A 
BRANCH  16  19
ATOM     19  N   UNL     1      -7.853  -2.005  -4.143  0.00  0.00    -0.336 N 
ATOM     20  C   UNL     1      -8.055  -2.347  -5.553  0.00  0.00    +0.129 C 
ATOM     21  C   UNL     1      -7.898  -3.054  -3.121  0.00  0.00    +0.129 C 
ENDBRANCH  16  19
ENDBRANCH  12  13
BRANCH  12  22
ATOM     22  C   UNL     1      -8.124   3.946  -1.990  0.00  0.00    +0.238 C 
ATOM     23  O   UNL     1      -8.018   4.768  -1.104  0.00  0.00    -0.273 OA
ATOM     24  N   UNL     1      -9.346   3.540  -2.390  0.00  0.00    -0.309 N 
ATOM     25  H   UNL     1      -9.430   2.833  -3.048  0.00  0.00    +0.149 HD
BRANCH  24  26
ATOM     26  C   UNL     1     -10.546   4.167  -1.830  0.00  0.00    +0.026 C 
ATOM     27  C   UNL     1     -10.499   5.675  -2.085  0.00  0.00    +0.031 C 
ATOM     28  C   UNL     1     -11.789   3.575  -2.497  0.00  0.00    +0.031 C 
ATOM     29  C   UNL     1     -10.602   3.906  -0.324  0.00  0.00    +0.031 C 
ENDBRANCH  24  26
ENDBRANCH  12  22
ENDBRANCH   1  12
BRANCH   2  30
ATOM     30  C   UNL     1      -3.363   3.262  -1.160  0.00  0.00    +0.241 C 
BRANCH  30  31
ATOM     31  N   UNL     1      -2.286   2.382  -1.620  0.00  0.00    -0.235 N 
ATOM     32  C   UNL     1      -2.115   1.055  -1.302  0.00  0.00    +0.090 A 
ATOM     33  C   UNL     1      -2.822   0.151  -0.518  0.00  0.00    +0.029 A 
ATOM     34  C   UNL     1      -2.378  -1.136  -0.397  0.00  0.00    +0.002 A 
ATOM     35  C   UNL     1      -1.230  -1.553  -1.059  0.00  0.00    +0.002 A 
ATOM     36  C   UNL     1      -0.522  -0.686  -1.839  0.00  0.00    +0.032 A 
ATOM     37  C   UNL     1      -0.953   0.640  -1.975  0.00  0.00    +0.113 A 
ATOM     38  N   UNL     1      -0.474   1.699  -2.658  0.00  0.00    -0.129 NA
ATOM     39  N   UNL     1      -1.226   2.727  -2.473  0.00  0.00    -0.064 NA
ENDBRANCH  30  31
ENDBRANCH   2  30
TORSDOF 9
