REMARK  Name = ZINC08751093
REMARK  7 active torsions:
REMARK  status: ('A' for Active; 'I' for Inactive)
REMARK    1  A    between atoms: C_1  and  N_54
REMARK    2  A    between atoms: C_2  and  N_54
REMARK    3  A    between atoms: C_3  and  C_9
REMARK    4  A    between atoms: C_3  and  N_54
REMARK    5  A    between atoms: N_13  and  C_14
REMARK    6  A    between atoms: C_14  and  C_16
REMARK    7  A    between atoms: C_14  and  C_23
REMARK                            x       y       z     vdW  Elec       q    Type
REMARK                         _______ _______ _______ _____ _____    ______ ____
ROOT
ATOM      1  C   UNL     1      -3.033   0.430  -2.291  0.00  0.00    +0.142 A 
ATOM      2  N   UNL     1      -2.503  -0.223  -3.296  0.00  0.00    -0.115 NA
ATOM      3  N   UNL     1      -1.502  -0.899  -2.848  0.00  0.00    -0.023 NA
ATOM      4  N   UNL     1      -1.376  -0.690  -1.584  0.00  0.00    -0.043 NA
ATOM      5  N   UNL     1      -2.304   0.120  -1.202  0.00  0.00    -0.219 N 
ENDROOT
BRANCH   1   6
ATOM      6  C   UNL     1      -4.225   1.351  -2.344  0.00  0.00    -0.003 C 
ATOM      7  C   UNL     1      -3.797   2.763  -1.937  0.00  0.00    -0.004 C 
ATOM      8  C   UNL     1      -5.008   3.697  -1.991  0.00  0.00    -0.001 C 
ATOM      9  C   UNL     1      -6.084   3.193  -1.028  0.00  0.00    -0.000 C 
ATOM     10  C   UNL     1      -6.512   1.781  -1.435  0.00  0.00    -0.001 C 
ATOM     11  C   UNL     1      -5.301   0.847  -1.381  0.00  0.00    -0.004 C 
BRANCH   6  14
ATOM     12  C   UNL     1      -3.772   1.906  -4.657  0.00  0.00    -0.095 C 
ATOM     13  C   UNL     1      -5.222   0.043  -4.120  0.00  0.00    -0.095 C 
ATOM     14  N   UNL     1      -4.786   1.394  -3.711  0.00  0.00    +0.385 N 
ATOM     15  H   UNL     1      -5.597   2.023  -3.718  0.00  0.00    -0.081 HD
ENDBRANCH   6  14
ENDBRANCH   1   6
BRANCH   5  16
ATOM     16  C   UNL     1      -2.522   0.615   0.160  0.00  0.00    +0.172 C 
BRANCH  16  17
ATOM     17  C   UNL     1      -2.845  -0.542   1.069  0.00  0.00    -0.018 A 
ATOM     18  C   UNL     1      -2.002  -1.637   1.121  0.00  0.00    +0.007 A 
ATOM     19  C   UNL     1      -2.296  -2.696   1.959  0.00  0.00    +0.020 A 
ATOM     20  C   UNL     1      -3.440  -2.666   2.737  0.00  0.00    +0.041 A 
ATOM     21  C   UNL     1      -4.286  -1.573   2.679  0.00  0.00    +0.020 A 
ATOM     22  C   UNL     1      -3.989  -0.512   1.845  0.00  0.00    +0.007 A 
ATOM     23 CL   UNL     1      -3.812  -3.999   3.784  0.00  0.00    -0.084 Cl
ENDBRANCH  16  17
BRANCH  16  24
ATOM     24  C   UNL     1      -1.274   1.304   0.649  0.00  0.00    -0.000 A 
ATOM     25  C   UNL     1      -0.062   0.639   0.625  0.00  0.00    +0.007 A 
ATOM     26  C   UNL     1       1.083   1.272   1.069  0.00  0.00    +0.000 A 
ATOM     27  C   UNL     1       1.017   2.570   1.541  0.00  0.00    +0.001 A 
ATOM     28  C   UNL     1      -0.194   3.234   1.570  0.00  0.00    +0.020 A 
ATOM     29  C   UNL     1      -1.341   2.600   1.127  0.00  0.00    +0.046 A 
ATOM     30 CL   UNL     1      -2.864   3.434   1.164  0.00  0.00    -0.083 Cl
ENDBRANCH  16  24
ENDBRANCH   5  16
TORSDOF 5
