REMARK  Name = ZINC57984756
REMARK  4 active torsions:
REMARK  status: ('A' for Active; 'I' for Inactive)
REMARK    1  A    between atoms: C_3  and  N_8
REMARK    2  A    between atoms: C_9  and  C_11
REMARK    3  A    between atoms: N_16  and  C_18
REMARK    4  A    between atoms: C_18  and  C_19
REMARK                            x       y       z     vdW  Elec       q    Type
REMARK                         _______ _______ _______ _____ _____    ______ ____
ROOT
ATOM      1  C   UNL     1       5.244   3.993  -0.373  0.00  0.00    +0.089 C 
ATOM      2  C   UNL     1       6.157   3.710   0.822  0.00  0.00    +0.015 C 
ATOM      3  C   UNL     1       7.405   4.592   0.721  0.00  0.00    +0.016 C 
ATOM      4  C   UNL     1       6.982   6.062   0.669  0.00  0.00    +0.085 C 
ATOM      5  N   UNL     1       6.111   6.281  -0.492  0.00  0.00    -0.296 NA
ATOM      6  C   UNL     1       4.883   5.480  -0.394  0.00  0.00    +0.097 C 
ENDROOT
BRANCH   1   8
ATOM      7  N   UNL     1       4.059   1.827  -0.210  0.00  0.00    -0.270 N 
ATOM      8  C   UNL     1       3.986   3.172  -0.250  0.00  0.00    +0.223 C 
ATOM      9  O   UNL     1       2.906   3.722  -0.187  0.00  0.00    -0.275 OA
ATOM     10  H   UNL     1       4.925   1.389  -0.193  0.00  0.00    +0.156 HD
BRANCH   7  13
ATOM     11  C   UNL     1       1.808  -1.066  -0.245  0.00  0.00    +0.020 A 
ATOM     12  C   UNL     1       2.974  -0.321  -0.264  0.00  0.00    +0.045 A 
ATOM     13  C   UNL     1       2.892   1.065  -0.193  0.00  0.00    +0.125 A 
ATOM     14  N   UNL     1       1.717   1.668  -0.110  0.00  0.00    -0.239 NA
ATOM     15  C   UNL     1       0.588   0.985  -0.090  0.00  0.00    +0.128 A 
ATOM     16  C   UNL     1       0.595  -0.396  -0.157  0.00  0.00    +0.036 A 
ATOM     17 BR   UNL     1      -1.031  -1.361  -0.129  0.00  0.00    -0.049 Br
ENDBRANCH   7  13
ENDBRANCH   1   8
BRANCH   5  18
ATOM     18  C   UNL     1       5.797   7.707  -0.653  0.00  0.00    +0.137 C 
BRANCH  18  19
ATOM     19  C   UNL     1       5.052   7.915  -1.946  0.00  0.00    +0.037 A 
ATOM     20  C   UNL     1       3.752   8.372  -1.942  0.00  0.00    +0.093 A 
ATOM     21  C   UNL     1       3.079   8.558  -3.149  0.00  0.00    +0.259 A 
ATOM     22  O   UNL     1       1.927   8.963  -3.151  0.00  0.00    -0.267 OA
ATOM     23  N   UNL     1       3.710   8.288  -4.330  0.00  0.00    -0.264 N 
ATOM     24  C   UNL     1       3.184   8.421  -5.593  0.00  0.00    +0.104 A 
ATOM     25  C   UNL     1       3.905   8.123  -6.674  0.00  0.00    +0.067 A 
ATOM     26  S   UNL     1       5.455   7.609  -5.949  0.00  0.00    -0.059 S 
ATOM     27  C   UNL     1       5.001   7.838  -4.244  0.00  0.00    +0.158 A 
ATOM     28  N   UNL     1       5.640   7.666  -3.114  0.00  0.00    -0.338 N 
ATOM     29  H   UNL     1       6.557   7.348  -3.128  0.00  0.00    +0.168 HD
ENDBRANCH  18  19
ENDBRANCH   5  18
TORSDOF 4
