REMARK  Name = ZINC46672876
REMARK  8 active torsions:
REMARK  status: ('A' for Active; 'I' for Inactive)
REMARK    1  A    between atoms: C_1  and  C_2
REMARK    2  A    between atoms: C_5  and  C_7
REMARK    3  A    between atoms: N_9  and  C_10
REMARK    4  A    between atoms: C_14  and  C_16
REMARK    5  A    between atoms: N_18  and  C_19
REMARK    6  A    between atoms: C_19  and  C_20
REMARK    7  A    between atoms: C_20  and  C_22
REMARK    8  A    between atoms: C_20  and  N_27
REMARK                            x       y       z     vdW  Elec       q    Type
REMARK                         _______ _______ _______ _____ _____    ______ ____
ROOT
ATOM      1  C   UNL     1       4.526   0.260   7.421  0.00  0.00    +0.244 C 
ATOM      2  O   UNL     1       4.670  -0.944   7.510  0.00  0.00    -0.270 OA
ATOM      3  N   UNL     1       4.915   1.062   8.432  0.00  0.00    -0.312 N 
ATOM      4  H   UNL     1       4.800   2.022   8.361  0.00  0.00    +0.149 HD
ENDROOT
BRANCH   1   9
ATOM      5  C   UNL     1       2.958   0.571   4.017  0.00  0.00    +0.034 A 
ATOM      6  C   UNL     1       2.797   1.948   3.922  0.00  0.00    +0.023 A 
ATOM      7  C   UNL     1       3.196   2.769   4.960  0.00  0.00    +0.003 A 
ATOM      8  C   UNL     1       3.758   2.226   6.098  0.00  0.00    +0.013 A 
ATOM      9  C   UNL     1       3.924   0.844   6.203  0.00  0.00    +0.038 A 
ATOM     10  C   UNL     1       3.515   0.015   5.158  0.00  0.00    +0.036 A 
BRANCH   5  13
ATOM     11  C   UNL     1       2.023  -1.467   3.222  0.00  0.00    +0.221 C 
ATOM     12  O   UNL     1       1.980  -1.879   4.362  0.00  0.00    -0.275 OA
ATOM     13  N   UNL     1       2.552  -0.255   2.963  0.00  0.00    -0.285 N 
ATOM     14  H   UNL     1       2.651   0.044   2.046  0.00  0.00    +0.155 HD
BRANCH  11  18
ATOM     15  C   UNL     1       0.900  -4.082   3.930  0.00  0.00    +0.008 C 
ATOM     16  C   UNL     1       0.895  -3.677   2.455  0.00  0.00    -0.002 C 
ATOM     17  C   UNL     1      -0.031  -2.531   2.040  0.00  0.00    +0.017 C 
ATOM     18  C   UNL     1       1.483  -2.311   2.096  0.00  0.00    +0.078 C 
ENDBRANCH  11  18
ENDBRANCH   5  13
ENDBRANCH   1   9
BRANCH   3  19
ATOM     19  C   UNL     1       5.511   0.482   9.638  0.00  0.00    +0.097 C 
BRANCH  19  20
ATOM     20  C   UNL     1       5.751   1.587  10.669  0.00  0.00    +0.016 C 
BRANCH  20  21
ATOM     21  N   UNL     1       6.561   2.653  10.065  0.00  0.00    +0.387 N 
ATOM     22  C   UNL     1       7.795   2.077   9.518  0.00  0.00    -0.078 C 
ATOM     23  C   UNL     1       8.605   3.170   8.817  0.00  0.00    -0.019 C 
ATOM     24  C   UNL     1       8.956   4.266   9.827  0.00  0.00    -0.004 C 
ATOM     25  C   UNL     1       7.664   4.808  10.445  0.00  0.00    -0.019 C 
ATOM     26  C   UNL     1       6.889   3.655  11.087  0.00  0.00    -0.078 C 
ATOM     27  H   UNL     1       6.038   3.091   9.322  0.00  0.00    -0.081 HD
ENDBRANCH  20  21
BRANCH  20  28
ATOM     28  C   UNL     1       6.479   1.015  11.858  0.00  0.00    +0.093 A 
ATOM     29  C   UNL     1       5.911   0.613  13.010  0.00  0.00    +0.043 A 
ATOM     30  C   UNL     1       6.956   0.149  13.841  0.00  0.00    +0.041 A 
ATOM     31  C   UNL     1       8.100   0.296  13.149  0.00  0.00    +0.195 A 
ATOM     32  O   UNL     1       7.804   0.815  11.946  0.00  0.00    -0.469 OA
ENDBRANCH  20  28
ENDBRANCH  19  20
ENDBRANCH   3  19
TORSDOF 7
