REMARK  Name = ZINC59310755
REMARK  7 active torsions:
REMARK  status: ('A' for Active; 'I' for Inactive)
REMARK    1  A    between atoms: C_1  and  C_2
REMARK    2  A    between atoms: C_2  and  C_23
REMARK    3  A    between atoms: N_3  and  N_4
REMARK    4  A    between atoms: C_7  and  S_10
REMARK    5  A    between atoms: S_10  and  C_11
REMARK    6  A    between atoms: C_11  and  C_12
REMARK    7  A    between atoms: N_14  and  C_15
REMARK                            x       y       z     vdW  Elec       q    Type
REMARK                         _______ _______ _______ _____ _____    ______ ____
ROOT
ATOM      1  N   UNL     1       0.088   0.042   2.322  0.00  0.00    -0.205 N 
ATOM      2  C   UNL     1       0.100  -0.656   3.516  0.00  0.00    +0.232 A 
ATOM      3  N   UNL     1       0.115  -1.966   3.647  0.00  0.00    -0.186 NA
ATOM      4  C   UNL     1       0.122  -2.288   4.945  0.00  0.00    +0.211 A 
ATOM      5  N   UNL     1       0.111  -1.186   5.658  0.00  0.00    -0.144 NA
ATOM      6  N   UNL     1       0.102  -0.113   4.752  0.00  0.00    -0.245 N 
ATOM      7  H   UNL     1       0.082   1.012   2.327  0.00  0.00    +0.177 HD
ATOM      8  H   UNL     1       0.096   0.832   4.972  0.00  0.00    +0.192 HD
ENDROOT
BRANCH   1  11
ATOM      9  C   UNL     1       0.067   1.500   0.007  0.00  0.00    +0.063 C 
ATOM     10  C   UNL     1       0.077  -0.007  -0.000  0.00  0.00    +0.040 C 
ATOM     11  N   UNL     1       0.087  -0.652   1.105  0.00  0.00    -0.189 NA
BRANCH  10  12
ATOM     12  C   UNL     1       0.076  -0.753  -1.309  0.00  0.00    +0.011 C 
ATOM     13  C   UNL     1       1.318  -0.371  -2.116  0.00  0.00    +0.016 C 
ATOM     14  C   UNL     1       1.317  -1.129  -3.445  0.00  0.00    -0.010 C 
ATOM     15  C   UNL     1       1.329  -2.635  -3.173  0.00  0.00    +0.007 C 
ATOM     16  C   UNL     1       0.086  -3.017  -2.366  0.00  0.00    -0.010 C 
ATOM     17  C   UNL     1       0.088  -2.259  -1.037  0.00  0.00    +0.016 C 
ATOM     18  C   UNL     1      -1.169  -2.652  -3.160  0.00  0.00    +0.007 C 
ATOM     19  C   UNL     1      -1.181  -1.147  -3.432  0.00  0.00    -0.010 C 
ATOM     20  C   UNL     1       0.061  -0.764  -4.239  0.00  0.00    +0.007 C 
ATOM     21  C   UNL     1      -1.180  -0.389  -2.103  0.00  0.00    +0.016 C 
ENDBRANCH  10  12
ENDBRANCH   1  11
BRANCH   4  22
ATOM     22  S   UNL     1       0.142  -3.926   5.594  0.00  0.00    -0.075 S 
BRANCH  22  23
ATOM     23  C   UNL     1       0.144  -3.687   7.392  0.00  0.00    +0.173 C 
BRANCH  23  24
ATOM     24  C   UNL     1       0.161  -5.029   8.077  0.00  0.00    +0.228 C 
ATOM     25  O   UNL     1       0.171  -6.046   7.418  0.00  0.00    -0.275 OA
ATOM     26  N   UNL     1       0.165  -5.098   9.423  0.00  0.00    -0.284 N 
ATOM     27  H   UNL     1       0.222  -4.286   9.950  0.00  0.00    +0.155 HD
BRANCH  26  28
ATOM     28  C   UNL     1       0.086  -6.342  10.060  0.00  0.00    +0.052 A 
ATOM     29  C   UNL     1       0.693  -7.454   9.493  0.00  0.00    +0.026 A 
ATOM     30  C   UNL     1       0.614  -8.680  10.123  0.00  0.00    +0.022 A 
ATOM     31  C   UNL     1      -0.071  -8.802  11.320  0.00  0.00    +0.042 A 
ATOM     32  C   UNL     1      -0.678  -7.696  11.888  0.00  0.00    +0.041 A 
ATOM     33  C   UNL     1      -0.596  -6.465  11.265  0.00  0.00    +0.064 A 
ATOM     34 CL   UNL     1      -1.351  -5.076  11.982  0.00  0.00    -0.082 Cl
ATOM     35 CL   UNL     1      -0.170 -10.345  12.108  0.00  0.00    -0.083 Cl
ENDBRANCH  26  28
ENDBRANCH  23  24
ENDBRANCH  22  23
ENDBRANCH   4  22
TORSDOF 6
