REMARK  Name = ZINC13712380
REMARK  8 active torsions:
REMARK  status: ('A' for Active; 'I' for Inactive)
REMARK    1  A    between atoms: C_1  and  C_2
REMARK    2  A    between atoms: C_7  and  N_8
REMARK    3  A    between atoms: C_9  and  O_35
REMARK    4  A    between atoms: C_10  and  C_23
REMARK    5  A    between atoms: N_13  and  C_16
REMARK    6  A    between atoms: C_21  and  C_22
REMARK    7  A    between atoms: C_29  and  C_32
REMARK    8  A    between atoms: C_30  and  O_31
REMARK                            x       y       z     vdW  Elec       q    Type
REMARK                         _______ _______ _______ _____ _____    ______ ____
ROOT
ATOM      1  N   UNL     1      -0.016   1.341   0.009  0.00  0.00    -0.259 N 
ATOM      2  C   UNL     1       1.159   2.053   0.002  0.00  0.00    +0.211 A 
ATOM      3  C   UNL     1       2.347   1.385  -0.013  0.00  0.00    +0.110 A 
ATOM      4  C   UNL     1       2.340  -0.021  -0.020  0.00  0.00    +0.269 A 
ATOM      5  O   UNL     1       3.391  -0.640  -0.033  0.00  0.00    -0.267 OA
ATOM      6  N   UNL     1       1.165  -0.681  -0.012  0.00  0.00    -0.256 N 
ATOM      7  C   UNL     1       0.002  -0.004   0.002  0.00  0.00    +0.175 A 
ATOM      8  S   UNL     1      -1.476  -0.868   0.011  0.00  0.00    -0.012 S 
ENDROOT
BRANCH   3   9
ATOM      9  C   UNL     1       3.649   2.143  -0.022  0.00  0.00    +0.193 C 
ATOM     10  C   UNL     1       4.423   1.861   1.241  0.00  0.00    +0.036 A 
ATOM     11  C   UNL     1       5.749   1.661   0.879  0.00  0.00    +0.006 A 
ATOM     12  C   UNL     1       6.679   1.382   1.857  0.00  0.00    +0.117 A 
ATOM     13  N   UNL     1       6.317   1.307   3.127  0.00  0.00    -0.256 NA
ATOM     14  C   UNL     1       5.069   1.490   3.509  0.00  0.00    +0.080 A 
ATOM     15  C   UNL     1       4.076   1.774   2.579  0.00  0.00    +0.144 A 
ATOM     16  C   UNL     1       4.715   1.389   4.971  0.00  0.00    +0.069 C 
ATOM     17  C   UNL     1       5.830   1.815  -0.620  0.00  0.00    +0.198 C 
ATOM     18  O   UNL     1       4.481   1.688  -1.106  0.00  0.00    -0.362 OA
BRANCH  15  19
ATOM     19  O   UNL     1       2.790   1.962   2.975  0.00  0.00    -0.505 OA
ATOM     20  H   UNL     1       2.261   1.152   2.993  0.00  0.00    +0.292 HD
ENDBRANCH  15  19
ENDBRANCH   3   9
BRANCH   1  27
ATOM     21  C   UNL     1      -1.199   2.018  -2.489  0.00  0.00    +0.046 C 
ATOM     22  C   UNL     1      -1.852   2.370  -1.178  0.00  0.00    -0.026 A 
ATOM     23  C   UNL     1      -3.062   3.036  -1.165  0.00  0.00    +0.005 A 
ATOM     24  C   UNL     1      -3.660   3.364   0.038  0.00  0.00    +0.000 A 
ATOM     25  C   UNL     1      -3.051   3.022   1.232  0.00  0.00    +0.002 A 
ATOM     26  C   UNL     1      -1.844   2.352   1.226  0.00  0.00    +0.026 A 
ATOM     27  C   UNL     1      -1.241   2.021   0.019  0.00  0.00    +0.055 A 
ENDBRANCH   1  27
BRANCH   6  28
ATOM     28  C   UNL     1       1.154  -2.082  -0.020  0.00  0.00    +0.055 A 
ATOM     29  C   UNL     1       1.137  -2.771  -1.225  0.00  0.00    +0.026 A 
ATOM     30  C   UNL     1       1.127  -4.152  -1.229  0.00  0.00    +0.002 A 
ATOM     31  C   UNL     1       1.133  -4.848  -0.034  0.00  0.00    +0.000 A 
ATOM     32  C   UNL     1       1.150  -4.165   1.167  0.00  0.00    +0.005 A 
ATOM     33  C   UNL     1       1.165  -2.784   1.178  0.00  0.00    -0.026 A 
ATOM     34  C   UNL     1       1.189  -2.039   2.488  0.00  0.00    +0.046 C 
ENDBRANCH   6  28
BRANCH   2  35
ATOM     35  O   UNL     1       1.137   3.403   0.010  0.00  0.00    -0.493 OA
ATOM     36  H   UNL     1       0.247   3.782   0.021  0.00  0.00    +0.294 HD
ENDBRANCH   2  35
TORSDOF 5
