REMARK  Name = ZINC20900701
REMARK  5 active torsions:
REMARK  status: ('A' for Active; 'I' for Inactive)
REMARK    1  A    between atoms: C_1  and  C_2
REMARK    2  A    between atoms: C_21  and  C_22
REMARK    3  A    between atoms: N_24  and  C_25
REMARK    4  A    between atoms: C_25  and  C_26
REMARK    5  A    between atoms: C_26  and  C_27
REMARK                            x       y       z     vdW  Elec       q    Type
REMARK                         _______ _______ _______ _____ _____    ______ ____
ROOT
ATOM      1  C   UNL     1      -3.759   3.872   0.027  0.00  0.00    +0.048 C 
ATOM      2  C   UNL     1      -2.333   4.360   0.031  0.00  0.00    +0.008 A 
ATOM      3  C   UNL     1      -1.874   5.614   0.499  0.00  0.00    +0.038 A 
ATOM      4  C   UNL     1      -0.484   5.627   0.300  0.00  0.00    +0.137 A 
ATOM      5  C   UNL     1       0.249   6.753   0.666  0.00  0.00    +0.050 A 
ATOM      6  C   UNL     1      -0.369   7.843   1.234  0.00  0.00    +0.050 A 
ATOM      7  C   UNL     1      -1.747   7.853   1.453  0.00  0.00    +0.133 A 
ATOM      8  C   UNL     1      -2.506   6.740   1.069  0.00  0.00    +0.070 A 
ATOM      9  C   UNL     1      -3.954   6.779   1.272  0.00  0.00    +0.171 C 
ATOM     10  O   UNL     1      -4.668   5.926   0.786  0.00  0.00    -0.292 OA
ATOM     11  C   UNL     1      -4.543   7.892   2.092  0.00  0.00    +0.127 C 
ATOM     12  C   UNL     1      -3.727   9.181   1.928  0.00  0.00    +0.118 C 
ATOM     13  O   UNL     1      -2.330   8.915   2.033  0.00  0.00    -0.485 OA
ATOM     14  C   UNL     1      -4.090  10.079   3.144  0.00  0.00    +0.048 C 
ATOM     15  C   UNL     1      -3.046  11.139   3.321  0.00  0.00    +0.004 C 
ATOM     16  C   UNL     1      -3.405  12.468   2.620  0.00  0.00    +0.000 C 
ATOM     17  C   UNL     1      -4.009  12.256   1.220  0.00  0.00    +0.000 C 
ATOM     18  C   UNL     1      -3.288  11.170   0.465  0.00  0.00    +0.004 C 
ATOM     19  C   UNL     1      -4.053   9.855   0.672  0.00  0.00    +0.048 C 
ATOM     20  O   UNL     1      -0.143   4.445  -0.252  0.00  0.00    -0.450 OA
ATOM     21  C   UNL     1      -1.243   3.680  -0.410  0.00  0.00    +0.193 A 
ENDROOT
BRANCH  21  22
ATOM     22  C   UNL     1      -1.261   2.323  -0.979  0.00  0.00    +0.280 C 
ATOM     23  O   UNL     1      -2.312   1.718  -1.079  0.00  0.00    -0.267 OA
ATOM     24  N   UNL     1      -0.113   1.750  -1.391  0.00  0.00    -0.309 N 
ATOM     25  H   UNL     1       0.838   2.296  -1.301  0.00  0.00    +0.149 HD
BRANCH  24  26
ATOM     26  C   UNL     1      -0.130   0.399  -1.957  0.00  0.00    +0.109 C 
BRANCH  26  27
ATOM     27  C   UNL     1       1.292  -0.009  -2.347  0.00  0.00    +0.049 C 
BRANCH  27  28
ATOM     28  C   UNL     1       1.274  -1.399  -2.930  0.00  0.00    -0.072 C 
ATOM     29  C   UNL     1       1.206  -1.517  -4.217  0.00  0.00    -0.028 C 
ATOM     30  C   UNL     1       1.170  -2.831  -4.941  0.00  0.00    +0.027 C 
ATOM     31  C   UNL     1       1.645  -3.954  -4.016  0.00  0.00    +0.004 C 
ATOM     32  C   UNL     1       0.887  -3.842  -2.687  0.00  0.00    +0.005 C 
ATOM     33  C   UNL     1       1.342  -2.561  -1.982  0.00  0.00    +0.030 C 
ENDBRANCH  27  28
ENDBRANCH  26  27
ENDBRANCH  24  26
ENDBRANCH  21  22
TORSDOF 4
