REMARK  Name = ZINC33768491
REMARK  6 active torsions:
REMARK  status: ('A' for Active; 'I' for Inactive)
REMARK    1  A    between atoms: C_1  and  C_2
REMARK    2  A    between atoms: C_5  and  C_22
REMARK    3  A    between atoms: C_6  and  C_7
REMARK    4  A    between atoms: C_6  and  C_8
REMARK    5  A    between atoms: C_15  and  N_19
REMARK    6  A    between atoms: N_24  and  C_25
REMARK                            x       y       z     vdW  Elec       q    Type
REMARK                         _______ _______ _______ _____ _____    ______ ____
ROOT
ATOM      1  C   UNL     1      -0.034   1.526   0.019  0.00  0.00    +0.018 C 
ATOM      2  C   UNL     1      -0.011  -0.004   0.009  0.00  0.00    +0.018 C 
ATOM      3  C   UNL     1       0.721  -0.675  -1.195  0.00  0.00    +0.015 C 
ATOM      4  C   UNL     1       0.988  -2.122  -0.715  0.00  0.00    +0.024 C 
ATOM      5  C   UNL     1       0.387  -2.161   0.725  0.00  0.00    +0.097 C 
ATOM      6  C   UNL     1       0.723  -0.704   1.211  0.00  0.00    -0.005 C 
ATOM      7  C   UNL     1       0.087  -0.360   2.560  0.00  0.00    +0.013 C 
ATOM      8  C   UNL     1       2.230  -0.441   1.204  0.00  0.00    +0.013 C 
ATOM      9  C   UNL     1      -1.123  -2.028   0.509  0.00  0.00    +0.079 A 
ATOM     10  C   UNL     1      -1.372  -0.701   0.086  0.00  0.00    +0.071 A 
ATOM     11  N   UNL     1      -2.583  -0.285  -0.176  0.00  0.00    -0.248 NA
ATOM     12  C   UNL     1      -3.616  -1.123  -0.018  0.00  0.00    +0.090 A 
ATOM     13  C   UNL     1      -4.932  -0.709  -0.289  0.00  0.00    +0.032 A 
ATOM     14  C   UNL     1      -5.963  -1.581  -0.117  0.00  0.00    +0.035 A 
ATOM     15  C   UNL     1      -5.734  -2.883   0.326  0.00  0.00    +0.128 A 
ATOM     16  C   UNL     1      -4.474  -3.319   0.597  0.00  0.00    +0.062 A 
ATOM     17  C   UNL     1      -3.384  -2.447   0.431  0.00  0.00    +0.092 A 
ATOM     18  N   UNL     1      -2.106  -2.877   0.658  0.00  0.00    -0.247 NA
ENDROOT
BRANCH   5  19
ATOM     19  C   UNL     1       0.851  -3.290   1.609  0.00  0.00    +0.230 C 
ATOM     20  O   UNL     1       1.435  -3.048   2.645  0.00  0.00    -0.274 OA
ATOM     21  N   UNL     1       0.618  -4.567   1.249  0.00  0.00    -0.285 N 
ATOM     22  H   UNL     1       0.093  -4.760   0.457  0.00  0.00    +0.155 HD
BRANCH  21  23
ATOM     23  C   UNL     1       1.133  -5.617   2.020  0.00  0.00    +0.033 A 
ATOM     24  C   UNL     1       1.564  -6.784   1.404  0.00  0.00    +0.024 A 
ATOM     25  C   UNL     1       2.072  -7.818   2.167  0.00  0.00    +0.017 A 
ATOM     26  C   UNL     1       2.151  -7.691   3.542  0.00  0.00    +0.018 A 
ATOM     27  C   UNL     1       1.722  -6.528   4.158  0.00  0.00    +0.017 A 
ATOM     28  C   UNL     1       1.218  -5.489   3.400  0.00  0.00    +0.024 A 
ATOM     29 BR   UNL     1       2.847  -9.108   4.583  0.00  0.00    -0.050 Br
ENDBRANCH  21  23
ENDBRANCH   5  19
BRANCH  15  30
ATOM     30  N   UNL     1      -6.878  -3.805   0.503  0.00  0.00    +0.056 N 
ATOM     31  O   UNL     1      -8.002  -3.426   0.265  0.00  0.00    -0.126 OA
ATOM     32  O   UNL     1      -6.690  -4.936   0.887  0.00  0.00    -0.126 OA
ENDBRANCH  15  30
TORSDOF 3
