REMARK  Name = ZINC06614173
REMARK  5 active torsions:
REMARK  status: ('A' for Active; 'I' for Inactive)
REMARK    1  A    between atoms: C_1  and  C_2
REMARK    2  A    between atoms: C_2  and  C_4
REMARK    3  A    between atoms: C_4  and  O_6
REMARK    4  A    between atoms: O_6  and  C_7
REMARK    5  A    between atoms: C_16  and  O_30
REMARK                            x       y       z     vdW  Elec       q    Type
REMARK                         _______ _______ _______ _____ _____    ______ ____
ROOT
ATOM      1  C   UNL     1       2.328  -4.034  -3.575  0.00  0.00    +0.135 A 
ATOM      2  C   UNL     1       1.167  -3.274  -3.586  0.00  0.00    +0.047 A 
ATOM      3  C   UNL     1       0.724  -2.676  -2.424  0.00  0.00    +0.015 A 
ATOM      4  C   UNL     1       1.434  -2.830  -1.245  0.00  0.00    +0.047 A 
ATOM      5  C   UNL     1       2.595  -3.586  -1.229  0.00  0.00    +0.140 A 
ATOM      6  C   UNL     1       3.042  -4.189  -2.398  0.00  0.00    +0.093 A 
ATOM      7  O   UNL     1       3.307  -3.747  -0.088  0.00  0.00    -0.455 OA
ATOM      8  C   UNL     1       2.720  -3.541   1.116  0.00  0.00    +0.140 A 
ATOM      9  C   UNL     1       3.290  -4.101   2.253  0.00  0.00    +0.092 A 
ATOM     10  C   UNL     1       2.706  -3.899   3.493  0.00  0.00    +0.120 A 
ATOM     11  C   UNL     1       1.551  -3.138   3.598  0.00  0.00    +0.046 A 
ATOM     12  C   UNL     1       0.985  -2.583   2.468  0.00  0.00    +0.015 A 
ATOM     13  C   UNL     1       1.566  -2.783   1.227  0.00  0.00    +0.047 A 
ATOM     14  C   UNL     1       0.929  -2.169   0.009  0.00  0.00    +0.196 C 
ATOM     15  C   UNL     1       1.193  -0.697  -0.033  0.00  0.00    +0.019 A 
ATOM     16  C   UNL     1       2.363   0.026  -0.109  0.00  0.00    +0.009 A 
ATOM     17  C   UNL     1       2.248   1.413  -0.129  0.00  0.00    +0.000 A 
ATOM     18  C   UNL     1       1.019   2.042  -0.075  0.00  0.00    +0.001 A 
ATOM     19  C   UNL     1      -0.167   1.328   0.002  0.00  0.00    +0.015 A 
ATOM     20  C   UNL     1      -0.064  -0.066   0.023  0.00  0.00    +0.067 A 
ATOM     21  C   UNL     1      -1.092  -1.103   0.098  0.00  0.00    +0.341 C 
ATOM     22  O   UNL     1      -2.287  -0.896   0.158  0.00  0.00    -0.245 OA
ATOM     23  O   UNL     1      -0.519  -2.323   0.090  0.00  0.00    -0.440 OA
ENDROOT
BRANCH  10  24
ATOM     24  O   UNL     1       3.264  -4.447   4.604  0.00  0.00    -0.507 OA
ATOM     25  H   UNL     1       3.915  -3.878   5.038  0.00  0.00    +0.292 HD
ENDBRANCH  10  24
BRANCH   1  26
ATOM     26  O   UNL     1       2.765  -4.626  -4.718  0.00  0.00    -0.422 OA
BRANCH  26  27
ATOM     27  C   UNL     1       2.696  -5.971  -4.777  0.00  0.00    +0.340 C 
ATOM     28  O   UNL     1       2.162  -6.591  -3.878  0.00  0.00    -0.245 OA
BRANCH  27  30
ATOM     29  C   UNL     1       3.928  -5.918  -7.040  0.00  0.00    +0.050 C 
ATOM     30  C   UNL     1       3.265  -6.687  -5.926  0.00  0.00    +0.027 C 
ATOM     31  C   UNL     1       3.197  -8.015  -5.984  0.00  0.00    +0.019 C 
ENDBRANCH  27  30
ENDBRANCH  26  27
ENDBRANCH   1  26
TORSDOF 4
