REMARK  Name = ZINC41584577
REMARK  6 active torsions:
REMARK  status: ('A' for Active; 'I' for Inactive)
REMARK    1  A    between atoms: C_1  and  C_2
REMARK    2  A    between atoms: C_4  and  O_34
REMARK    3  A    between atoms: C_5  and  C_20
REMARK    4  A    between atoms: C_11  and  C_12
REMARK    5  A    between atoms: C_20  and  N_21
REMARK    6  A    between atoms: C_26  and  C_28
REMARK                            x       y       z     vdW  Elec       q    Type
REMARK                         _______ _______ _______ _____ _____    ______ ____
ROOT
ATOM      1  C   UNL     1       1.921   0.644   1.714  0.00  0.00    +0.045 C 
ATOM      2  C   UNL     1       1.383  -0.739   1.450  0.00  0.00    -0.033 A 
ATOM      3  C   UNL     1       0.738  -1.009   0.276  0.00  0.00    +0.050 A 
ATOM      4  C   UNL     1       0.240  -2.286   0.029  0.00  0.00    +0.122 A 
ATOM      5  C   UNL     1       0.392  -3.295   0.967  0.00  0.00    +0.020 A 
ATOM      6  C   UNL     1       1.045  -3.037   2.165  0.00  0.00    +0.145 A 
ATOM      7  C   UNL     1       1.548  -1.747   2.401  0.00  0.00    +0.071 A 
ATOM      8  C   UNL     1       2.183  -1.784   3.730  0.00  0.00    +0.232 C 
ATOM      9  O   UNL     1       2.739  -0.872   4.317  0.00  0.00    -0.283 OA
ATOM     10  C   UNL     1       1.997  -3.170   4.189  0.00  0.00    +0.176 C 
ATOM     11  C   UNL     1       2.419  -3.687   5.370  0.00  0.00    +0.059 C 
ATOM     12  O   UNL     1       1.318  -3.832   3.223  0.00  0.00    -0.451 OA
ENDROOT
BRANCH  11  13
ATOM     13  C   UNL     1       2.289  -5.127   5.630  0.00  0.00    -0.007 A 
ATOM     14  C   UNL     1       2.071  -6.017   4.571  0.00  0.00    +0.009 A 
ATOM     15  C   UNL     1       1.950  -7.366   4.823  0.00  0.00    +0.001 A 
ATOM     16  C   UNL     1       2.043  -7.843   6.120  0.00  0.00    +0.001 A 
ATOM     17  C   UNL     1       2.257  -6.972   7.173  0.00  0.00    +0.016 A 
ATOM     18  C   UNL     1       2.388  -5.618   6.937  0.00  0.00    +0.025 A 
ATOM     19 BR   UNL     1       2.690  -4.430   8.377  0.00  0.00    -0.050 Br
ENDBRANCH  11  13
BRANCH   4  20
ATOM     20  O   UNL     1      -0.400  -2.544  -1.139  0.00  0.00    -0.506 OA
ATOM     21  H   UNL     1       0.183  -2.847  -1.849  0.00  0.00    +0.292 HD
ENDBRANCH   4  20
BRANCH   5  22
ATOM     22  C   UNL     1      -0.152  -4.672   0.687  0.00  0.00    -0.035 C 
BRANCH  22  23
ATOM     23  N   UNL     1      -1.584  -4.708   1.012  0.00  0.00    +0.387 N 
ATOM     24  C   UNL     1      -1.765  -4.468   2.449  0.00  0.00    -0.078 C 
ATOM     25  C   UNL     1      -3.258  -4.424   2.779  0.00  0.00    -0.019 C 
ATOM     26  C   UNL     1      -3.899  -5.762   2.398  0.00  0.00    -0.003 C 
ATOM     27  C   UNL     1      -3.641  -6.037   0.914  0.00  0.00    -0.011 C 
ATOM     28  C   UNL     1      -2.133  -6.021   0.653  0.00  0.00    -0.036 C 
ATOM     29  H   UNL     1      -2.065  -3.990   0.490  0.00  0.00    -0.080 HD
BRANCH  28  30
ATOM     30  C   UNL     1      -1.874  -6.292  -0.806  0.00  0.00    -0.043 A 
ATOM     31  C   UNL     1      -1.361  -7.515  -1.213  0.00  0.00    +0.005 A 
ATOM     32  C   UNL     1      -1.138  -7.719  -2.566  0.00  0.00    +0.020 A 
ATOM     33  C   UNL     1      -1.433  -6.705  -3.458  0.00  0.00    +0.111 A 
ATOM     34  N   UNL     1      -1.919  -5.555  -3.035  0.00  0.00    -0.263 NA
ATOM     35  C   UNL     1      -2.149  -5.328  -1.756  0.00  0.00    +0.112 A 
ENDBRANCH  28  30
ENDBRANCH  22  23
ENDBRANCH   5  22
TORSDOF 5
