REMARK  Name = ZINC16677211
REMARK  11 active torsions:
REMARK  status: ('A' for Active; 'I' for Inactive)
REMARK    1  A    between atoms: C_1  and  C_2
REMARK    2  A    between atoms: C_17  and  C_31
REMARK    3  A    between atoms: C_22  and  C_23
REMARK    4  A    between atoms: C_22  and  O_30
REMARK    5  A    between atoms: C_23  and  N_71
REMARK    6  A    between atoms: C_24  and  C_25
REMARK    7  A    between atoms: C_24  and  N_71
REMARK    8  A    between atoms: C_25  and  O_26
REMARK    9  A    between atoms: C_27  and  C_28
REMARK   10  A    between atoms: C_27  and  N_71
REMARK   11  A    between atoms: C_28  and  O_29
REMARK                            x       y       z     vdW  Elec       q    Type
REMARK                         _______ _______ _______ _____ _____    ______ ____
ROOT
ATOM      1  C   UNL     1       6.818   2.612  -2.672  0.00  0.00    +0.012 C 
ATOM      2  C   UNL     1       5.637   2.320  -3.600  0.00  0.00    -0.026 C 
ATOM      3  C   UNL     1       5.473   3.489  -4.566  0.00  0.00    +0.007 C 
ATOM      4  C   UNL     1       6.799   3.701  -5.306  0.00  0.00    +0.001 C 
ATOM      5  C   UNL     1       7.199   2.430  -6.056  0.00  0.00    +0.000 C 
ATOM      6  C   UNL     1       7.324   1.256  -5.075  0.00  0.00    +0.004 C 
ATOM      7  C   UNL     1       5.967   1.059  -4.401  0.00  0.00    -0.005 C 
ATOM      8  C   UNL     1       5.961  -0.137  -3.457  0.00  0.00    +0.004 C 
ATOM      9  C   UNL     1       4.514  -0.415  -3.047  0.00  0.00    +0.004 C 
ATOM     10  C   UNL     1       3.652   0.839  -3.205  0.00  0.00    -0.004 C 
ATOM     11  C   UNL     1       4.394   2.088  -2.751  0.00  0.00    -0.001 C 
ATOM     12  C   UNL     1       3.468   3.303  -2.902  0.00  0.00    +0.005 C 
ATOM     13  C   UNL     1       2.245   3.126  -2.004  0.00  0.00    +0.010 C 
ATOM     14  C   UNL     1       1.449   1.891  -2.437  0.00  0.00    -0.002 C 
ATOM     15  C   UNL     1       2.348   0.645  -2.466  0.00  0.00    +0.001 C 
ATOM     16  C   UNL     1       2.558   0.315  -0.977  0.00  0.00    +0.007 C 
ATOM     17  C   UNL     1       1.173   0.594  -0.347  0.00  0.00    +0.034 C 
ATOM     18  C   UNL     1       0.453   1.578  -1.288  0.00  0.00    +0.057 C 
ATOM     19  C   UNL     1       0.735   2.112  -3.772  0.00  0.00    +0.014 C 
ENDROOT
BRANCH  18  20
ATOM     20  O   UNL     1      -0.732   0.977  -1.815  0.00  0.00    -0.390 OA
ATOM     21  H   UNL     1      -1.279   0.537  -1.151  0.00  0.00    +0.210 HD
ENDBRANCH  18  20
BRANCH  18  22
ATOM     22  C   UNL     1       0.099   2.862  -0.535  0.00  0.00    -0.043 C 
BRANCH  22  23
ATOM     23  N   UNL     1      -1.108   2.661   0.293  0.00  0.00    +0.384 N 
ATOM     24  H   UNL     1      -1.306   3.527   0.809  0.00  0.00    -0.082 HD
BRANCH  23  25
ATOM     25  C   UNL     1      -2.265   2.341  -0.570  0.00  0.00    -0.050 C 
BRANCH  25  26
ATOM     26  C   UNL     1      -3.454   3.195  -0.123  0.00  0.00    +0.137 C 
BRANCH  26  27
ATOM     27  O   UNL     1      -3.161   4.575  -0.350  0.00  0.00    -0.397 OA
ATOM     28  H   UNL     1      -3.872   5.176  -0.088  0.00  0.00    +0.209 HD
ENDBRANCH  26  27
ENDBRANCH  25  26
ENDBRANCH  23  25
BRANCH  23  29
ATOM     29  C   UNL     1      -0.882   1.567   1.260  0.00  0.00    -0.050 C 
BRANCH  29  30
ATOM     30  C   UNL     1       0.152   2.025   2.290  0.00  0.00    +0.137 C 
BRANCH  30  31
ATOM     31  O   UNL     1      -0.384   3.108   3.054  0.00  0.00    -0.397 OA
ATOM     32  H   UNL     1       0.219   3.450   3.728  0.00  0.00    +0.209 HD
ENDBRANCH  30  31
ENDBRANCH  29  30
ENDBRANCH  23  29
ENDBRANCH  22  23
ENDBRANCH  18  22
TORSDOF 9
