REMARK  Name = ZINC64600369
REMARK  7 active torsions:
REMARK  status: ('A' for Active; 'I' for Inactive)
REMARK    1  A    between atoms: C_1  and  C_2
REMARK    2  A    between atoms: C_2  and  O_3
REMARK    3  A    between atoms: O_3  and  C_4
REMARK    4  A    between atoms: C_7  and  N_10
REMARK    5  A    between atoms: C_14  and  C_15
REMARK    6  A    between atoms: C_18  and  S_20
REMARK    7  A    between atoms: S_20  and  C_21
REMARK                            x       y       z     vdW  Elec       q    Type
REMARK                         _______ _______ _______ _____ _____    ______ ____
ROOT
ATOM      1  N   UNL     1       1.180  -5.947  -1.810  0.00  0.00    -0.188 N 
ATOM      2  C   UNL     1       1.650  -6.436  -2.975  0.00  0.00    +0.264 C 
ATOM      3  O   UNL     1       1.922  -5.691  -3.899  0.00  0.00    -0.269 OA
ATOM      4  C   UNL     1       1.821  -7.844  -3.101  0.00  0.00    +0.105 C 
ATOM      5  C   UNL     1       2.304  -8.413  -4.284  0.00  0.00    +0.064 C 
ATOM      6  C   UNL     1       1.470  -8.678  -1.940  0.00  0.00    +0.277 C 
ATOM      7  N   UNL     1       1.011  -8.074  -0.831  0.00  0.00    -0.123 NA
ATOM      8  C   UNL     1       0.878  -6.771  -0.769  0.00  0.00    +0.340 C 
ATOM      9  O   UNL     1       0.418  -6.223   0.373  0.00  0.00    -0.250 OA
ATOM     10  O   UNL     1       1.593  -9.891  -1.984  0.00  0.00    -0.268 OA
ENDROOT
BRANCH   1  14
ATOM     11  C   UNL     1       0.657  -1.831  -1.381  0.00  0.00    +0.121 A 
ATOM     12  C   UNL     1       1.656  -2.481  -0.670  0.00  0.00    +0.047 A 
ATOM     13  C   UNL     1       1.830  -3.844  -0.812  0.00  0.00    +0.027 A 
ATOM     14  C   UNL     1       1.004  -4.563  -1.665  0.00  0.00    +0.046 A 
ATOM     15  C   UNL     1       0.004  -3.912  -2.375  0.00  0.00    +0.027 A 
ATOM     16  C   UNL     1      -0.172  -2.551  -2.229  0.00  0.00    +0.047 A 
BRANCH  11  17
ATOM     17  O   UNL     1       0.487  -0.490  -1.240  0.00  0.00    -0.492 OA
BRANCH  17  19
ATOM     18  C   UNL     1       1.033   1.679  -0.324  0.00  0.00    +0.048 C 
ATOM     19  C   UNL     1       1.376   0.188  -0.350  0.00  0.00    +0.225 C 
ENDBRANCH  17  19
ENDBRANCH  11  17
ENDBRANCH   1  14
BRANCH   5  20
ATOM     20  C   UNL     1       2.294  -9.797  -4.446  0.00  0.00    +0.130 A 
ATOM     21  C   UNL     1       3.288 -10.557  -5.062  0.00  0.00    +0.050 A 
ATOM     22  C   UNL     1       2.874 -11.880  -5.003  0.00  0.00    +0.057 A 
ATOM     23  C   UNL     1       1.650 -11.897  -4.360  0.00  0.00    +0.165 A 
ATOM     24  O   UNL     1       1.321 -10.639  -4.028  0.00  0.00    -0.449 OA
BRANCH  23  25
ATOM     25  S   UNL     1       0.685 -13.333  -4.024  0.00  0.00    -0.042 S 
BRANCH  25  26
ATOM     26  C   UNL     1      -0.477 -13.415  -5.415  0.00  0.00    +0.243 C 
ATOM     27  N   UNL     1       0.257 -13.576  -6.676  0.00  0.00    -0.355 N 
ATOM     28  C   UNL     1      -0.021 -12.547  -7.423  0.00  0.00    +0.061 A 
ATOM     29  C   UNL     1       0.403 -12.149  -8.773  0.00  0.00    +0.027 A 
ATOM     30  C   UNL     1      -0.059 -10.999  -9.303  0.00  0.00    +0.002 A 
ATOM     31  C   UNL     1      -0.943 -10.148  -8.615  0.00  0.00    +0.002 A 
ATOM     32  C   UNL     1      -1.394 -10.419  -7.374  0.00  0.00    +0.027 A 
ATOM     33  C   UNL     1      -0.956 -11.647  -6.695  0.00  0.00    +0.061 A 
ATOM     34  N   UNL     1      -1.220 -12.154  -5.526  0.00  0.00    -0.355 N 
ATOM     35  H   UNL     1       0.842 -14.314  -6.910  0.00  0.00    +0.162 HD
ATOM     36  H   UNL     1      -1.802 -11.770  -4.852  0.00  0.00    +0.162 HD
ENDBRANCH  25  26
ENDBRANCH  23  25
ENDBRANCH   5  20
TORSDOF 6
