REMARK  Name = ZINC09309070
REMARK  10 active torsions:
REMARK  status: ('A' for Active; 'I' for Inactive)
REMARK    1  A    between atoms: C_1  and  C_2
REMARK    2  A    between atoms: C_2  and  O_3
REMARK    3  A    between atoms: O_3  and  C_4
REMARK    4  A    between atoms: C_7  and  C_10
REMARK    5  A    between atoms: C_12  and  C_22
REMARK    6  A    between atoms: N_14  and  C_16
REMARK    7  A    between atoms: C_23  and  C_24
REMARK    8  A    between atoms: C_25  and  C_38
REMARK    9  A    between atoms: C_25  and  C_39
REMARK   10  A    between atoms: C_35  and  O_37
REMARK                            x       y       z     vdW  Elec       q    Type
REMARK                         _______ _______ _______ _____ _____    ______ ____
ROOT
ATOM      1  C   UNL     1       1.144  -6.059   1.764  0.00  0.00    +0.134 C 
ATOM      2  C   UNL     1       2.530  -6.524   1.370  0.00  0.00    -0.009 C 
ATOM      3  C   UNL     1       3.070  -7.079   2.463  0.00  0.00    +0.099 C 
ATOM      4  N   UNL     1       2.203  -7.034   3.529  0.00  0.00    -0.242 N 
ATOM      5  N   UNL     1       1.022  -6.436   3.186  0.00  0.00    -0.224 NA
ATOM      6  H   UNL     1       0.846  -5.626   3.761  0.00  0.00    +0.146 HD
ENDROOT
BRANCH   1  10
ATOM      7  C   UNL     1       0.802  -1.824   1.306  0.00  0.00    +0.121 A 
ATOM      8  C   UNL     1       0.260  -2.673   0.351  0.00  0.00    +0.046 A 
ATOM      9  C   UNL     1       0.372  -4.041   0.502  0.00  0.00    +0.009 A 
ATOM     10  C   UNL     1       1.024  -4.566   1.603  0.00  0.00    -0.024 A 
ATOM     11  C   UNL     1       1.565  -3.722   2.555  0.00  0.00    +0.009 A 
ATOM     12  C   UNL     1       1.460  -2.353   2.406  0.00  0.00    +0.046 A 
BRANCH   7  13
ATOM     13  O   UNL     1       0.693  -0.477   1.160  0.00  0.00    -0.492 OA
BRANCH  13  15
ATOM     14  C   UNL     1      -0.019   1.526   0.010  0.00  0.00    +0.048 C 
ATOM     15  C   UNL     1       0.002  -0.004   0.002  0.00  0.00    +0.225 C 
ENDBRANCH  13  15
ENDBRANCH   7  13
ENDBRANCH   1  10
BRANCH   4  16
ATOM     16  C   UNL     1       2.491  -7.537   4.800  0.00  0.00    +0.049 A 
ATOM     17  C   UNL     1       1.546  -7.450   5.814  0.00  0.00    +0.025 A 
ATOM     18  C   UNL     1       1.834  -7.948   7.069  0.00  0.00    +0.002 A 
ATOM     19  C   UNL     1       3.062  -8.533   7.317  0.00  0.00    +0.000 A 
ATOM     20  C   UNL     1       4.006  -8.621   6.310  0.00  0.00    +0.002 A 
ATOM     21  C   UNL     1       3.722  -8.130   5.051  0.00  0.00    +0.025 A 
ENDBRANCH   4  16
BRANCH   2  22
ATOM     22  C   UNL     1       3.159  -6.393   0.051  0.00  0.00    +0.006 C 
ATOM     23  C   UNL     1       2.495  -5.814  -0.948  0.00  0.00    +0.024 C 
BRANCH  23  24
ATOM     24  C   UNL     1       3.140  -5.679  -2.303  0.00  0.00    +0.159 C 
ATOM     25  C   UNL     1       2.355  -6.478  -3.352  0.00  0.00    +0.037 C 
ATOM     26  C   UNL     1       3.255  -7.635  -3.683  0.00  0.00    -0.016 A 
ATOM     27  C   UNL     1       3.017  -8.726  -4.498  0.00  0.00    +0.006 A 
ATOM     28  C   UNL     1       4.033  -9.666  -4.615  0.00  0.00    +0.000 A 
ATOM     29  C   UNL     1       5.230  -9.516  -3.944  0.00  0.00    +0.002 A 
ATOM     30  C   UNL     1       5.481  -8.424  -3.130  0.00  0.00    +0.023 A 
ATOM     31  C   UNL     1       4.469  -7.466  -3.008  0.00  0.00    +0.036 A 
ATOM     32  N   UNL     1       4.486  -6.287  -2.297  0.00  0.00    -0.301 N 
ATOM     33  C   UNL     1       5.623  -5.603  -1.660  0.00  0.00    +0.117 C 
ATOM     34  C   UNL     1       5.750  -4.241  -2.359  0.00  0.00    +0.114 C 
ATOM     35  C   UNL     1       4.406  -3.667  -2.679  0.00  0.00    +0.186 C 
ATOM     36  N   UNL     1       3.289  -4.274  -2.657  0.00  0.00    -0.224 NA
ATOM     37  C   UNL     1       1.034  -6.978  -2.765  0.00  0.00    +0.020 C 
ATOM     38  C   UNL     1       2.102  -5.624  -4.596  0.00  0.00    +0.020 C 
BRANCH  35  39
ATOM     39  O   UNL     1       4.374  -2.359  -3.009  0.00  0.00    -0.496 OA
ATOM     40  H   UNL     1       3.489  -2.025  -3.209  0.00  0.00    +0.293 HD
ENDBRANCH  35  39
ENDBRANCH  23  24
ENDBRANCH   2  22
TORSDOF 7
