REMARK  Name = ZINC54591911
REMARK  8 active torsions:
REMARK  status: ('A' for Active; 'I' for Inactive)
REMARK    1  A    between atoms: C_1  and  C_2
REMARK    2  A    between atoms: C_2  and  O_38
REMARK    3  A    between atoms: C_6  and  C_29
REMARK    4  A    between atoms: C_7  and  C_20
REMARK    5  A    between atoms: C_9  and  C_11
REMARK    6  A    between atoms: N_13  and  C_14
REMARK    7  A    between atoms: C_25  and  N_26
REMARK    8  A    between atoms: N_31  and  C_32
REMARK                            x       y       z     vdW  Elec       q    Type
REMARK                         _______ _______ _______ _____ _____    ______ ____
ROOT
ATOM      1  C   UNL     1      -0.915   2.736  -2.376  0.00  0.00    +0.042 C 
ATOM      2  C   UNL     1      -1.709   1.439  -2.209  0.00  0.00    +0.082 C 
ATOM      3  C   UNL     1      -2.985   1.717  -1.412  0.00  0.00    +0.114 C 
ATOM      4  C   UNL     1      -3.644   0.424  -1.026  0.00  0.00    +0.168 C 
ATOM      5  O   UNL     1      -4.935   0.458  -0.638  0.00  0.00    -0.292 OA
ATOM      6  C   UNL     1      -3.024  -0.753  -1.046  0.00  0.00    +0.065 C 
ATOM      7  C   UNL     1      -1.593  -0.931  -1.465  0.00  0.00    +0.074 C 
ATOM      8  C   UNL     1      -0.866   0.415  -1.440  0.00  0.00    +0.119 C 
ENDROOT
BRANCH   7   9
ATOM      9  C   UNL     1      -0.910  -1.883  -0.517  0.00  0.00    -0.009 A 
ATOM     10  C   UNL     1      -1.146  -1.793   0.843  0.00  0.00    +0.006 A 
ATOM     11  C   UNL     1      -0.520  -2.666   1.712  0.00  0.00    +0.000 A 
ATOM     12  C   UNL     1       0.343  -3.629   1.222  0.00  0.00    +0.002 A 
ATOM     13  C   UNL     1       0.578  -3.720  -0.137  0.00  0.00    +0.033 A 
ATOM     14  C   UNL     1      -0.052  -2.849  -1.007  0.00  0.00    +0.130 A 
BRANCH  14  15
ATOM     15  N   UNL     1       0.196  -2.949  -2.463  0.00  0.00    +0.057 N 
ATOM     16  O   UNL     1       0.324  -4.034  -2.981  0.00  0.00    -0.126 OA
ATOM     17  O   UNL     1       0.270  -1.946  -3.134  0.00  0.00    -0.126 OA
ENDBRANCH  14  15
ENDBRANCH   7   9
BRANCH   8  18
ATOM     18  C   UNL     1      -0.693   0.870  -0.014  0.00  0.00    +0.224 C 
ATOM     19  O   UNL     1      -1.655   0.939   0.722  0.00  0.00    -0.275 OA
ATOM     20  N   UNL     1       0.530   1.201   0.445  0.00  0.00    -0.285 N 
ATOM     21  H   UNL     1       1.290   1.202  -0.159  0.00  0.00    +0.155 HD
BRANCH  20  22
ATOM     22  C   UNL     1       0.705   1.542   1.790  0.00  0.00    +0.033 A 
ATOM     23  C   UNL     1      -0.029   0.891   2.774  0.00  0.00    +0.023 A 
ATOM     24  C   UNL     1       0.146   1.231   4.101  0.00  0.00    +0.002 A 
ATOM     25  C   UNL     1       1.050   2.217   4.451  0.00  0.00    +0.000 A 
ATOM     26  C   UNL     1       1.781   2.867   3.474  0.00  0.00    +0.002 A 
ATOM     27  C   UNL     1       1.616   2.528   2.146  0.00  0.00    +0.023 A 
ENDBRANCH  20  22
ENDBRANCH   8  18
BRANCH   6  28
ATOM     28  C   UNL     1      -3.754  -1.901  -0.649  0.00  0.00    +0.248 C 
ATOM     29  O   UNL     1      -4.099  -2.721  -1.481  0.00  0.00    -0.270 OA
ATOM     30  N   UNL     1      -4.066  -2.086   0.649  0.00  0.00    -0.282 N 
ATOM     31  H   UNL     1      -3.834  -1.410   1.305  0.00  0.00    +0.155 HD
BRANCH  30  32
ATOM     32  C   UNL     1      -4.725  -3.253   1.050  0.00  0.00    +0.034 A 
ATOM     33  C   UNL     1      -4.421  -4.467   0.447  0.00  0.00    +0.023 A 
ATOM     34  C   UNL     1      -5.073  -5.617   0.846  0.00  0.00    +0.002 A 
ATOM     35  C   UNL     1      -6.028  -5.561   1.844  0.00  0.00    +0.000 A 
ATOM     36  C   UNL     1      -6.334  -4.354   2.446  0.00  0.00    +0.002 A 
ATOM     37  C   UNL     1      -5.681  -3.201   2.057  0.00  0.00    +0.023 A 
ENDBRANCH  30  32
ENDBRANCH   6  28
BRANCH   2  38
ATOM     38  O   UNL     1      -2.046   0.914  -3.495  0.00  0.00    -0.388 OA
ATOM     39  H   UNL     1      -2.585   1.510  -4.034  0.00  0.00    +0.210 HD
ENDBRANCH   2  38
TORSDOF 7
