REMARK  Name = ZINC12051100
REMARK  15 active torsions:
REMARK  status: ('A' for Active; 'I' for Inactive)
REMARK    1  A    between atoms: C_1  and  C_2
REMARK    2  A    between atoms: C_2  and  C_3
REMARK    3  A    between atoms: N_5  and  C_6
REMARK    4  A    between atoms: C_15  and  O_17
REMARK    5  A    between atoms: O_17  and  C_18
REMARK    6  A    between atoms: C_18  and  C_19
REMARK    7  A    between atoms: C_19  and  O_20
REMARK    8  A    between atoms: O_20  and  C_21
REMARK    9  A    between atoms: C_26  and  C_27
REMARK   10  A    between atoms: C_26  and  N_76
REMARK   11  A    between atoms: C_30  and  O_36
REMARK   12  A    between atoms: C_31  and  C_35
REMARK   13  A    between atoms: C_32  and  O_33
REMARK   14  A    between atoms: O_33  and  C_34
REMARK   15  A    between atoms: O_36  and  C_37
REMARK                            x       y       z     vdW  Elec       q    Type
REMARK                         _______ _______ _______ _____ _____    ______ ____
ROOT
ATOM      1  C   UNL     1      -4.413   0.462  -0.739  0.00  0.00    +0.133 C 
ATOM      2  C   UNL     1      -4.811   1.294  -1.939  0.00  0.00    -0.021 A 
ATOM      3  C   UNL     1      -5.394   2.549  -2.007  0.00  0.00    +0.006 A 
ATOM      4  C   UNL     1      -5.672   3.121  -3.233  0.00  0.00    +0.000 A 
ATOM      5  C   UNL     1      -5.369   2.439  -4.397  0.00  0.00    +0.000 A 
ATOM      6  C   UNL     1      -4.788   1.188  -4.332  0.00  0.00    +0.004 A 
ATOM      7  C   UNL     1      -4.507   0.612  -3.104  0.00  0.00    -0.034 A 
ATOM      8  C   UNL     1      -3.884  -0.720  -2.762  0.00  0.00    +0.021 C 
ATOM      9  C   UNL     1      -3.443  -0.606  -1.292  0.00  0.00    +0.153 C 
ATOM     10  C   UNL     1      -4.907  -1.841  -2.915  0.00  0.00    -0.005 C 
ATOM     11  C   UNL     1      -4.242  -3.182  -2.594  0.00  0.00    -0.077 C 
ATOM     12  C   UNL     1      -2.079  -2.352  -3.308  0.00  0.00    -0.077 C 
ATOM     13  C   UNL     1      -2.672  -0.983  -3.652  0.00  0.00    -0.005 C 
ATOM     14  N   UNL     1      -3.111  -3.389  -3.524  0.00  0.00    +0.383 N 
ATOM     15  H   UNL     1      -3.456  -3.319  -4.488  0.00  0.00    -0.081 HD
ENDROOT
BRANCH   1  18
ATOM     16  C   UNL     1      -6.300   0.458   0.802  0.00  0.00    +0.213 C 
ATOM     17  O   UNL     1      -5.961   1.561   1.174  0.00  0.00    -0.276 OA
ATOM     18  N   UNL     1      -5.592  -0.179  -0.151  0.00  0.00    -0.306 N 
ATOM     19  H   UNL     1      -5.863  -1.062  -0.449  0.00  0.00    +0.149 HD
BRANCH  16  21
ATOM     20  C   UNL     1      -8.128   0.727   2.457  0.00  0.00    +0.013 C 
ATOM     21  C   UNL     1      -7.513  -0.201   1.407  0.00  0.00    +0.092 C 
ENDBRANCH  16  21
ENDBRANCH   1  18
BRANCH   9  22
ATOM     22  O   UNL     1      -2.089  -0.158  -1.200  0.00  0.00    -0.371 OA
BRANCH  22  23
ATOM     23  C   UNL     1      -1.433  -0.534   0.013  0.00  0.00    +0.188 C 
BRANCH  23  24
ATOM     24  C   UNL     1       0.002  -0.004   0.002  0.00  0.00    +0.187 C 
BRANCH  24  25
ATOM     25  O   UNL     1      -0.017   1.425   0.010  0.00  0.00    -0.381 OA
ATOM     26  C   UNL     1       1.280   2.024   0.001  0.00  0.00    +0.194 C 
ENDBRANCH  24  25
ENDBRANCH  23  24
ENDBRANCH  22  23
ENDBRANCH   9  22
BRANCH  14  27
ATOM     27  C   UNL     1      -2.528  -4.731  -3.319  0.00  0.00    -0.039 C 
BRANCH  27  28
ATOM     28  C   UNL     1      -3.638  -5.749  -3.273  0.00  0.00    -0.022 A 
ATOM     29  C   UNL     1      -4.069  -6.247  -2.058  0.00  0.00    +0.009 A 
ATOM     30  C   UNL     1      -5.090  -7.176  -2.012  0.00  0.00    +0.046 A 
ATOM     31  C   UNL     1      -5.678  -7.621  -3.188  0.00  0.00    +0.126 A 
ATOM     32  C   UNL     1      -5.244  -7.128  -4.409  0.00  0.00    +0.033 A 
ATOM     33  C   UNL     1      -4.223  -6.191  -4.452  0.00  0.00    +0.128 A 
ATOM     34  C   UNL     1      -5.881  -7.609  -5.687  0.00  0.00    +0.051 C 
BRANCH  33  35
ATOM     35  O   UNL     1      -3.796  -5.705  -5.647  0.00  0.00    -0.495 OA
ATOM     36  C   UNL     1      -2.734  -6.411  -6.292  0.00  0.00    +0.277 C 
ENDBRANCH  33  35
BRANCH  31  37
ATOM     37  O   UNL     1      -6.679  -8.540  -3.143  0.00  0.00    -0.495 OA
ATOM     38  C   UNL     1      -7.075  -9.004  -1.851  0.00  0.00    +0.277 C 
ENDBRANCH  31  37
ENDBRANCH  27  28
ENDBRANCH  14  27
TORSDOF 10
