REMARK  Name = ZINC49504254
REMARK  6 active torsions:
REMARK  status: ('A' for Active; 'I' for Inactive)
REMARK    1  A    between atoms: C_1  and  C_2
REMARK    2  A    between atoms: C_5  and  N_26
REMARK    3  A    between atoms: C_7  and  N_8
REMARK    4  A    between atoms: C_9  and  C_11
REMARK    5  A    between atoms: N_13  and  C_14
REMARK    6  A    between atoms: C_14  and  C_15
REMARK                            x       y       z     vdW  Elec       q    Type
REMARK                         _______ _______ _______ _____ _____    ______ ____
ROOT
ATOM      1  N   UNL     1       0.025  -0.013   2.416  0.00  0.00    -0.277 N 
ATOM      2  C   UNL     1      -0.057  -0.690   3.578  0.00  0.00    +0.303 C 
ATOM      3  O   UNL     1      -0.040  -1.904   3.575  0.00  0.00    -0.265 OA
ATOM      4  H   UNL     1       0.078   0.956   2.422  0.00  0.00    +0.155 HD
ENDROOT
BRANCH   1  11
ATOM      5  C   UNL     1      -1.267   1.183   0.183  0.00  0.00    +0.045 C 
ATOM      6  C   UNL     1      -0.586  -0.158   0.085  0.00  0.00    -0.029 A 
ATOM      7  C   UNL     1      -0.574  -0.840  -1.117  0.00  0.00    +0.007 A 
ATOM      8  C   UNL     1       0.049  -2.069  -1.210  0.00  0.00    +0.025 A 
ATOM      9  C   UNL     1       0.666  -2.625  -0.095  0.00  0.00    +0.053 A 
ATOM     10  C   UNL     1       0.655  -1.943   1.113  0.00  0.00    +0.048 A 
ATOM     11  C   UNL     1       0.033  -0.705   1.202  0.00  0.00    +0.039 A 
BRANCH   9  12
ATOM     12  N   UNL     1       1.295  -3.868  -0.191  0.00  0.00    -0.207 N 
ATOM     13  C   UNL     1       1.532  -4.830   0.901  0.00  0.00    +0.133 C 
ATOM     14  C   UNL     1       1.557  -6.273   0.363  0.00  0.00    +0.045 C 
ATOM     15  C   UNL     1       2.447  -6.213  -0.915  0.00  0.00    +0.190 C 
ATOM     16  S   UNL     1       1.929  -4.576  -1.572  0.00  0.00    +0.046 S 
ATOM     17  O   UNL     1       0.832  -4.714  -2.465  0.00  0.00    -0.155 OA
ATOM     18  O   UNL     1       3.063  -3.791  -1.914  0.00  0.00    -0.155 OA
ENDBRANCH   9  12
ENDBRANCH   1  11
BRANCH   2  19
ATOM     19  C   UNL     1      -0.167   0.052   4.869  0.00  0.00    +0.299 C 
ATOM     20  O   UNL     1      -0.183   1.266   4.872  0.00  0.00    -0.265 OA
ATOM     21  N   UNL     1      -0.248  -0.625   6.031  0.00  0.00    -0.305 N 
ATOM     22  H   UNL     1      -0.235  -1.595   6.029  0.00  0.00    +0.149 HD
BRANCH  21  23
ATOM     23  C   UNL     1      -0.357   0.103   7.298  0.00  0.00    +0.138 C 
BRANCH  23  24
ATOM     24  C   UNL     1      -0.434  -0.895   8.455  0.00  0.00    +0.164 C 
ATOM     25  C   UNL     1      -0.597  -0.162   9.810  0.00  0.00    +0.196 C 
ATOM     26  O   UNL     1      -0.028  -1.091  10.755  0.00  0.00    -0.346 OA
ATOM     27  C   UNL     1       0.843  -1.963  10.022  0.00  0.00    +0.171 C 
ATOM     28  O   UNL     1       0.832  -1.575   8.638  0.00  0.00    -0.342 OA
ATOM     29  C   UNL     1       0.350  -3.406  10.149  0.00  0.00    +0.065 C 
ATOM     30  C   UNL     1       0.366  -3.822  11.621  0.00  0.00    +0.005 C 
ATOM     31  C   UNL     1       1.792  -3.714  12.166  0.00  0.00    +0.000 C 
ATOM     32  C   UNL     1       2.278  -2.269  12.043  0.00  0.00    +0.005 C 
ATOM     33  C   UNL     1       2.265  -1.850  10.572  0.00  0.00    +0.065 C 
ENDBRANCH  23  24
ENDBRANCH  21  23
ENDBRANCH   2  19
TORSDOF 5
