REMARK  Name = ZINC14117418
REMARK  11 active torsions:
REMARK  status: ('A' for Active; 'I' for Inactive)
REMARK    1  A    between atoms: C_1  and  C_2
REMARK    2  A    between atoms: C_7  and  N_8
REMARK    3  A    between atoms: C_9  and  C_11
REMARK    4  A    between atoms: C_11  and  N_12
REMARK    5  A    between atoms: C_13  and  C_15
REMARK    6  A    between atoms: C_15  and  C_17
REMARK    7  A    between atoms: C_15  and  N_18
REMARK    8  A    between atoms: N_18  and  S_19
REMARK    9  A    between atoms: S_19  and  C_22
REMARK   10  A    between atoms: C_25  and  C_28
REMARK   11  A    between atoms: C_28  and  C_30
REMARK                            x       y       z     vdW  Elec       q    Type
REMARK                         _______ _______ _______ _____ _____    ______ ____
ROOT
ATOM      1  N   UNL     1      -0.011   0.967  -0.009  0.00  0.00    -0.305 N 
ATOM      2  C   UNL     1       1.147   1.657  -0.026  0.00  0.00    +0.232 C 
ATOM      3  O   UNL     1       1.130   2.869  -0.028  0.00  0.00    -0.274 OA
ATOM      4  H   UNL     1       0.002  -0.003  -0.008  0.00  0.00    +0.149 HD
ENDROOT
BRANCH   2   5
ATOM      5  C   UNL     1       2.462   0.921  -0.044  0.00  0.00    +0.159 C 
ATOM      6  C   UNL     1       2.537   0.041  -1.294  0.00  0.00    +0.035 C 
BRANCH   5   7
ATOM      7  N   UNL     1       3.562   1.889  -0.061  0.00  0.00    -0.178 NA
ATOM      8  H   UNL     1       3.465   2.725  -0.543  0.00  0.00    +0.149 HD
BRANCH   7   9
ATOM      9  S   UNL     1       4.971   1.554   0.742  0.00  0.00    +0.059 S 
ATOM     10  O   UNL     1       5.838   2.657   0.517  0.00  0.00    -0.153 OA
ATOM     11  O   UNL     1       4.604   1.127   2.046  0.00  0.00    -0.153 OA
BRANCH   9  12
ATOM     12  C   UNL     1       5.707   0.165  -0.054  0.00  0.00    +0.105 A 
ATOM     13  C   UNL     1       5.403  -1.115   0.376  0.00  0.00    +0.029 A 
ATOM     14  C   UNL     1       5.971  -2.208  -0.245  0.00  0.00    +0.013 A 
ATOM     15  C   UNL     1       6.864  -2.019  -1.305  0.00  0.00    +0.017 A 
ATOM     16  C   UNL     1       7.169  -0.723  -1.730  0.00  0.00    +0.013 A 
ATOM     17  C   UNL     1       6.590   0.359  -1.102  0.00  0.00    +0.029 A 
BRANCH  15  18
ATOM     18  C   UNL     1       7.478  -3.180  -1.970  0.00  0.00    +0.160 C 
ATOM     19  O   UNL     1       8.251  -3.013  -2.889  0.00  0.00    -0.292 OA
ATOM     20  C   UNL     1       7.146  -4.575  -1.509  0.00  0.00    +0.091 C 
ENDBRANCH  15  18
ENDBRANCH   9  12
ENDBRANCH   7   9
ENDBRANCH   5   7
ENDBRANCH   2   5
BRANCH   1  21
ATOM     21  C   UNL     1      -1.290   1.682   0.002  0.00  0.00    +0.200 C 
BRANCH  21  23
ATOM     22  N   UNL     1      -3.698   1.118   0.026  0.00  0.00    -0.284 N 
ATOM     23  C   UNL     1      -2.422   0.686   0.014  0.00  0.00    +0.234 C 
ATOM     24  O   UNL     1      -2.183  -0.503   0.013  0.00  0.00    -0.274 OA
ATOM     25  H   UNL     1      -3.889   2.066   0.107  0.00  0.00    +0.155 HD
BRANCH  22  32
ATOM     26  C   UNL     1      -6.229   1.841   1.106  0.00  0.00    +0.046 C 
ATOM     27  C   UNL     1      -6.000   0.511   0.434  0.00  0.00    -0.028 A 
ATOM     28  C   UNL     1      -7.037  -0.395   0.323  0.00  0.00    +0.020 A 
ATOM     29  C   UNL     1      -6.825  -1.618  -0.288  0.00  0.00    +0.018 A 
ATOM     30  C   UNL     1      -5.577  -1.934  -0.796  0.00  0.00    +0.017 A 
ATOM     31  C   UNL     1      -4.539  -1.029  -0.694  0.00  0.00    +0.024 A 
ATOM     32  C   UNL     1      -4.749   0.199  -0.080  0.00  0.00    +0.036 A 
ATOM     33 BR   UNL     1      -8.244  -2.860  -0.430  0.00  0.00    -0.050 Br
ENDBRANCH  22  32
ENDBRANCH  21  23
ENDBRANCH   1  21
TORSDOF 8
