REMARK  Name = ZINC62876105
REMARK  5 active torsions:
REMARK  status: ('A' for Active; 'I' for Inactive)
REMARK    1  A    between atoms: C_1  and  C_2
REMARK    2  A    between atoms: C_2  and  C_4
REMARK    3  A    between atoms: C_2  and  N_9
REMARK    4  A    between atoms: C_16  and  C_18
REMARK    5  A    between atoms: C_16  and  C_19
REMARK                            x       y       z     vdW  Elec       q    Type
REMARK                         _______ _______ _______ _____ _____    ______ ____
ROOT
ATOM      1  N   UNL     1       0.711  -0.485   1.190  0.00  0.00    -0.290 N 
ATOM      2  C   UNL     1       2.054  -0.600   1.174  0.00  0.00    +0.303 C 
ATOM      3  O   UNL     1       2.670  -0.388   0.147  0.00  0.00    -0.253 OA
ATOM      4  N   UNL     1       2.714  -0.949   2.296  0.00  0.00    -0.285 N 
ATOM      5  C   UNL     1       1.978  -1.325   3.511  0.00  0.00    +0.109 C 
ATOM      6  C   UNL     1       2.474  -2.695   3.983  0.00  0.00    +0.020 C 
ATOM      7  C   UNL     1       3.994  -2.651   4.157  0.00  0.00    +0.021 C 
ATOM      8  C   UNL     1       4.654  -2.336   2.813  0.00  0.00    +0.085 C 
ATOM      9  C   UNL     1       4.183  -0.968   2.325  0.00  0.00    +0.127 C 
ATOM     10  C   UNL     1       4.261  -3.402   1.788  0.00  0.00    +0.024 C 
ATOM     11  H   UNL     1       0.213  -0.723   1.988  0.00  0.00    +0.151 HD
ENDROOT
BRANCH   8  12
ATOM     12  C   UNL     1       6.152  -2.325   2.978  0.00  0.00    +0.363 C 
ATOM     13  O   UNL     1       6.870  -2.639   2.044  0.00  0.00    -0.246 OA
ATOM     14  O   UNL     1       6.645  -2.002   4.045  0.00  0.00    -0.246 OA
ENDBRANCH   8  12
BRANCH   1  16
ATOM     15  C   UNL     1      -0.013   1.530   0.008  0.00  0.00    +0.036 C 
ATOM     16  C   UNL     1       0.003   0.000   0.003  0.00  0.00    +0.143 C 
BRANCH  16  17
ATOM     17  C   UNL     1      -1.413  -0.517   0.016  0.00  0.00    +0.197 A 
ATOM     18  N   UNL     1      -2.071  -1.043  -1.006  0.00  0.00    -0.109 NA
ATOM     19  N   UNL     1      -3.249  -1.361  -0.589  0.00  0.00    -0.021 NA
ATOM     20  N   UNL     1      -3.350  -1.052   0.657  0.00  0.00    -0.021 NA
ATOM     21  N   UNL     1      -2.236  -0.537   1.054  0.00  0.00    -0.109 NA
ENDBRANCH  16  17
ENDBRANCH   1  16
TORSDOF 3
