REMARK  Name = ZINC22790156
REMARK  4 active torsions:
REMARK  status: ('A' for Active; 'I' for Inactive)
REMARK    1  A    between atoms: C_5  and  C_13
REMARK    2  A    between atoms: C_13  and  N_14
REMARK    3  A    between atoms: N_17  and  C_20
REMARK    4  A    between atoms: C_20  and  C_21
REMARK                            x       y       z     vdW  Elec       q    Type
REMARK                         _______ _______ _______ _____ _____    ______ ____
ROOT
ATOM      1  N   UNL     1       5.407  -1.911  -3.634  0.00  0.00    +0.385 N 
ATOM      2  C   UNL     1       6.135  -0.831  -2.953  0.00  0.00    -0.063 C 
ATOM      3  C   UNL     1       5.694  -0.765  -1.489  0.00  0.00    +0.066 C 
ATOM      4  N   UNL     1       4.243  -0.539  -1.427  0.00  0.00    -0.301 NA
ATOM      5  C   UNL     1       3.515  -1.619  -2.108  0.00  0.00    +0.066 C 
ATOM      6  C   UNL     1       3.957  -1.685  -3.572  0.00  0.00    -0.063 C 
ATOM      7  H   UNL     1       5.627  -2.852  -3.108  0.00  0.00    -0.081 HD
ENDROOT
BRANCH   1   8
ATOM      8  C   UNL     1       5.859  -2.056  -5.024  0.00  0.00    -0.022 C 
BRANCH   8  13
ATOM      9  C   UNL     1       3.179  -7.331  -6.260  0.00  0.00    +0.020 A 
ATOM     10  C   UNL     1       4.006  -6.461  -5.615  0.00  0.00    +0.048 A 
ATOM     11  C   UNL     1       4.053  -5.117  -6.028  0.00  0.00    +0.140 A 
ATOM     12  N   UNL     1       4.861  -4.265  -5.399  0.00  0.00    -0.236 NA
ATOM     13  C   UNL     1       4.934  -2.993  -5.757  0.00  0.00    +0.032 A 
ATOM     14  C   UNL     1       4.159  -2.522  -6.800  0.00  0.00    +0.092 A 
ATOM     15  C   UNL     1       3.312  -3.413  -7.469  0.00  0.00    +0.258 A 
ATOM     16  O   UNL     1       2.619  -3.029  -8.398  0.00  0.00    -0.267 OA
ATOM     17  N   UNL     1       3.271  -4.701  -7.069  0.00  0.00    -0.267 N 
ATOM     18  C   UNL     1       2.448  -5.579  -7.708  0.00  0.00    +0.111 A 
ATOM     19  C   UNL     1       2.389  -6.875  -7.325  0.00  0.00    +0.035 A 
ATOM     20 BR   UNL     1       1.240  -8.075  -8.228  0.00  0.00    -0.049 Br
ENDBRANCH   8  13
ENDBRANCH   1   8
BRANCH   4  21
ATOM     21  C   UNL     1       3.791  -0.394  -0.037  0.00  0.00    +0.126 C 
BRANCH  21  22
ATOM     22  C   UNL     1       2.360   0.076  -0.020  0.00  0.00    +0.005 A 
ATOM     23  C   UNL     1       1.220  -0.657  -0.013  0.00  0.00    +0.013 A 
ATOM     24  C   UNL     1       0.002  -0.004   0.002  0.00  0.00    +0.023 A 
ATOM     25  C   UNL     1      -0.016   1.352   0.009  0.00  0.00    +0.055 A 
ATOM     26  S   UNL     1       1.725   1.745  -0.005  0.00  0.00    -0.085 S 
ATOM     27 BR   UNL     1      -1.501   2.523   0.023  0.00  0.00    -0.043 Br
ENDBRANCH  21  22
ENDBRANCH   4  21
TORSDOF 4
