REMARK  Name = ZINC34747920
REMARK  10 active torsions:
REMARK  status: ('A' for Active; 'I' for Inactive)
REMARK    1  A    between atoms: C_1  and  C_2
REMARK    2  A    between atoms: C_2  and  N_3
REMARK    3  A    between atoms: N_3  and  C_4
REMARK    4  A    between atoms: C_4  and  C_5
REMARK    5  A    between atoms: C_6  and  C_8
REMARK    6  A    between atoms: C_8  and  N_9
REMARK    7  A    between atoms: N_22  and  C_25
REMARK    8  A    between atoms: C_25  and  C_26
REMARK    9  A    between atoms: C_28  and  C_33
REMARK   10  A    between atoms: C_31  and  C_32
REMARK                            x       y       z     vdW  Elec       q    Type
REMARK                         _______ _______ _______ _____ _____    ______ ____
ROOT
ATOM      1  N   UNL     1       4.242  -0.711  -0.027  0.00  0.00    -0.271 N 
ATOM      2  C   UNL     1       5.084   0.283   0.312  0.00  0.00    +0.264 A 
ATOM      3  O   UNL     1       4.693   1.437   0.361  0.00  0.00    -0.267 OA
ATOM      4  C   UNL     1       6.445  -0.035   0.616  0.00  0.00    +0.076 A 
ATOM      5  C   UNL     1       7.526   0.885   1.006  0.00  0.00    -0.023 A 
ATOM      6  C   UNL     1       8.731   0.342   1.240  0.00  0.00    -0.004 A 
ATOM      7  S   UNL     1       8.512  -1.401   0.965  0.00  0.00    -0.073 S 
ATOM      8  C   UNL     1       6.793  -1.391   0.531  0.00  0.00    +0.117 A 
ATOM      9  N   UNL     1       5.912  -2.326   0.188  0.00  0.00    -0.208 NA
ATOM     10  C   UNL     1       4.663  -2.007  -0.081  0.00  0.00    +0.202 A 
ATOM     11  N   UNL     1       3.773  -2.993  -0.426  0.00  0.00    -0.304 N 
ATOM     12  C   UNL     1       3.587  -3.387  -1.831  0.00  0.00    +0.089 C 
ATOM     13  C   UNL     1       3.705  -4.912  -1.928  0.00  0.00    -0.059 C 
ATOM     14  N   UNL     1       2.759  -5.535  -0.994  0.00  0.00    +0.384 N 
ATOM     15  C   UNL     1       3.124  -5.197   0.387  0.00  0.00    -0.059 C 
ATOM     16  C   UNL     1       2.982  -3.691   0.600  0.00  0.00    +0.089 C 
ATOM     17  C   UNL     1       9.756   1.375   1.626  0.00  0.00    +0.043 C 
ATOM     18  C   UNL     1       9.135   2.719   1.186  0.00  0.00    +0.010 C 
ATOM     19  C   UNL     1       7.628   2.397   1.229  0.00  0.00    +0.037 C 
ATOM     20  H   UNL     1       1.827  -5.198  -1.187  0.00  0.00    -0.081 HD
ENDROOT
BRANCH   1  21
ATOM     21  C   UNL     1       2.846  -0.396  -0.339  0.00  0.00    +0.224 C 
BRANCH  21  23
ATOM     22  N   UNL     1       0.728  -0.066   0.896  0.00  0.00    -0.301 N 
ATOM     23  C   UNL     1       2.046  -0.342   0.938  0.00  0.00    +0.236 C 
ATOM     24  O   UNL     1       2.589  -0.547   2.003  0.00  0.00    -0.274 OA
BRANCH  22  26
ATOM     25  C   UNL     1       0.134   1.676  -0.715  0.00  0.00    +0.024 C 
ATOM     26  C   UNL     1       0.072   0.182  -0.391  0.00  0.00    +0.104 C 
ENDBRANCH  22  26
BRANCH  22  27
ATOM     27  C   UNL     1      -0.050  -0.014   2.136  0.00  0.00    +0.104 C 
ATOM     28  C   UNL     1      -0.611  -1.404   2.445  0.00  0.00    +0.024 C 
ENDBRANCH  22  27
ENDBRANCH  21  23
ENDBRANCH   1  21
BRANCH  14  29
ATOM     29  C   UNL     1       2.793  -6.993  -1.166  0.00  0.00    -0.043 C 
BRANCH  29  30
ATOM     30  C   UNL     1       1.737  -7.626  -0.297  0.00  0.00    -0.061 A 
ATOM     31  C   UNL     1       2.085  -8.185   0.918  0.00  0.00    +0.005 A 
ATOM     32  C   UNL     1       1.116  -8.766   1.715  0.00  0.00    -0.050 A 
ATOM     33  C   UNL     1      -0.201  -8.787   1.296  0.00  0.00    +0.003 A 
ATOM     34  C   UNL     1      -0.550  -8.227   0.082  0.00  0.00    +0.004 A 
ATOM     35  C   UNL     1       0.419  -7.643  -0.713  0.00  0.00    -0.049 A 
ATOM     36  C   UNL     1       0.038  -7.028  -2.035  0.00  0.00    +0.044 C 
ATOM     37  C   UNL     1       1.496  -9.376   3.040  0.00  0.00    +0.044 C 
ENDBRANCH  29  30
ENDBRANCH  14  29
TORSDOF 6
