REMARK  Name = ZINC02687443
REMARK  10 active torsions:
REMARK  status: ('A' for Active; 'I' for Inactive)
REMARK    1  A    between atoms: C_1  and  C_2
REMARK    2  A    between atoms: C_5  and  N_9
REMARK    3  A    between atoms: C_6  and  C_8
REMARK    4  A    between atoms: C_10  and  C_12
REMARK    5  A    between atoms: C_12  and  N_13
REMARK    6  A    between atoms: C_16  and  C_24
REMARK    7  A    between atoms: C_17  and  C_19
REMARK    8  A    between atoms: N_21  and  C_22
REMARK    9  A    between atoms: N_21  and  C_23
REMARK   10  A    between atoms: N_27  and  C_30
REMARK                            x       y       z     vdW  Elec       q    Type
REMARK                         _______ _______ _______ _____ _____    ______ ____
ROOT
ATOM      1  N   UNL     1       4.507  -2.738   0.172  0.00  0.00    -0.278 N 
ATOM      2  C   UNL     1       4.238  -3.459  -0.954  0.00  0.00    +0.098 A 
ATOM      3  C   UNL     1       3.792  -4.788  -0.881  0.00  0.00    +0.075 A 
ATOM      4  C   UNL     1       3.551  -5.418  -2.108  0.00  0.00    -0.017 A 
ATOM      5  C   UNL     1       3.763  -4.710  -3.255  0.00  0.00    +0.080 A 
ATOM      6  S   UNL     1       4.309  -3.127  -2.644  0.00  0.00    -0.065 S 
ATOM      7  C   UNL     1       3.070  -6.845  -2.160  0.00  0.00    +0.046 C 
ATOM      8  C   UNL     1       3.640  -5.335   0.489  0.00  0.00    +0.270 A 
ATOM      9  O   UNL     1       3.259  -6.478   0.658  0.00  0.00    -0.266 OA
ATOM     10  N   UNL     1       3.929  -4.551   1.543  0.00  0.00    -0.228 N 
ATOM     11  C   UNL     1       4.357  -3.287   1.392  0.00  0.00    +0.338 A 
ATOM     12  O   UNL     1       4.609  -2.623   2.379  0.00  0.00    -0.246 OA
ENDROOT
BRANCH  10  13
ATOM     13  C   UNL     1       3.784  -5.071   2.837  0.00  0.00    +0.055 A 
ATOM     14  C   UNL     1       4.557  -6.150   3.243  0.00  0.00    +0.029 A 
ATOM     15  C   UNL     1       4.418  -6.657   4.520  0.00  0.00    +0.040 A 
ATOM     16  C   UNL     1       3.499  -6.097   5.392  0.00  0.00    +0.124 A 
ATOM     17  C   UNL     1       2.724  -5.024   4.987  0.00  0.00    +0.040 A 
ATOM     18  C   UNL     1       2.864  -4.510   3.713  0.00  0.00    +0.029 A 
ATOM     19  F   UNL     1       3.360  -6.598   6.639  0.00  0.00    -0.205 F 
ENDBRANCH  10  13
BRANCH   5  20
ATOM     20  C   UNL     1       3.584  -5.143  -4.643  0.00  0.00    +0.253 C 
ATOM     21  O   UNL     1       3.395  -6.319  -4.894  0.00  0.00    -0.269 OA
ATOM     22  N   UNL     1       3.629  -4.239  -5.642  0.00  0.00    -0.303 N 
ATOM     23  C   UNL     1       3.513  -4.680  -7.034  0.00  0.00    +0.132 C 
ATOM     24  C   UNL     1       3.795  -2.816  -5.335  0.00  0.00    +0.132 C 
ENDBRANCH   5  20
BRANCH   1  25
ATOM     25  C   UNL     1       4.971  -1.353   0.052  0.00  0.00    +0.223 C 
BRANCH  25  27
ATOM     26  N   UNL     1       3.970   0.906  -0.059  0.00  0.00    -0.284 N 
ATOM     27  C   UNL     1       3.784  -0.425   0.043  0.00  0.00    +0.237 C 
ATOM     28  O   UNL     1       2.661  -0.875   0.128  0.00  0.00    -0.274 OA
ATOM     29  H   UNL     1       4.857   1.260  -0.232  0.00  0.00    +0.155 HD
BRANCH  26  34
ATOM     30  C   UNL     1      -0.430   4.440   0.520  0.00  0.00    +0.044 C 
ATOM     31  C   UNL     1       0.739   3.501   0.367  0.00  0.00    -0.050 A 
ATOM     32  C   UNL     1       0.567   2.283  -0.266  0.00  0.00    +0.005 A 
ATOM     33  C   UNL     1       1.635   1.419  -0.404  0.00  0.00    +0.024 A 
ATOM     34  C   UNL     1       2.885   1.777   0.084  0.00  0.00    +0.036 A 
ATOM     35  C   UNL     1       3.055   3.002   0.715  0.00  0.00    -0.029 A 
ATOM     36  C   UNL     1       1.982   3.861   0.855  0.00  0.00    +0.008 A 
ATOM     37  C   UNL     1       4.409   3.395   1.248  0.00  0.00    +0.045 C 
ENDBRANCH  26  34
ENDBRANCH  25  27
ENDBRANCH   1  25
TORSDOF 5
