REMARK  Name = ZINC24788112
REMARK  8 active torsions:
REMARK  status: ('A' for Active; 'I' for Inactive)
REMARK    1  A    between atoms: C_1  and  C_2
REMARK    2  A    between atoms: C_15  and  C_17
REMARK    3  A    between atoms: C_17  and  N_18
REMARK    4  A    between atoms: C_23  and  O_36
REMARK    5  A    between atoms: C_24  and  O_34
REMARK    6  A    between atoms: C_27  and  C_29
REMARK    7  A    between atoms: O_34  and  C_35
REMARK    8  A    between atoms: O_36  and  C_37
REMARK                            x       y       z     vdW  Elec       q    Type
REMARK                         _______ _______ _______ _____ _____    ______ ____
ROOT
ATOM      1  N   UNL     1       3.575   3.134  -0.391  0.00  0.00    +0.393 N 
ATOM      2  C   UNL     1       3.550   2.073   0.628  0.00  0.00    -0.072 C 
ATOM      3  C   UNL     1       2.417   1.102   0.289  0.00  0.00    +0.017 C 
ATOM      4  C   UNL     1       1.139   1.865   0.051  0.00  0.00    -0.043 A 
ATOM      5  C   UNL     1      -0.060   1.169   0.081  0.00  0.00    +0.053 A 
ATOM      6  C   UNL     1      -1.256   1.826  -0.142  0.00  0.00    +0.162 A 
ATOM      7  C   UNL     1      -1.255   3.196  -0.387  0.00  0.00    +0.162 A 
ATOM      8  C   UNL     1      -0.056   3.886  -0.415  0.00  0.00    +0.052 A 
ATOM      9  C   UNL     1       1.142   3.222  -0.195  0.00  0.00    -0.049 A 
ATOM     10  C   UNL     1       2.419   4.021  -0.230  0.00  0.00    +0.001 C 
ATOM     11  H   UNL     1       3.515   2.667  -1.385  0.00  0.00    -0.080 HD
ENDROOT
BRANCH  10  12
ATOM     12  C   UNL     1       2.369   4.988  -1.384  0.00  0.00    -0.019 A 
ATOM     13  C   UNL     1       2.054   6.306  -1.380  0.00  0.00    +0.010 A 
ATOM     14  C   UNL     1       2.078   7.005  -2.573  0.00  0.00    +0.008 A 
ATOM     15  C   UNL     1       2.405   6.348  -3.713  0.00  0.00    +0.045 A 
ATOM     16  S   UNL     1       2.702   4.693  -3.113  0.00  0.00    -0.103 S 
ENDBRANCH  10  12
BRANCH   7  17
ATOM     17  O   UNL     1      -2.426   3.853  -0.603  0.00  0.00    -0.491 OA
ATOM     18  C   UNL     1      -2.346   5.258  -0.853  0.00  0.00    +0.277 C 
ENDBRANCH   7  17
BRANCH   6  19
ATOM     19  O   UNL     1      -2.429   1.138  -0.116  0.00  0.00    -0.491 OA
ATOM     20  C   UNL     1      -2.353  -0.265   0.147  0.00  0.00    +0.277 C 
ENDBRANCH   6  19
BRANCH   1  21
ATOM     21  C   UNL     1       4.832   3.891  -0.331  0.00  0.00    +0.020 C 
BRANCH  21  35
ATOM     22  C   UNL     1       9.024   2.018   0.265  0.00  0.00    +0.029 C 
ATOM     23  C   UNL     1       8.370   2.579  -1.000  0.00  0.00    +0.087 C 
ATOM     24  C   UNL     1       9.399   3.391  -1.794  0.00  0.00    +0.118 C 
ATOM     25  C   UNL     1       8.706   4.269  -2.801  0.00  0.00    +0.219 C 
ATOM     26  O   UNL     1       8.718   3.965  -3.975  0.00  0.00    -0.275 OA
ATOM     27  N   UNL     1       8.069   5.394  -2.406  0.00  0.00    -0.284 N 
ATOM     28  C   UNL     1       7.963   5.709  -1.046  0.00  0.00    +0.055 A 
ATOM     29  C   UNL     1       8.263   6.980  -0.586  0.00  0.00    +0.025 A 
ATOM     30  C   UNL     1       8.098   7.284   0.753  0.00  0.00    +0.002 A 
ATOM     31  C   UNL     1       7.635   6.323   1.633  0.00  0.00    +0.002 A 
ATOM     32  C   UNL     1       7.343   5.048   1.183  0.00  0.00    +0.025 A 
ATOM     33  C   UNL     1       7.514   4.733  -0.155  0.00  0.00    +0.058 A 
ATOM     34  N   UNL     1       7.247   3.440  -0.625  0.00  0.00    -0.268 N 
ATOM     35  C   UNL     1       5.978   2.996  -0.726  0.00  0.00    +0.204 C 
ATOM     36  O   UNL     1       5.759   1.875  -1.134  0.00  0.00    -0.277 OA
ATOM     37  H   UNL     1       7.630   6.069  -3.155  0.00  0.00    +0.155 HD
ENDBRANCH  21  35
ENDBRANCH   1  21
TORSDOF 5
