REMARK  Name = ZINC10066849
REMARK  14 active torsions:
REMARK  status: ('A' for Active; 'I' for Inactive)
REMARK    1  A    between atoms: C_1  and  C_2
REMARK    2  A    between atoms: C_2  and  N_63
REMARK    3  A    between atoms: C_3  and  C_4
REMARK    4  A    between atoms: C_3  and  N_63
REMARK    5  A    between atoms: C_5  and  C_6
REMARK    6  A    between atoms: C_5  and  N_63
REMARK    7  A    between atoms: C_6  and  N_7
REMARK    8  A    between atoms: C_20  and  C_22
REMARK    9  A    between atoms: C_24  and  O_32
REMARK   10  A    between atoms: C_25  and  O_30
REMARK   11  A    between atoms: C_26  and  O_28
REMARK   12  A    between atoms: O_28  and  C_29
REMARK   13  A    between atoms: O_30  and  C_31
REMARK   14  A    between atoms: O_32  and  C_33
REMARK                            x       y       z     vdW  Elec       q    Type
REMARK                         _______ _______ _______ _____ _____    ______ ____
ROOT
ATOM      1  N   UNL     1       2.591  -2.803  -0.031  0.00  0.00    -0.248 N 
ATOM      2  C   UNL     1       2.805  -4.151   0.206  0.00  0.00    +0.168 A 
ATOM      3  N   UNL     1       3.939  -4.809   0.250  0.00  0.00    -0.224 NA
ATOM      4  C   UNL     1       4.000  -6.137   0.499  0.00  0.00    +0.084 A 
ATOM      5  C   UNL     1       5.149  -6.957   0.576  0.00  0.00    +0.078 A 
ATOM      6  C   UNL     1       5.042  -8.304   0.834  0.00  0.00    +0.168 A 
ATOM      7  C   UNL     1       3.793  -8.900   1.025  0.00  0.00    +0.167 A 
ATOM      8  C   UNL     1       2.650  -8.123   0.955  0.00  0.00    +0.066 A 
ATOM      9  C   UNL     1       2.757  -6.779   0.699  0.00  0.00    +0.044 A 
ATOM     10  S   UNL     1       1.605  -5.437   0.524  0.00  0.00    -0.052 S 
ATOM     11  O   UNL     1       3.972 -10.232   1.260  0.00  0.00    -0.453 OA
ATOM     12  C   UNL     1       5.307 -10.524   0.806  0.00  0.00    +0.466 C 
ATOM     13  O   UNL     1       6.002  -9.272   0.953  0.00  0.00    -0.453 OA
ATOM     14  C   UNL     1       1.337  -2.311  -0.042  0.00  0.00    +0.252 C 
ATOM     15  O   UNL     1       0.389  -3.061   0.088  0.00  0.00    -0.270 OA
ENDROOT
BRANCH  14  16
ATOM     16  C   UNL     1       1.113  -0.863  -0.212  0.00  0.00    +0.044 A 
ATOM     17  C   UNL     1       0.184  -0.403  -1.149  0.00  0.00    +0.062 A 
ATOM     18  C   UNL     1      -0.023   0.955  -1.305  0.00  0.00    +0.166 A 
ATOM     19  C   UNL     1       0.693   1.864  -0.531  0.00  0.00    +0.204 A 
ATOM     20  C   UNL     1       1.619   1.408   0.404  0.00  0.00    +0.166 A 
ATOM     21  C   UNL     1       1.830   0.052   0.564  0.00  0.00    +0.062 A 
BRANCH  20  22
ATOM     22  O   UNL     1       2.317   2.299   1.159  0.00  0.00    -0.491 OA
ATOM     23  C   UNL     1       3.322   1.768   2.025  0.00  0.00    +0.277 C 
ENDBRANCH  20  22
BRANCH  19  24
ATOM     24  O   UNL     1       0.487   3.198  -0.687  0.00  0.00    -0.488 OA
ATOM     25  C   UNL     1      -0.524   3.798   0.125  0.00  0.00    +0.277 C 
ENDBRANCH  19  24
BRANCH  18  26
ATOM     26  O   UNL     1      -0.923   1.403  -2.221  0.00  0.00    -0.491 OA
ATOM     27  C   UNL     1      -1.618   0.416  -2.986  0.00  0.00    +0.277 C 
ENDBRANCH  18  26
ENDBRANCH  14  16
BRANCH   1  28
ATOM     28  C   UNL     1       3.729  -1.912  -0.271  0.00  0.00    +0.097 C 
BRANCH  28  29
ATOM     29  C   UNL     1       4.473  -1.670   1.044  0.00  0.00    -0.059 C 
BRANCH  29  30
ATOM     30  N   UNL     1       5.591  -0.735   0.795  0.00  0.00    +0.380 N 
ATOM     31  H   UNL     1       5.223   0.114   0.350  0.00  0.00    -0.082 HD
BRANCH  30  33
ATOM     32  C   UNL     1       7.172   0.818   1.829  0.00  0.00    -0.017 C 
ATOM     33  C   UNL     1       6.234  -0.366   2.074  0.00  0.00    -0.082 C 
ENDBRANCH  30  33
BRANCH  30  34
ATOM     34  C   UNL     1       6.581  -1.360  -0.106  0.00  0.00    -0.082 C 
ATOM     35  C   UNL     1       7.032  -2.713   0.448  0.00  0.00    -0.017 C 
ENDBRANCH  30  34
ENDBRANCH  29  30
ENDBRANCH  28  29
ENDBRANCH   1  28
TORSDOF 9
