REMARK  Name = ZINC15046002
REMARK  8 active torsions:
REMARK  status: ('A' for Active; 'I' for Inactive)
REMARK    1  A    between atoms: C_1  and  C_2
REMARK    2  A    between atoms: C_5  and  N_8
REMARK    3  A    between atoms: C_9  and  C_11
REMARK    4  A    between atoms: C_11  and  C_13
REMARK    5  A    between atoms: C_11  and  N_14
REMARK    6  A    between atoms: C_18  and  C_19
REMARK    7  A    between atoms: C_22  and  O_26
REMARK    8  A    between atoms: C_24  and  O_25
REMARK                            x       y       z     vdW  Elec       q    Type
REMARK                         _______ _______ _______ _____ _____    ______ ____
ROOT
ATOM      1  N   UNL     1      -0.116  -7.161  -2.445  0.00  0.00    -0.244 N 
ATOM      2  C   UNL     1      -1.228  -7.748  -2.853  0.00  0.00    +0.259 C 
ATOM      3  O   UNL     1      -2.145  -7.983  -2.086  0.00  0.00    -0.269 OA
ATOM      4  C   UNL     1      -1.305  -8.101  -4.282  0.00  0.00    +0.077 C 
ATOM      5  C   UNL     1      -2.310  -8.700  -4.974  0.00  0.00    +0.031 C 
ATOM      6  S   UNL     1       0.289  -7.529  -4.855  0.00  0.00    -0.061 S 
ATOM      7  C   UNL     1       0.899  -6.907  -3.296  0.00  0.00    +0.121 C 
ATOM      8  S   UNL     1       2.407  -6.168  -2.963  0.00  0.00    -0.027 S 
ENDROOT
BRANCH   5   9
ATOM      9  C   UNL     1      -2.090  -9.137  -6.356  0.00  0.00    +0.018 A 
ATOM     10  C   UNL     1      -0.787  -9.297  -6.844  0.00  0.00    +0.015 A 
ATOM     11  C   UNL     1      -0.586  -9.712  -8.140  0.00  0.00    +0.046 A 
ATOM     12  C   UNL     1      -1.672  -9.965  -8.972  0.00  0.00    +0.120 A 
ATOM     13  C   UNL     1      -2.968  -9.805  -8.501  0.00  0.00    +0.091 A 
ATOM     14  C   UNL     1      -3.186  -9.393  -7.199  0.00  0.00    +0.127 A 
BRANCH  14  15
ATOM     15  O   UNL     1      -4.452  -9.236  -6.737  0.00  0.00    -0.506 OA
ATOM     16  H   UNL     1      -4.812  -8.348  -6.867  0.00  0.00    +0.292 HD
ENDBRANCH  14  15
BRANCH  12  17
ATOM     17  O   UNL     1      -1.464 -10.370 -10.251  0.00  0.00    -0.507 OA
ATOM     18  H   UNL     1      -1.396  -9.644 -10.887  0.00  0.00    +0.292 HD
ENDBRANCH  12  17
ENDBRANCH   5   9
BRANCH   1  19
ATOM     19  C   UNL     1       0.020  -6.782  -1.036  0.00  0.00    +0.166 C 
ATOM     20  C   UNL     1       1.219  -7.510  -0.426  0.00  0.00    +0.038 C 
BRANCH  19  22
ATOM     21  N   UNL     1       0.381  -4.716   0.274  0.00  0.00    -0.284 N 
ATOM     22  C   UNL     1       0.230  -5.294  -0.934  0.00  0.00    +0.238 C 
ATOM     23  O   UNL     1       0.264  -4.616  -1.939  0.00  0.00    -0.273 OA
ATOM     24  H   UNL     1       0.429  -5.265   1.072  0.00  0.00    +0.155 HD
BRANCH  21  29
ATOM     25  C   UNL     1       0.734   0.931   0.693  0.00  0.00    +0.044 C 
ATOM     26  C   UNL     1       0.639  -0.569   0.582  0.00  0.00    -0.050 A 
ATOM     27  C   UNL     1       1.375  -1.372   1.435  0.00  0.00    +0.005 A 
ATOM     28  C   UNL     1       1.288  -2.747   1.339  0.00  0.00    +0.023 A 
ATOM     29  C   UNL     1       0.468  -3.323   0.378  0.00  0.00    +0.033 A 
ATOM     30  C   UNL     1      -0.266  -2.514  -0.480  0.00  0.00    +0.023 A 
ATOM     31  C   UNL     1      -0.178  -1.140  -0.376  0.00  0.00    +0.005 A 
ENDBRANCH  21  29
ENDBRANCH  19  22
ENDBRANCH   1  19
TORSDOF 6
