REMARK  Name = ZINC39156802
REMARK  5 active torsions:
REMARK  status: ('A' for Active; 'I' for Inactive)
REMARK    1  A    between atoms: C_1  and  C_2
REMARK    2  A    between atoms: C_4  and  N_9
REMARK    3  A    between atoms: C_5  and  C_8
REMARK    4  A    between atoms: N_9  and  C_10
REMARK    5  A    between atoms: N_13  and  C_18
REMARK                            x       y       z     vdW  Elec       q    Type
REMARK                         _______ _______ _______ _____ _____    ______ ____
ROOT
ATOM      1  C   UNL     1      -3.831  -1.136  -0.111  0.00  0.00    +0.075 A 
ATOM      2  C   UNL     1      -3.849  -1.857   1.102  0.00  0.00    +0.157 A 
ATOM      3  N   UNL     1      -4.927  -2.486   1.480  0.00  0.00    -0.174 NA
ATOM      4  N   UNL     1      -6.088  -2.461   0.700  0.00  0.00    -0.222 N 
ATOM      5  C   UNL     1      -6.116  -1.784  -0.465  0.00  0.00    +0.288 A 
ATOM      6  O   UNL     1      -7.133  -1.767  -1.141  0.00  0.00    -0.265 OA
ATOM      7  C   UNL     1      -4.971  -1.095  -0.893  0.00  0.00    +0.129 A 
ATOM      8 CL   UNL     1      -4.982  -0.209  -2.386  0.00  0.00    -0.076 Cl
ENDROOT
BRANCH   4   9
ATOM      9  C   UNL     1      -7.283  -3.177   1.153  0.00  0.00    +0.068 C 
ATOM     10  C   UNL     1      -7.668  -4.234   0.117  0.00  0.00    +0.034 C 
ATOM     11  C   UNL     1      -8.916  -4.981   0.590  0.00  0.00    -0.008 C 
ATOM     12  C   UNL     1      -8.625  -5.663   1.929  0.00  0.00    +0.007 C 
ATOM     13  C   UNL     1      -8.240  -4.606   2.966  0.00  0.00    -0.008 C 
ATOM     14  C   UNL     1      -6.992  -3.858   2.492  0.00  0.00    +0.034 C 
ATOM     15  C   UNL     1      -9.394  -3.615   3.137  0.00  0.00    +0.007 C 
ATOM     16  C   UNL     1      -9.684  -2.934   1.798  0.00  0.00    -0.008 C 
ATOM     17  C   UNL     1     -10.069  -3.991   0.761  0.00  0.00    +0.007 C 
ATOM     18  C   UNL     1      -8.436  -2.186   1.325  0.00  0.00    +0.034 C 
ENDBRANCH   4   9
BRANCH   1  19
ATOM     19  N   UNL     1      -2.683  -0.469  -0.511  0.00  0.00    -0.312 N 
ATOM     20  H   UNL     1      -2.699   0.091  -1.303  0.00  0.00    +0.152 HD
BRANCH  19  23
ATOM     21  C   UNL     1      -0.251  -2.527  -0.771  0.00  0.00    +0.041 C 
ATOM     22  C   UNL     1      -0.747  -1.871   0.519  0.00  0.00    +0.171 C 
ATOM     23  C   UNL     1      -1.524  -0.602   0.214  0.00  0.00    +0.057 C 
ATOM     24  C   UNL     1      -0.803   0.366   0.823  0.00  0.00    +0.079 C 
ATOM     25  N   UNL     1       0.267  -0.154   1.431  0.00  0.00    -0.157 NA
ATOM     26  N   UNL     1       0.386  -1.381   1.323  0.00  0.00    -0.178 NA
ATOM     27  C   UNL     1      -1.158   1.831   0.818  0.00  0.00    +0.069 C 
ENDBRANCH  19  23
ENDBRANCH   1  19
TORSDOF 3
