REMARK  Name = ZINC35361571
REMARK  8 active torsions:
REMARK  status: ('A' for Active; 'I' for Inactive)
REMARK    1  A    between atoms: C_1  and  C_2
REMARK    2  A    between atoms: C_2  and  C_3
REMARK    3  A    between atoms: C_8  and  N_9
REMARK    4  A    between atoms: C_10  and  C_12
REMARK    5  A    between atoms: C_12  and  N_13
REMARK    6  A    between atoms: C_19  and  C_21
REMARK    7  A    between atoms: C_21  and  N_22
REMARK    8  A    between atoms: C_26  and  C_28
REMARK                            x       y       z     vdW  Elec       q    Type
REMARK                         _______ _______ _______ _____ _____    ______ ____
ROOT
ATOM      1  N   UNL     1      -3.552  -0.399   5.993  0.00  0.00    -0.291 NA
ATOM      2  C   UNL     1      -3.351  -1.799   6.392  0.00  0.00    +0.104 C 
ATOM      3  C   UNL     1      -3.970  -2.026   7.775  0.00  0.00    +0.123 C 
ATOM      4  N   UNL     1      -5.373  -1.585   7.738  0.00  0.00    -0.301 N 
ATOM      5  C   UNL     1      -5.666  -0.240   7.219  0.00  0.00    +0.123 C 
ATOM      6  C   UNL     1      -4.980  -0.083   5.858  0.00  0.00    +0.104 C 
ATOM      7  C   UNL     1      -6.363  -2.392   8.168  0.00  0.00    +0.199 C 
ATOM      8  O   UNL     1      -6.103  -3.497   8.592  0.00  0.00    -0.278 OA
ENDROOT
BRANCH   1   9
ATOM      9  C   UNL     1      -2.826  -0.096   4.752  0.00  0.00    +0.180 C 
BRANCH   9  11
ATOM     10  N   UNL     1      -0.474   0.041   3.998  0.00  0.00    -0.284 N 
ATOM     11  C   UNL     1      -1.343  -0.197   5.001  0.00  0.00    +0.231 C 
ATOM     12  O   UNL     1      -0.931  -0.492   6.103  0.00  0.00    -0.274 OA
ATOM     13  H   UNL     1      -0.799   0.348   3.138  0.00  0.00    +0.155 HD
BRANCH  10  19
ATOM     14  C   UNL     1       1.695  -0.606   3.157  0.00  0.00    -0.026 A 
ATOM     15  C   UNL     1       3.049  -0.793   3.357  0.00  0.00    +0.005 A 
ATOM     16  C   UNL     1       3.608  -0.538   4.595  0.00  0.00    +0.000 A 
ATOM     17  C   UNL     1       2.815  -0.094   5.637  0.00  0.00    +0.002 A 
ATOM     18  C   UNL     1       1.461   0.096   5.444  0.00  0.00    +0.023 A 
ATOM     19  C   UNL     1       0.897  -0.155   4.199  0.00  0.00    +0.037 A 
BRANCH  14  21
ATOM     20  C   UNL     1       1.020   0.413   0.999  0.00  0.00    +0.009 C 
ATOM     21  C   UNL     1       1.086  -0.885   1.806  0.00  0.00    +0.033 C 
ENDBRANCH  14  21
ENDBRANCH  10  19
ENDBRANCH   9  11
ENDBRANCH   1   9
BRANCH   7  22
ATOM     22  C   UNL     1      -7.793  -1.919   8.120  0.00  0.00    +0.020 C 
BRANCH  22  23
ATOM     23  N   UNL     1      -8.675  -2.974   8.640  0.00  0.00    +0.390 N 
ATOM     24  C   UNL     1      -8.666  -4.129   7.717  0.00  0.00    -0.077 C 
ATOM     25  C   UNL     1     -10.116  -4.673   7.752  0.00  0.00    -0.020 C 
ATOM     26  C   UNL     1     -10.941  -3.363   7.854  0.00  0.00    -0.012 C 
ATOM     27  C   UNL     1     -10.054  -2.463   8.740  0.00  0.00    -0.030 C 
ATOM     28  H   UNL     1      -8.354  -3.267   9.551  0.00  0.00    -0.080 HD
BRANCH  27  29
ATOM     29  C   UNL     1     -10.111  -1.041   8.245  0.00  0.00    -0.024 A 
ATOM     30  C   UNL     1     -10.454   0.085   8.919  0.00  0.00    +0.009 A 
ATOM     31  C   UNL     1     -10.434   1.296   8.254  0.00  0.00    +0.008 A 
ATOM     32  C   UNL     1     -10.073   1.323   6.947  0.00  0.00    +0.045 A 
ATOM     33  S   UNL     1      -9.738  -0.400   6.621  0.00  0.00    -0.103 S 
ENDBRANCH  27  29
ENDBRANCH  22  23
ENDBRANCH   7  22
TORSDOF 7
