REMARK  Name = ZINC01783923
REMARK  8 active torsions:
REMARK  status: ('A' for Active; 'I' for Inactive)
REMARK    1  A    between atoms: C_1  and  C_2
REMARK    2  A    between atoms: C_3  and  C_31
REMARK    3  A    between atoms: N_9  and  C_12
REMARK    4  A    between atoms: C_12  and  C_13
REMARK    5  A    between atoms: N_15  and  N_16
REMARK    6  A    between atoms: C_17  and  C_18
REMARK    7  A    between atoms: C_22  and  O_24
REMARK    8  A    between atoms: O_24  and  C_25
REMARK                            x       y       z     vdW  Elec       q    Type
REMARK                         _______ _______ _______ _____ _____    ______ ____
ROOT
ATOM      1  C   UNL     1      -0.011   1.334   0.255  0.00  0.00    +0.252 C 
ATOM      2  O   UNL     1       0.025   0.123   0.198  0.00  0.00    -0.272 OA
ATOM      3  N   UNL     1      -1.198   1.974   0.254  0.00  0.00    -0.206 N 
ATOM      4  H   UNL     1      -1.226   2.942   0.300  0.00  0.00    +0.177 HD
ENDROOT
BRANCH   3   5
ATOM      5  N   UNL     1      -2.389   1.240   0.188  0.00  0.00    -0.188 NA
ATOM      6  C   UNL     1      -3.531   1.855   0.188  0.00  0.00    +0.138 C 
BRANCH   6   7
ATOM      7  C   UNL     1      -4.785   1.083   0.118  0.00  0.00    -0.002 A 
ATOM      8  C   UNL     1      -4.747  -0.312   0.052  0.00  0.00    +0.010 A 
ATOM      9  C   UNL     1      -5.922  -1.032  -0.013  0.00  0.00    +0.004 A 
ATOM     10  C   UNL     1      -7.140  -0.376  -0.014  0.00  0.00    +0.046 A 
ATOM     11  C   UNL     1      -7.189   1.010   0.051  0.00  0.00    +0.129 A 
ATOM     12  C   UNL     1      -6.016   1.742   0.123  0.00  0.00    +0.055 A 
BRANCH  11  13
ATOM     13  O   UNL     1      -8.389   1.648   0.050  0.00  0.00    -0.456 OA
BRANCH  13  14
ATOM     14  C   UNL     1      -8.708   2.406  -1.032  0.00  0.00    +0.128 A 
ATOM     15  C   UNL     1      -7.877   2.415  -2.143  0.00  0.00    +0.046 A 
ATOM     16  C   UNL     1      -8.206   3.182  -3.244  0.00  0.00    +0.004 A 
ATOM     17  C   UNL     1      -9.356   3.949  -3.234  0.00  0.00    +0.000 A 
ATOM     18  C   UNL     1     -10.183   3.946  -2.126  0.00  0.00    +0.004 A 
ATOM     19  C   UNL     1      -9.862   3.176  -1.025  0.00  0.00    +0.046 A 
ENDBRANCH  13  14
ENDBRANCH  11  13
ENDBRANCH   6   7
ENDBRANCH   3   5
BRANCH   1  20
ATOM     20  C   UNL     1       1.271   2.124   0.320  0.00  0.00    +0.223 C 
BRANCH  20  29
ATOM     21  C   UNL     1       6.628  -2.380   3.240  0.00  0.00    +0.052 C 
ATOM     22  C   UNL     1       5.759  -1.618   2.271  0.00  0.00    -0.003 A 
ATOM     23  C   UNL     1       4.717  -0.797   2.544  0.00  0.00    +0.007 A 
ATOM     24  C   UNL     1       4.016  -0.161   1.435  0.00  0.00    +0.080 A 
ATOM     25  C   UNL     1       4.511  -0.476   0.159  0.00  0.00    +0.116 A 
ATOM     26  S   UNL     1       5.858  -1.582   0.492  0.00  0.00    -0.073 S 
ATOM     27  N   UNL     1       3.973   0.029  -0.948  0.00  0.00    -0.230 NA
ATOM     28  C   UNL     1       2.955   0.844  -0.890  0.00  0.00    +0.203 A 
ATOM     29  N   UNL     1       2.412   1.205   0.300  0.00  0.00    -0.290 N 
ATOM     30  C   UNL     1       2.904   0.740   1.463  0.00  0.00    +0.263 A 
ATOM     31  O   UNL     1       2.408   1.078   2.524  0.00  0.00    -0.267 OA
BRANCH  23  32
ATOM     32  C   UNL     1       4.296  -0.550   3.944  0.00  0.00    -0.016 A 
ATOM     33  C   UNL     1       3.041  -0.969   4.382  0.00  0.00    +0.008 A 
ATOM     34  C   UNL     1       2.657  -0.741   5.688  0.00  0.00    +0.001 A 
ATOM     35  C   UNL     1       3.511  -0.088   6.558  0.00  0.00    +0.000 A 
ATOM     36  C   UNL     1       4.756   0.335   6.128  0.00  0.00    +0.001 A 
ATOM     37  C   UNL     1       5.153   0.108   4.826  0.00  0.00    +0.008 A 
ENDBRANCH  23  32
ENDBRANCH  20  29
ENDBRANCH   1  20
TORSDOF 7
