REMARK  Name = ZINC14987719
REMARK  12 active torsions:
REMARK  status: ('A' for Active; 'I' for Inactive)
REMARK    1  A    between atoms: C_1  and  C_2
REMARK    2  A    between atoms: C_3  and  C_9
REMARK    3  A    between atoms: C_4  and  C_8
REMARK    4  A    between atoms: N_5  and  C_7
REMARK    5  A    between atoms: C_9  and  C_11
REMARK    6  A    between atoms: C_9  and  N_71
REMARK    7  A    between atoms: C_12  and  N_71
REMARK    8  A    between atoms: C_13  and  C_14
REMARK    9  A    between atoms: C_13  and  N_71
REMARK   10  A    between atoms: N_22  and  C_25
REMARK   11  A    between atoms: C_25  and  C_26
REMARK   12  A    between atoms: C_30  and  C_32
REMARK                            x       y       z     vdW  Elec       q    Type
REMARK                         _______ _______ _______ _____ _____    ______ ____
ROOT
ATOM      1  C   UNL     1      -1.667   7.759  -5.778  0.00  0.00    +0.001 A 
ATOM      2  C   UNL     1      -0.844   7.675  -6.853  0.00  0.00    +0.017 A 
ATOM      3  C   UNL     1       0.567   8.023  -6.683  0.00  0.00    -0.001 A 
ATOM      4  C   UNL     1       1.465   7.956  -7.752  0.00  0.00    +0.014 A 
ATOM      5  C   UNL     1       2.776   8.303  -7.569  0.00  0.00    -0.043 A 
ATOM      6  C   UNL     1       3.228   8.707  -6.319  0.00  0.00    -0.042 A 
ATOM      7  C   UNL     1       2.358   8.775  -5.249  0.00  0.00    +0.030 A 
ATOM      8  C   UNL     1       1.020   8.438  -5.416  0.00  0.00    +0.053 A 
ATOM      9  N   UNL     1       0.134   8.498  -4.362  0.00  0.00    -0.304 N 
ATOM     10  C   UNL     1      -1.161   8.175  -4.528  0.00  0.00    +0.253 A 
ATOM     11  O   UNL     1      -1.917   8.244  -3.575  0.00  0.00    -0.267 OA
ATOM     12  C   UNL     1       4.709   9.017  -6.390  0.00  0.00    +0.036 C 
ATOM     13  C   UNL     1       5.202   8.344  -7.688  0.00  0.00    +0.009 C 
ATOM     14  C   UNL     1       3.926   8.316  -8.555  0.00  0.00    +0.036 C 
ENDROOT
BRANCH   1  15
ATOM     15  C   UNL     1      -3.125   7.408  -5.919  0.00  0.00    -0.037 C 
BRANCH  15  17
ATOM     16  C   UNL     1      -3.063   5.817  -4.096  0.00  0.00    -0.095 C 
ATOM     17  N   UNL     1      -3.313   5.992  -5.542  0.00  0.00    +0.385 N 
ATOM     18  H   UNL     1      -2.646   5.415  -6.068  0.00  0.00    -0.081 HD
BRANCH  17  19
ATOM     19  C   UNL     1      -4.687   5.559  -5.873  0.00  0.00    -0.037 C 
ATOM     20  C   UNL     1      -5.703   6.259  -4.968  0.00  0.00    -0.008 C 
BRANCH  19  23
ATOM     21  C   UNL     1      -7.116   4.010  -4.553  0.00  0.00    +0.068 C 
ATOM     22  C   UNL     1      -5.859   3.383  -5.097  0.00  0.00    +0.062 A 
ATOM     23  C   UNL     1      -4.787   4.067  -5.680  0.00  0.00    -0.018 A 
ATOM     24  C   UNL     1      -3.853   3.154  -6.034  0.00  0.00    +0.038 A 
ATOM     25  N   UNL     1      -4.320   1.935  -5.693  0.00  0.00    -0.271 N 
ATOM     26  N   UNL     1      -5.582   2.104  -5.110  0.00  0.00    -0.176 NA
ATOM     27  C   UNL     1      -3.628   0.660  -5.896  0.00  0.00    +0.172 C 
ATOM     28  C   UNL     1      -2.529   3.447  -6.691  0.00  0.00    +0.065 C 
ENDBRANCH  19  23
ENDBRANCH  17  19
ENDBRANCH  15  17
ENDBRANCH   1  15
BRANCH   9  29
ATOM     29  C   UNL     1       0.608   8.925  -3.043  0.00  0.00    +0.160 C 
BRANCH  29  30
ATOM     30  C   UNL     1       1.064   7.721  -2.260  0.00  0.00    -0.027 A 
ATOM     31  C   UNL     1       2.379   7.302  -2.341  0.00  0.00    +0.005 A 
ATOM     32  C   UNL     1       2.798   6.199  -1.621  0.00  0.00    +0.001 A 
ATOM     33  C   UNL     1       1.902   5.515  -0.820  0.00  0.00    +0.012 A 
ATOM     34  C   UNL     1       0.587   5.931  -0.743  0.00  0.00    +0.055 A 
ATOM     35  C   UNL     1       0.169   7.038  -1.459  0.00  0.00    +0.017 A 
BRANCH  34  36
ATOM     36  C   UNL     1      -0.391   5.183   0.125  0.00  0.00    +0.417 C 
ATOM     37  F   UNL     1       0.262   4.114   0.748  0.00  0.00    -0.166 F 
ATOM     38  F   UNL     1      -0.906   6.045   1.099  0.00  0.00    -0.166 F 
ATOM     39  F   UNL     1      -1.437   4.694  -0.665  0.00  0.00    -0.166 F 
ENDBRANCH  34  36
ENDBRANCH  29  30
ENDBRANCH   9  29
TORSDOF 7
