REMARK  Name = ZINC63351364
REMARK  6 active torsions:
REMARK  status: ('A' for Active; 'I' for Inactive)
REMARK    1  A    between atoms: C_1  and  C_2
REMARK    2  A    between atoms: N_18  and  C_21
REMARK    3  A    between atoms: C_24  and  C_27
REMARK    4  A    between atoms: N_29  and  C_30
REMARK    5  A    between atoms: C_30  and  C_31
REMARK    6  A    between atoms: C_31  and  C_32
REMARK                            x       y       z     vdW  Elec       q    Type
REMARK                         _______ _______ _______ _____ _____    ______ ____
ROOT
ATOM      1  C   UNL     1      -0.028   1.514  -0.023  0.00  0.00    +0.044 C 
ATOM      2  C   UNL     1       0.005  -0.015  -0.005  0.00  0.00    +0.137 C 
ATOM      3  C   UNL     1       0.739  -0.570  -1.226  0.00  0.00    +0.139 C 
ATOM      4  C   UNL     1       1.860  -1.461  -0.713  0.00  0.00    -0.034 C 
ATOM      5  C   UNL     1       1.674  -2.654  -1.273  0.00  0.00    -0.001 A 
ATOM      6  C   UNL     1       2.460  -3.896  -1.209  0.00  0.00    +0.010 A 
ATOM      7  C   UNL     1       1.966  -4.953  -1.906  0.00  0.00    +0.001 A 
ATOM      8  C   UNL     1       0.784  -4.899  -2.651  0.00  0.00    +0.002 A 
ATOM      9  C   UNL     1       0.000  -3.797  -2.769  0.00  0.00    +0.026 A 
ATOM     10  C   UNL     1       0.419  -2.619  -2.083  0.00  0.00    +0.043 A 
ATOM     11  N   UNL     1      -0.129  -1.424  -2.040  0.00  0.00    -0.375 N 
ATOM     12  C   UNL     1       2.892  -1.011   0.292  0.00  0.00    +0.052 C 
ATOM     13  C   UNL     1       2.123  -0.400   1.481  0.00  0.00    +0.115 C 
ATOM     14  N   UNL     1       0.689  -0.527   1.200  0.00  0.00    -0.268 N 
ATOM     15  C   UNL     1      -0.245  -1.137   1.943  0.00  0.00    +0.316 C 
ATOM     16  O   UNL     1      -0.045  -1.572   3.060  0.00  0.00    -0.252 OA
ATOM     17  N   UNL     1      -1.425  -1.211   1.312  0.00  0.00    -0.192 N 
ATOM     18  C   UNL     1      -1.387  -0.596   0.112  0.00  0.00    +0.253 C 
ATOM     19  O   UNL     1      -2.281  -0.524  -0.703  0.00  0.00    -0.272 OA
ATOM     20  H   UNL     1      -0.958  -1.150  -2.464  0.00  0.00    +0.160 HD
ENDROOT
BRANCH  17  21
ATOM     21  C   UNL     1      -2.556  -1.846   1.834  0.00  0.00    +0.045 A 
ATOM     22  C   UNL     1      -3.769  -1.765   1.160  0.00  0.00    +0.025 A 
ATOM     23  C   UNL     1      -4.886  -2.389   1.670  0.00  0.00    +0.015 A 
ATOM     24  C   UNL     1      -4.797  -3.106   2.867  0.00  0.00    +0.037 A 
ATOM     25  C   UNL     1      -3.576  -3.185   3.541  0.00  0.00    +0.015 A 
ATOM     26  C   UNL     1      -2.463  -2.563   3.022  0.00  0.00    +0.025 A 
BRANCH  24  27
ATOM     27  C   UNL     1      -5.992  -3.776   3.417  0.00  0.00    +0.244 C 
ATOM     28  O   UNL     1      -7.053  -3.706   2.830  0.00  0.00    -0.270 OA
ATOM     29  N   UNL     1      -5.904  -4.467   4.572  0.00  0.00    -0.311 N 
ATOM     30  H   UNL     1      -5.057  -4.523   5.040  0.00  0.00    +0.149 HD
BRANCH  29  31
ATOM     31  C   UNL     1      -7.090  -5.133   5.118  0.00  0.00    +0.109 C 
BRANCH  31  32
ATOM     32  C   UNL     1      -6.721  -5.839   6.424  0.00  0.00    +0.049 C 
BRANCH  32  33
ATOM     33  C   UNL     1      -7.940  -6.524   6.986  0.00  0.00    -0.072 C 
ATOM     34  C   UNL     1      -8.114  -7.777   6.710  0.00  0.00    -0.028 C 
ATOM     35  C   UNL     1      -9.282  -8.588   7.188  0.00  0.00    +0.027 C 
ATOM     36  C   UNL     1      -9.976  -7.879   8.353  0.00  0.00    +0.004 C 
ATOM     37  C   UNL     1     -10.228  -6.420   7.952  0.00  0.00    +0.005 C 
ATOM     38  C   UNL     1      -8.874  -5.713   7.836  0.00  0.00    +0.030 C 
ENDBRANCH  32  33
ENDBRANCH  31  32
ENDBRANCH  29  31
ENDBRANCH  24  27
ENDBRANCH  17  21
TORSDOF 5
