REMARK  Name = ZINC06275853
REMARK  8 active torsions:
REMARK  status: ('A' for Active; 'I' for Inactive)
REMARK    1  A    between atoms: C_1  and  C_2
REMARK    2  A    between atoms: C_7  and  C_8
REMARK    3  A    between atoms: C_12  and  C_15
REMARK    4  A    between atoms: C_19  and  C_22
REMARK    5  A    between atoms: C_20  and  O_21
REMARK    6  A    between atoms: C_22  and  C_23
REMARK    7  A    between atoms: C_28  and  C_30
REMARK    8  A    between atoms: C_28  and  C_31
REMARK                            x       y       z     vdW  Elec       q    Type
REMARK                         _______ _______ _______ _____ _____    ______ ____
ROOT
ATOM      1  C   UNL     1       0.987   1.123   1.690  0.00  0.00    +0.044 C 
ATOM      2  C   UNL     1      -0.478   1.410   1.892  0.00  0.00    -0.046 A 
ATOM      3  C   UNL     1      -0.914   1.960   3.086  0.00  0.00    +0.028 A 
ATOM      4  C   UNL     1      -2.263   2.219   3.261  0.00  0.00    +0.050 A 
ATOM      5  C   UNL     1      -3.163   1.961   2.237  0.00  0.00    +0.053 A 
ATOM      6  C   UNL     1      -2.727   1.400   1.049  0.00  0.00    +0.028 A 
ATOM      7  C   UNL     1      -1.380   1.121   0.884  0.00  0.00    -0.046 A 
ATOM      8  C   UNL     1      -0.895   0.505  -0.403  0.00  0.00    +0.044 C 
ATOM      9  N   UNL     1      -4.483   2.343   2.436  0.00  0.00    -0.316 N 
ATOM     10  C   UNL     1      -5.317   1.804   3.361  0.00  0.00    +0.017 C 
ATOM     11  C   UNL     1      -4.987   1.579   4.646  0.00  0.00    +0.037 C 
ATOM     12  C   UNL     1      -3.651   1.877   5.282  0.00  0.00    +0.139 C 
ATOM     13  N   UNL     1      -2.765   2.689   4.475  0.00  0.00    -0.331 N 
ATOM     14  C   UNL     1      -5.928   1.004   5.531  0.00  0.00    +0.163 C 
ATOM     15  O   UNL     1      -5.612   0.832   6.692  0.00  0.00    -0.292 OA
ATOM     16  C   UNL     1      -7.303   0.599   5.089  0.00  0.00    +0.086 C 
ATOM     17  C   UNL     1      -7.254   0.251   3.597  0.00  0.00    -0.023 C 
ATOM     18  C   UNL     1      -6.708   1.469   2.853  0.00  0.00    +0.058 C 
ATOM     19  C   UNL     1      -6.332  -0.949   3.374  0.00  0.00    +0.011 C 
ATOM     20  C   UNL     1      -8.662  -0.077   3.095  0.00  0.00    +0.011 C 
ATOM     21  H   UNL     1      -4.925   3.139   1.819  0.00  0.00    +0.152 HD
ATOM     22  H   UNL     1      -2.477   3.695   4.816  0.00  0.00    +0.147 HD
ENDROOT
BRANCH  12  23
ATOM     23  C   UNL     1      -2.962   0.569   5.577  0.00  0.00    +0.019 A 
ATOM     24  C   UNL     1      -2.567  -0.254   4.540  0.00  0.00    +0.009 A 
ATOM     25  C   UNL     1      -1.935  -1.453   4.810  0.00  0.00    +0.001 A 
ATOM     26  C   UNL     1      -1.695  -1.832   6.119  0.00  0.00    +0.007 A 
ATOM     27  C   UNL     1      -2.088  -1.012   7.159  0.00  0.00    -0.002 A 
ATOM     28  C   UNL     1      -2.718   0.194   6.890  0.00  0.00    +0.126 A 
BRANCH  28  29
ATOM     29  O   UNL     1      -3.100   1.005   7.912  0.00  0.00    -0.506 OA
ATOM     30  H   UNL     1      -2.906   0.706   8.953  0.00  0.00    +0.292 HD
ENDBRANCH  28  29
BRANCH  27  31
ATOM     31  C   UNL     1      -1.827  -1.426   8.584  0.00  0.00    +0.065 C 
BRANCH  31  32
ATOM     32  C   UNL     1      -3.048  -2.112   9.140  0.00  0.00    -0.030 C 
ATOM     33  C   UNL     1      -2.948  -3.313   9.653  0.00  0.00    +0.004 C 
ENDBRANCH  31  32
ENDBRANCH  27  31
ENDBRANCH  12  23
TORSDOF 4
