REMARK  Name = ZINC05130222
REMARK  8 active torsions:
REMARK  status: ('A' for Active; 'I' for Inactive)
REMARK    1  A    between atoms: C_1  and  C_2
REMARK    2  A    between atoms: C_2  and  C_3
REMARK    3  A    between atoms: C_2  and  O_4
REMARK    4  A    between atoms: O_4  and  C_5
REMARK    5  A    between atoms: C_10  and  C_11
REMARK    6  A    between atoms: C_14  and  C_25
REMARK    7  A    between atoms: C_20  and  N_24
REMARK    8  A    between atoms: C_21  and  C_22
REMARK                            x       y       z     vdW  Elec       q    Type
REMARK                         _______ _______ _______ _____ _____    ______ ____
ROOT
ATOM      1  C   UNL     1       2.339  -0.841   3.439  0.00  0.00    +0.105 C 
ATOM      2  C   UNL     1       2.759  -2.169   4.014  0.00  0.00    +0.054 A 
ATOM      3  C   UNL     1       2.725  -3.437   3.426  0.00  0.00    +0.100 A 
ATOM      4  N   UNL     1       3.191  -4.304   4.306  0.00  0.00    -0.171 NA
ATOM      5  N   UNL     1       3.532  -3.607   5.475  0.00  0.00    -0.246 N 
ATOM      6  H   UNL     1       3.899  -3.997   6.285  0.00  0.00    +0.192 HD
ATOM      7  C   UNL     1       3.261  -2.301   5.276  0.00  0.00    +0.223 A 
ATOM      8  O   UNL     1       3.425  -1.246   6.113  0.00  0.00    -0.423 OA
ATOM      9  C   UNL     1       3.337  -0.009   5.583  0.00  0.00    +0.200 C 
ATOM     10  C   UNL     1       2.848   0.249   4.349  0.00  0.00    +0.098 C 
ENDROOT
BRANCH   1  16
ATOM     11  C   UNL     1       0.221  -0.417   2.166  0.00  0.00    +0.125 A 
ATOM     12  C   UNL     1      -1.164  -0.362   2.092  0.00  0.00    +0.046 A 
ATOM     13  C   UNL     1      -1.926  -0.658   3.205  0.00  0.00    +0.004 A 
ATOM     14  C   UNL     1      -1.310  -1.008   4.393  0.00  0.00    +0.001 A 
ATOM     15  C   UNL     1       0.069  -1.063   4.469  0.00  0.00    +0.008 A 
ATOM     16  C   UNL     1       0.836  -0.774   3.357  0.00  0.00    +0.007 A 
BRANCH  11  17
ATOM     17  O   UNL     1       0.973  -0.128   1.071  0.00  0.00    -0.489 OA
BRANCH  17  19
ATOM     18  C   UNL     1       0.001   1.829   0.039  0.00  0.00    +0.051 C 
ATOM     19  C   UNL     1       0.278   0.330  -0.090  0.00  0.00    +0.167 C 
ATOM     20  C   UNL     1       1.137   0.076  -1.331  0.00  0.00    +0.051 C 
ENDBRANCH  17  19
ENDBRANCH  11  17
ENDBRANCH   1  16
BRANCH   3  21
ATOM     21  C   UNL     1       2.250  -3.753   2.057  0.00  0.00    +0.003 A 
ATOM     22  C   UNL     1       2.573  -2.913   0.993  0.00  0.00    +0.010 A 
ATOM     23  C   UNL     1       2.128  -3.211  -0.279  0.00  0.00    +0.001 A 
ATOM     24  C   UNL     1       1.363  -4.342  -0.499  0.00  0.00    +0.000 A 
ATOM     25  C   UNL     1       1.038  -5.179   0.553  0.00  0.00    +0.001 A 
ATOM     26  C   UNL     1       1.483  -4.894   1.828  0.00  0.00    +0.010 A 
ENDBRANCH   3  21
BRANCH   9  27
ATOM     27  N   UNL     1       3.772   1.051   6.340  0.00  0.00    -0.328 N 
ATOM     28  H   UNL     1       4.128   0.898   7.229  0.00  0.00    +0.145 HD
ATOM     29  H   UNL     1       3.722   1.953   5.986  0.00  0.00    +0.145 HD
ENDBRANCH   9  27
BRANCH  10  30
ATOM     30  C   UNL     1       2.809   1.605   3.890  0.00  0.00    +0.101 C 
ATOM     31  N   UNL     1       2.779   2.681   3.526  0.00  0.00    -0.191 NA
ENDBRANCH  10  30
TORSDOF 6
