REMARK  Name = ZINC20856010
REMARK  7 active torsions:
REMARK  status: ('A' for Active; 'I' for Inactive)
REMARK    1  A    between atoms: C_10  and  C_12
REMARK    2  A    between atoms: C_18  and  C_20
REMARK    3  A    between atoms: C_20  and  O_22
REMARK    4  A    between atoms: O_22  and  C_23
REMARK    5  A    between atoms: C_23  and  C_24
REMARK    6  A    between atoms: N_26  and  C_27
REMARK    7  A    between atoms: C_29  and  N_34
REMARK                            x       y       z     vdW  Elec       q    Type
REMARK                         _______ _______ _______ _____ _____    ______ ____
ROOT
ATOM      1  C   UNL     1       0.219   0.757   0.112  0.00  0.00    +0.311 C 
ATOM      2  O   UNL     1       0.542  -0.405   0.057  0.00  0.00    -0.251 OA
ENDROOT
BRANCH   1   8
ATOM      3  C   UNL     1       2.638   1.196  -0.214  0.00  0.00    +0.089 C 
ATOM      4  C   UNL     1       3.697   2.292  -0.348  0.00  0.00    +0.013 C 
ATOM      5  C   UNL     1       3.708   3.148   0.919  0.00  0.00    +0.001 C 
ATOM      6  C   UNL     1       2.332   3.789   1.114  0.00  0.00    +0.001 C 
ATOM      7  C   UNL     1       1.273   2.693   1.248  0.00  0.00    +0.015 C 
ATOM      8  C   UNL     1       1.262   1.837  -0.020  0.00  0.00    +0.110 C 
BRANCH   3  18
ATOM      9  C   UNL     1       4.434  -2.896  -5.027  0.00  0.00    +0.000 A 
ATOM     10  C   UNL     1       3.272  -2.147  -5.056  0.00  0.00    +0.002 A 
ATOM     11  C   UNL     1       2.950  -1.324  -3.998  0.00  0.00    +0.024 A 
ATOM     12  C   UNL     1       3.795  -1.240  -2.889  0.00  0.00    +0.039 A 
ATOM     13  C   UNL     1       4.957  -1.994  -2.870  0.00  0.00    -0.024 A 
ATOM     14  C   UNL     1       5.275  -2.818  -3.932  0.00  0.00    +0.005 A 
ATOM     15  C   UNL     1       5.684  -1.724  -1.572  0.00  0.00    +0.056 C 
ATOM     16  C   UNL     1       4.797  -0.707  -0.835  0.00  0.00    +0.118 C 
ATOM     17  N   UNL     1       3.656  -0.477  -1.725  0.00  0.00    -0.271 N 
ATOM     18  C   UNL     1       2.627   0.352  -1.463  0.00  0.00    +0.224 C 
ATOM     19  O   UNL     1       1.691   0.420  -2.232  0.00  0.00    -0.275 OA
ENDBRANCH   3  18
ENDBRANCH   1   8
BRANCH   1  20
ATOM     20  O   UNL     1      -1.070   1.088   0.286  0.00  0.00    -0.455 OA
BRANCH  20  21
ATOM     21  C   UNL     1      -2.021  -0.004   0.400  0.00  0.00    +0.328 C 
BRANCH  21  22
ATOM     22  C   UNL     1      -3.408   0.555   0.589  0.00  0.00    +0.255 C 
ATOM     23  O   UNL     1      -3.578   1.756   0.625  0.00  0.00    -0.272 OA
ATOM     24  N   UNL     1      -4.459  -0.279   0.719  0.00  0.00    -0.281 N 
ATOM     25  H   UNL     1      -4.295  -1.365   0.776  0.00  0.00    +0.155 HD
BRANCH  24  26
ATOM     26  C   UNL     1      -5.758   0.238   0.781  0.00  0.00    +0.054 A 
ATOM     27  C   UNL     1      -6.040   1.480   0.229  0.00  0.00    +0.057 A 
ATOM     28  C   UNL     1      -7.324   1.987   0.291  0.00  0.00    +0.128 A 
ATOM     29  C   UNL     1      -8.328   1.258   0.901  0.00  0.00    +0.034 A 
ATOM     30  C   UNL     1      -8.052   0.020   1.452  0.00  0.00    +0.024 A 
ATOM     31  C   UNL     1      -6.770  -0.495   1.389  0.00  0.00    +0.062 A 
ATOM     32 CL   UNL     1      -6.425  -2.052   2.075  0.00  0.00    -0.082 Cl
BRANCH  28  33
ATOM     33  N   UNL     1      -7.625   3.311  -0.297  0.00  0.00    +0.056 N 
ATOM     34  O   UNL     1      -6.741   3.954  -0.835  0.00  0.00    -0.126 OA
ATOM     35  O   UNL     1      -8.756   3.759  -0.243  0.00  0.00    -0.126 OA
ENDBRANCH  28  33
ENDBRANCH  24  26
ENDBRANCH  21  22
ENDBRANCH  20  21
ENDBRANCH   1  20
TORSDOF 7
