REMARK  Name = ZINC02550009
REMARK  6 active torsions:
REMARK  status: ('A' for Active; 'I' for Inactive)
REMARK    1  A    between atoms: C_4  and  C_7
REMARK    2  A    between atoms: C_11  and  C_15
REMARK    3  A    between atoms: N_17  and  C_18
REMARK    4  A    between atoms: C_21  and  O_24
REMARK    5  A    between atoms: O_24  and  C_25
REMARK    6  A    between atoms: N_29  and  C_30
REMARK                            x       y       z     vdW  Elec       q    Type
REMARK                         _______ _______ _______ _____ _____    ______ ____
ROOT
ATOM      1  C   UNL     1       2.863  -1.722  -0.303  0.00  0.00    +0.032 C 
ATOM      2  C   UNL     1       3.440  -2.395  -1.551  0.00  0.00    +0.058 C 
ATOM      3  C   UNL     1       4.931  -2.570  -1.372  0.00  0.00    +0.013 C 
ATOM      4  C   UNL     1       5.421  -3.305  -0.141  0.00  0.00    +0.183 C 
ATOM      5  C   UNL     1       4.669  -2.746   1.050  0.00  0.00    +0.151 C 
ATOM      6  O   UNL     1       5.249  -2.444   2.066  0.00  0.00    -0.296 OA
ATOM      7  C   UNL     1       3.171  -2.576   0.930  0.00  0.00    +0.084 C 
ATOM      8  N   UNL     1       5.763  -2.107  -2.243  0.00  0.00    -0.361 N 
ATOM      9  H   UNL     1       6.710  -2.303  -2.163  0.00  0.00    +0.165 HD
ENDROOT
BRANCH   1  13
ATOM     10  C   UNL     1      -1.368  -1.320  -0.734  0.00  0.00    +0.000 A 
ATOM     11  C   UNL     1      -0.580  -0.196  -0.565  0.00  0.00    +0.000 A 
ATOM     12  C   UNL     1       0.789  -0.327  -0.426  0.00  0.00    +0.004 A 
ATOM     13  C   UNL     1       1.370  -1.580  -0.454  0.00  0.00    -0.044 A 
ATOM     14  C   UNL     1       0.582  -2.704  -0.622  0.00  0.00    +0.004 A 
ATOM     15  C   UNL     1      -0.786  -2.573  -0.763  0.00  0.00    +0.000 A 
ENDBRANCH   1  13
BRANCH   8  16
ATOM     16  C   UNL     1       5.309  -1.336  -3.285  0.00  0.00    +0.039 A 
ATOM     17  C   UNL     1       4.649  -0.134  -3.030  0.00  0.00    +0.025 A 
ATOM     18  C   UNL     1       4.194   0.636  -4.081  0.00  0.00    +0.002 A 
ATOM     19  C   UNL     1       4.391   0.218  -5.385  0.00  0.00    +0.000 A 
ATOM     20  C   UNL     1       5.045  -0.974  -5.644  0.00  0.00    +0.002 A 
ATOM     21  C   UNL     1       5.510  -1.749  -4.602  0.00  0.00    +0.025 A 
ENDBRANCH   8  16
BRANCH   4  22
ATOM     22  C   UNL     1       5.140  -4.779  -0.278  0.00  0.00    +0.233 C 
ATOM     23  O   UNL     1       4.595  -5.202  -1.276  0.00  0.00    -0.274 OA
ATOM     24  N   UNL     1       5.494  -5.627   0.708  0.00  0.00    -0.285 N 
ATOM     25  H   UNL     1       5.862  -5.282   1.536  0.00  0.00    +0.155 HD
BRANCH  24  26
ATOM     26  C   UNL     1       5.331  -7.008   0.536  0.00  0.00    +0.034 A 
ATOM     27  C   UNL     1       4.984  -7.807   1.617  0.00  0.00    +0.027 A 
ATOM     28  C   UNL     1       4.822  -9.167   1.447  0.00  0.00    +0.048 A 
ATOM     29  C   UNL     1       5.007  -9.737   0.196  0.00  0.00    +0.130 A 
ATOM     30  C   UNL     1       5.354  -8.940  -0.885  0.00  0.00    +0.048 A 
ATOM     31  C   UNL     1       5.510  -7.578  -0.718  0.00  0.00    +0.027 A 
BRANCH  29  32
ATOM     32  O   UNL     1       4.849 -11.077   0.029  0.00  0.00    -0.406 OA
BRANCH  32  33
ATOM     33  C   UNL     1       5.054 -11.596  -1.286  0.00  0.00    +0.575 C 
ATOM     34  F   UNL     1       6.362 -11.318  -1.698  0.00  0.00    -0.133 F 
ATOM     35  F   UNL     1       4.852 -12.980  -1.279  0.00  0.00    -0.133 F 
ATOM     36  F   UNL     1       4.150 -10.997  -2.171  0.00  0.00    -0.133 F 
ENDBRANCH  32  33
ENDBRANCH  29  32
ENDBRANCH  24  26
ENDBRANCH   4  22
TORSDOF 6
