REMARK  Name = ZINC39446295
REMARK  10 active torsions:
REMARK  status: ('A' for Active; 'I' for Inactive)
REMARK    1  A    between atoms: C_1  and  C_2
REMARK    2  A    between atoms: C_4  and  C_31
REMARK    3  A    between atoms: C_7  and  C_12
REMARK    4  A    between atoms: C_12  and  O_14
REMARK    5  A    between atoms: O_14  and  C_15
REMARK    6  A    between atoms: C_15  and  C_16
REMARK    7  A    between atoms: N_18  and  C_19
REMARK    8  A    between atoms: N_18  and  C_20
REMARK    9  A    between atoms: C_20  and  C_21
REMARK   10  A    between atoms: N_23  and  C_24
REMARK                            x       y       z     vdW  Elec       q    Type
REMARK                         _______ _______ _______ _____ _____    ______ ____
ROOT
ATOM      1  C   UNL     1       6.832  -4.639  -1.536  0.00  0.00    +0.328 C 
ENDROOT
BRANCH   1   2
ATOM      2  C   UNL     1       7.812  -5.293  -0.596  0.00  0.00    +0.253 C 
ATOM      3  O   UNL     1       7.672  -5.177   0.603  0.00  0.00    -0.272 OA
ATOM      4  N   UNL     1       8.844  -6.007  -1.088  0.00  0.00    -0.293 N 
ATOM      5  C   UNL     1       9.013  -6.147  -2.536  0.00  0.00    +0.132 C 
BRANCH   4   6
ATOM      6  C   UNL     1       9.796  -6.643  -0.174  0.00  0.00    +0.203 C 
BRANCH   6   7
ATOM      7  C   UNL     1       9.321  -8.033   0.159  0.00  0.00    +0.235 C 
ATOM      8  O   UNL     1       8.289  -8.452  -0.320  0.00  0.00    -0.274 OA
ATOM      9  N   UNL     1      10.044  -8.812   0.989  0.00  0.00    -0.283 N 
ATOM     10  H   UNL     1      10.902  -8.502   1.320  0.00  0.00    +0.155 HD
BRANCH   9  11
ATOM     11  C   UNL     1       9.557 -10.066   1.373  0.00  0.00    +0.052 A 
ATOM     12  C   UNL     1       8.816 -10.828   0.479  0.00  0.00    +0.025 A 
ATOM     13  C   UNL     1       8.337 -12.066   0.861  0.00  0.00    +0.002 A 
ATOM     14  C   UNL     1       8.595 -12.548   2.131  0.00  0.00    +0.002 A 
ATOM     15  C   UNL     1       9.333 -11.793   3.024  0.00  0.00    +0.022 A 
ATOM     16  C   UNL     1       9.819 -10.555   2.647  0.00  0.00    +0.062 A 
ATOM     17 CL   UNL     1      10.752  -9.610   3.765  0.00  0.00    -0.082 Cl
ENDBRANCH   9  11
ENDBRANCH   6   7
ENDBRANCH   4   6
ENDBRANCH   1   2
BRANCH   1  18
ATOM     18  O   UNL     1       5.837  -3.946  -0.779  0.00  0.00    -0.452 OA
BRANCH  18  19
ATOM     19  C   UNL     1       4.878  -3.303  -1.475  0.00  0.00    +0.340 C 
ATOM     20  O   UNL     1       4.887  -3.330  -2.690  0.00  0.00    -0.245 OA
BRANCH  19  26
ATOM     21  C   UNL     1       0.023   1.560  -0.057  0.00  0.00    +0.035 C 
ATOM     22  C   UNL     1       0.037   0.030  -0.055  0.00  0.00    +0.103 C 
ATOM     23  C   UNL     1       0.762  -0.486  -1.278  0.00  0.00    -0.042 C 
ATOM     24  C   UNL     1       1.819  -1.201  -0.814  0.00  0.00    -0.000 A 
ATOM     25  C   UNL     1       2.846  -1.915  -1.485  0.00  0.00    +0.025 A 
ATOM     26  C   UNL     1       3.819  -2.567  -0.762  0.00  0.00    +0.060 A 
ATOM     27  C   UNL     1       3.822  -2.544   0.697  0.00  0.00    +0.017 A 
ATOM     28  C   UNL     1       2.871  -1.882   1.387  0.00  0.00    +0.027 A 
ATOM     29  C   UNL     1       1.810  -1.170   0.665  0.00  0.00    +0.043 A 
ATOM     30  N   UNL     1       0.792  -0.467   1.101  0.00  0.00    -0.378 N 
ATOM     31  C   UNL     1       0.386  -0.254  -2.718  0.00  0.00    +0.042 C 
ATOM     32  H   UNL     1       0.574  -0.303   2.032  0.00  0.00    +0.160 HD
ENDBRANCH  19  26
ENDBRANCH  18  19
ENDBRANCH   1  18
TORSDOF 7
