REMARK  Name = ZINC35926363
REMARK  6 active torsions:
REMARK  status: ('A' for Active; 'I' for Inactive)
REMARK    1  A    between atoms: C_1  and  C_2
REMARK    2  A    between atoms: N_5  and  C_8
REMARK    3  A    between atoms: C_8  and  C_9
REMARK    4  A    between atoms: C_23  and  C_25
REMARK    5  A    between atoms: C_25  and  O_26
REMARK    6  A    between atoms: O_26  and  C_27
REMARK                            x       y       z     vdW  Elec       q    Type
REMARK                         _______ _______ _______ _____ _____    ______ ____
ROOT
ATOM      1  C   UNL     1      -0.145  -4.372   2.733  0.00  0.00    +0.034 A 
ATOM      2  C   UNL     1      -0.917  -4.996   3.670  0.00  0.00    +0.091 A 
ATOM      3  C   UNL     1      -0.326  -5.396   4.881  0.00  0.00    +0.253 A 
ATOM      4  O   UNL     1      -0.986  -5.956   5.741  0.00  0.00    -0.268 OA
ATOM      5  N   UNL     1       0.987  -5.147   5.075  0.00  0.00    -0.295 N 
ATOM      6  H   UNL     1       1.416  -5.415   5.904  0.00  0.00    +0.172 HD
ATOM      7  C   UNL     1       1.707  -4.522   4.105  0.00  0.00    +0.198 A 
ATOM      8  N   UNL     1       1.147  -4.155   2.970  0.00  0.00    -0.223 NA
ATOM      9  N   UNL     1       3.038  -4.274   4.309  0.00  0.00    -0.298 N 
ATOM     10  C   UNL     1       3.663  -4.568   5.606  0.00  0.00    +0.127 C 
ATOM     11  C   UNL     1       4.862  -5.496   5.372  0.00  0.00    +0.127 C 
ATOM     12  N   UNL     1       5.691  -4.931   4.298  0.00  0.00    -0.296 N 
ATOM     13  C   UNL     1       5.066  -4.636   3.002  0.00  0.00    +0.127 C 
ATOM     14  C   UNL     1       3.868  -3.713   3.233  0.00  0.00    +0.127 C 
ATOM     15  C   UNL     1       7.001  -4.686   4.499  0.00  0.00    +0.253 C 
ATOM     16  O   UNL     1       7.506  -4.933   5.574  0.00  0.00    -0.272 OA
ENDROOT
BRANCH   1  17
ATOM     17  C   UNL     1      -0.755  -3.934   1.427  0.00  0.00    -0.022 C 
BRANCH  17  22
ATOM     18  C   UNL     1      -0.032   1.555   0.059  0.00  0.00    +0.007 C 
ATOM     19  C   UNL     1      -0.009   0.025   0.039  0.00  0.00    -0.018 C 
ATOM     20  C   UNL     1      -1.444  -0.508   0.058  0.00  0.00    -0.016 C 
ATOM     21  C   UNL     1      -1.414  -2.037   0.118  0.00  0.00    -0.078 C 
ATOM     22  N   UNL     1      -0.714  -2.469   1.334  0.00  0.00    +0.383 N 
ATOM     23  C   UNL     1       0.684  -2.022   1.289  0.00  0.00    -0.078 C 
ATOM     24  C   UNL     1       0.734  -0.492   1.274  0.00  0.00    -0.016 C 
ATOM     25  H   UNL     1      -1.168  -2.070   2.142  0.00  0.00    -0.081 HD
ENDBRANCH  17  22
ENDBRANCH   1  17
BRANCH  15  26
ATOM     26  C   UNL     1       7.839  -4.106   3.389  0.00  0.00    +0.324 C 
BRANCH  26  27
ATOM     27  O   UNL     1       9.183  -3.940   3.843  0.00  0.00    -0.483 OA
BRANCH  27  28
ATOM     28  C   UNL     1      10.075  -3.424   2.956  0.00  0.00    +0.121 A 
ATOM     29  C   UNL     1       9.662  -3.079   1.677  0.00  0.00    +0.047 A 
ATOM     30  C   UNL     1      10.570  -2.554   0.777  0.00  0.00    +0.023 A 
ATOM     31  C   UNL     1      11.890  -2.374   1.151  0.00  0.00    +0.041 A 
ATOM     32  C   UNL     1      12.303  -2.718   2.426  0.00  0.00    +0.023 A 
ATOM     33  C   UNL     1      11.397  -3.236   3.330  0.00  0.00    +0.047 A 
ATOM     34 CL   UNL     1      13.028  -1.715   0.018  0.00  0.00    -0.084 Cl
ENDBRANCH  27  28
ENDBRANCH  26  27
ENDBRANCH  15  26
TORSDOF 5
