REMARK  Name = ZINC06419797
REMARK  7 active torsions:
REMARK  status: ('A' for Active; 'I' for Inactive)
REMARK    1  A    between atoms: C_1  and  C_2
REMARK    2  A    between atoms: C_2  and  C_3
REMARK    3  A    between atoms: C_3  and  C_4
REMARK    4  A    between atoms: C_4  and  C_5
REMARK    5  A    between atoms: C_12  and  N_25
REMARK    6  A    between atoms: C_13  and  C_23
REMARK    7  A    between atoms: C_14  and  C_16
REMARK                            x       y       z     vdW  Elec       q    Type
REMARK                         _______ _______ _______ _____ _____    ______ ____
ROOT
ATOM      1  C   UNL     1      -0.999  -0.873  -0.206  0.00  0.00    +0.044 A 
ATOM      2  C   UNL     1       0.002  -0.004   0.002  0.00  0.00    +0.049 A 
ATOM      3  C   UNL     1       1.183  -0.743   0.234  0.00  0.00    +0.245 A 
ATOM      4  N   UNL     1       0.886  -2.008   0.166  0.00  0.00    -0.135 NA
ATOM      5  N   UNL     1      -0.485  -2.121  -0.111  0.00  0.00    -0.278 N 
ATOM      6  H   UNL     1      -0.994  -2.975  -0.220  0.00  0.00    +0.189 HD
ATOM      7  O   UNL     1       2.377  -0.137   0.475  0.00  0.00    -0.421 OA
ATOM      8  C   UNL     1       2.465   1.184   0.223  0.00  0.00    +0.201 C 
ATOM      9  C   UNL     1       1.408   1.992  -0.001  0.00  0.00    +0.098 C 
ATOM     10  C   UNL     1      -0.018   1.503   0.010  0.00  0.00    +0.101 C 
ENDROOT
BRANCH  10  11
ATOM     11  C   UNL     1      -0.715   1.996   1.252  0.00  0.00    -0.034 A 
ATOM     12  C   UNL     1      -0.223   1.660   2.500  0.00  0.00    +0.007 A 
ATOM     13  C   UNL     1      -0.858   2.116   3.639  0.00  0.00    +0.038 A 
ATOM     14  C   UNL     1      -1.995   2.899   3.532  0.00  0.00    +0.123 A 
ATOM     15  C   UNL     1      -2.490   3.229   2.282  0.00  0.00    +0.038 A 
ATOM     16  C   UNL     1      -1.850   2.778   1.143  0.00  0.00    +0.007 A 
ATOM     17  F   UNL     1      -2.620   3.340   4.645  0.00  0.00    -0.205 F 
ENDBRANCH  10  11
BRANCH   8  18
ATOM     18  N   UNL     1       3.717   1.746   0.192  0.00  0.00    -0.328 N 
ATOM     19  H   UNL     1       4.500   1.195   0.349  0.00  0.00    +0.145 HD
ATOM     20  H   UNL     1       3.818   2.694   0.014  0.00  0.00    +0.145 HD
ENDBRANCH   8  18
BRANCH   9  21
ATOM     21  C   UNL     1       1.652   3.379  -0.261  0.00  0.00    +0.101 C 
ATOM     22  N   UNL     1       1.846   4.479  -0.467  0.00  0.00    -0.191 NA
ENDBRANCH   9  21
BRANCH   1  23
ATOM     23  C   UNL     1      -2.436  -0.521  -0.493  0.00  0.00    +0.055 C 
BRANCH  23  24
ATOM     24  C   UNL     1      -2.610  -0.270  -1.992  0.00  0.00    +0.006 C 
BRANCH  24  26
ATOM     25  C   UNL     1      -4.243   0.338  -3.783  0.00  0.00    +0.004 C 
ATOM     26  C   UNL     1      -4.069   0.087  -2.284  0.00  0.00    -0.003 C 
ENDBRANCH  24  26
ENDBRANCH  23  24
ENDBRANCH   1  23
TORSDOF 6
