REMARK  Name = ZINC01375072
REMARK  12 active torsions:
REMARK  status: ('A' for Active; 'I' for Inactive)
REMARK    1  A    between atoms: C_1  and  C_2
REMARK    2  A    between atoms: C_2  and  C_3
REMARK    3  A    between atoms: C_3  and  C_5
REMARK    4  A    between atoms: C_3  and  N_17
REMARK    5  A    between atoms: N_9  and  C_10
REMARK    6  A    between atoms: C_10  and  C_11
REMARK    7  A    between atoms: N_17  and  C_18
REMARK    8  A    between atoms: N_17  and  C_28
REMARK    9  A    between atoms: C_18  and  C_19
REMARK   10  A    between atoms: C_28  and  C_29
REMARK   11  A    between atoms: C_33  and  C_42
REMARK   12  A    between atoms: C_34  and  C_41
REMARK                            x       y       z     vdW  Elec       q    Type
REMARK                         _______ _______ _______ _____ _____    ______ ____
ROOT
ATOM      1  N   UNL     1      -1.925   0.503  -1.354  0.00  0.00    -0.284 NA
ENDROOT
BRANCH   1   2
ATOM      2  C   UNL     1      -1.472  -0.852  -1.013  0.00  0.00    +0.127 C 
BRANCH   2   3
ATOM      3  C   UNL     1       0.017  -0.953  -1.226  0.00  0.00    +0.169 A 
ATOM      4  N   UNL     1       0.850   0.043  -1.405  0.00  0.00    -0.112 NA
ATOM      5  N   UNL     1       2.032  -0.449  -1.550  0.00  0.00    -0.023 NA
ATOM      6  N   UNL     1       1.974  -1.733  -1.467  0.00  0.00    -0.044 NA
ATOM      7  N   UNL     1       0.749  -2.081  -1.262  0.00  0.00    -0.223 N 
BRANCH   7   8
ATOM      8  C   UNL     1       0.248  -3.449  -1.103  0.00  0.00    +0.182 C 
BRANCH   8   9
ATOM      9  C   UNL     1      -0.129  -4.006  -2.451  0.00  0.00    -0.026 A 
ATOM     10  C   UNL     1      -1.413  -3.834  -2.935  0.00  0.00    +0.005 A 
ATOM     11  C   UNL     1      -1.759  -4.345  -4.172  0.00  0.00    +0.000 A 
ATOM     12  C   UNL     1      -0.822  -5.028  -4.925  0.00  0.00    +0.000 A 
ATOM     13  C   UNL     1       0.461  -5.199  -4.441  0.00  0.00    +0.000 A 
ATOM     14  C   UNL     1       0.809  -4.684  -3.206  0.00  0.00    +0.005 A 
ENDBRANCH   8   9
ENDBRANCH   7   8
ENDBRANCH   2   3
BRANCH   2  16
ATOM     15  C   UNL     1      -3.309  -1.038   0.670  0.00  0.00    +0.006 C 
ATOM     16  C   UNL     1      -1.798  -1.145   0.453  0.00  0.00    +0.023 C 
ENDBRANCH   2  16
ENDBRANCH   1   2
BRANCH   1  17
ATOM     17  C   UNL     1      -3.353   0.509  -1.700  0.00  0.00    +0.120 C 
BRANCH  17  18
ATOM     18  C   UNL     1      -3.688   1.786  -2.426  0.00  0.00    -0.030 A 
ATOM     19  C   UNL     1      -4.252   2.844  -1.736  0.00  0.00    +0.009 A 
ATOM     20  C   UNL     1      -4.561   4.018  -2.398  0.00  0.00    +0.050 A 
ATOM     21  C   UNL     1      -4.307   4.137  -3.755  0.00  0.00    +0.166 A 
ATOM     22  C   UNL     1      -3.739   3.071  -4.449  0.00  0.00    +0.167 A 
ATOM     23  C   UNL     1      -3.427   1.900  -3.778  0.00  0.00    +0.054 A 
ATOM     24  O   UNL     1      -3.590   3.433  -5.757  0.00  0.00    -0.453 OA
ATOM     25  C   UNL     1      -4.445   4.577  -5.939  0.00  0.00    +0.466 C 
ATOM     26  O   UNL     1      -4.513   5.166  -4.627  0.00  0.00    -0.453 OA
ENDBRANCH  17  18
ENDBRANCH   1  17
BRANCH   1  27
ATOM     27  C   UNL     1      -1.645   1.442  -0.260  0.00  0.00    +0.126 C 
BRANCH  27  28
ATOM     28  C   UNL     1      -0.192   1.841  -0.301  0.00  0.00    +0.031 A 
ATOM     29  C   UNL     1       0.235   2.744  -1.219  0.00  0.00    +0.020 A 
ATOM     30  C   UNL     1       1.653   3.110  -1.232  0.00  0.00    -0.001 A 
ATOM     31  C   UNL     1       2.152   4.036  -2.154  0.00  0.00    +0.013 A 
ATOM     32  C   UNL     1       3.480   4.357  -2.140  0.00  0.00    -0.047 A 
ATOM     33  C   UNL     1       4.338   3.773  -1.218  0.00  0.00    -0.046 A 
ATOM     34  C   UNL     1       3.868   2.858  -0.301  0.00  0.00    +0.030 A 
ATOM     35  C   UNL     1       2.520   2.517  -0.295  0.00  0.00    +0.049 A 
ATOM     36  N   UNL     1       2.022   1.606   0.612  0.00  0.00    -0.322 N 
ATOM     37  H   UNL     1       2.621   1.197   1.257  0.00  0.00    +0.169 HD
ATOM     38  C   UNL     1       0.718   1.279   0.620  0.00  0.00    +0.254 A 
ATOM     39  O   UNL     1       0.312   0.474   1.440  0.00  0.00    -0.268 OA
ATOM     40  C   UNL     1       5.799   4.142  -1.222  0.00  0.00    +0.044 C 
ATOM     41  C   UNL     1       4.018   5.354  -3.134  0.00  0.00    +0.044 C 
ENDBRANCH  27  28
ENDBRANCH   1  27
TORSDOF 9
