REMARK  Name = ZINC40348721
REMARK  5 active torsions:
REMARK  status: ('A' for Active; 'I' for Inactive)
REMARK    1  A    between atoms: C_5  and  S_8
REMARK    2  A    between atoms: C_6  and  N_7
REMARK    3  A    between atoms: S_8  and  N_11
REMARK    4  A    between atoms: N_11  and  C_12
REMARK    5  A    between atoms: C_12  and  C_13
REMARK                            x       y       z     vdW  Elec       q    Type
REMARK                         _______ _______ _______ _____ _____    ______ ____
ROOT
ATOM      1  S   UNL     1       1.016  -2.389  -0.551  0.00  0.00    +0.062 S 
ATOM      2  O   UNL     1      -0.335  -2.664  -0.895  0.00  0.00    -0.153 OA
ATOM      3  O   UNL     1       2.102  -2.713  -1.410  0.00  0.00    -0.153 OA
ENDROOT
BRANCH   1   8
ATOM      4  C   UNL     1       0.073   1.405   0.422  0.00  0.00    +0.044 A 
ATOM      5  C   UNL     1       1.272   2.068   0.233  0.00  0.00    +0.044 A 
ATOM      6  C   UNL     1       2.389   1.372  -0.193  0.00  0.00    +0.042 A 
ATOM      7  C   UNL     1       2.311   0.011  -0.432  0.00  0.00    +0.070 A 
ATOM      8  C   UNL     1       1.115  -0.657  -0.246  0.00  0.00    +0.144 A 
ATOM      9  C   UNL     1      -0.008   0.039   0.183  0.00  0.00    +0.054 A 
ATOM     10 CL   UNL     1       3.715  -0.857  -0.968  0.00  0.00    -0.081 Cl
ATOM     11 CL   UNL     1       1.374   3.775   0.531  0.00  0.00    -0.083 Cl
BRANCH   9  12
ATOM     12  N   UNL     1      -1.217  -0.634   0.373  0.00  0.00    -0.356 N 
ATOM     13  H   UNL     1      -2.047  -0.135   0.424  0.00  0.00    +0.142 HD
ATOM     14  H   UNL     1      -1.227  -1.600   0.456  0.00  0.00    +0.142 HD
ENDBRANCH   9  12
ENDBRANCH   1   8
BRANCH   1  15
ATOM     15  N   UNL     1       1.305  -3.158   0.887  0.00  0.00    -0.190 NA
ATOM     16  H   UNL     1       2.094  -3.712   0.991  0.00  0.00    +0.148 HD
BRANCH  15  17
ATOM     17  C   UNL     1       0.368  -3.000   2.002  0.00  0.00    +0.111 C 
BRANCH  17  18
ATOM     18  C   UNL     1       0.644  -4.075   3.056  0.00  0.00    +0.027 C 
ATOM     19  C   UNL     1       2.034  -3.843   3.670  0.00  0.00    +0.029 C 
ATOM     20  C   UNL     1       2.161  -4.738   4.935  0.00  0.00    +0.166 C 
ATOM     21  S   UNL     1       0.480  -4.533   5.662  0.00  0.00    -0.031 S 
ATOM     22  O   UNL     1       0.505  -3.459   6.591  0.00  0.00    -0.174 OA
ATOM     23  O   UNL     1      -0.003  -5.804   6.075  0.00  0.00    -0.174 OA
ATOM     24  C   UNL     1      -0.438  -4.001   4.160  0.00  0.00    +0.170 C 
ENDBRANCH  17  18
ENDBRANCH  15  17
ENDBRANCH   1  15
TORSDOF 5
