REMARK  Name = ZINC32528234
REMARK  9 active torsions:
REMARK  status: ('A' for Active; 'I' for Inactive)
REMARK    1  A    between atoms: C_1  and  C_2
REMARK    2  A    between atoms: C_2  and  O_3
REMARK    3  A    between atoms: O_3  and  C_4
REMARK    4  A    between atoms: C_4  and  C_6
REMARK    5  A    between atoms: C_10  and  N_11
REMARK    6  A    between atoms: C_12  and  C_14
REMARK    7  A    between atoms: C_14  and  C_16
REMARK    8  A    between atoms: C_14  and  S_17
REMARK    9  A    between atoms: S_17  and  C_18
REMARK                            x       y       z     vdW  Elec       q    Type
REMARK                         _______ _______ _______ _____ _____    ______ ____
ROOT
ATOM      1  N   UNL     1      -2.397   9.720   0.715  0.00  0.00    -0.278 N 
ATOM      2  C   UNL     1      -1.218   9.337   0.186  0.00  0.00    +0.231 C 
ATOM      3  O   UNL     1      -0.419  10.172  -0.181  0.00  0.00    -0.274 OA
ATOM      4  H   UNL     1      -3.123   8.963   1.048  0.00  0.00    +0.155 HD
ENDROOT
BRANCH   1   9
ATOM      5  C   UNL     1      -3.849  11.653   1.347  0.00  0.00    +0.091 A 
ATOM      6  C   UNL     1      -3.911  13.104   1.370  0.00  0.00    -0.021 A 
ATOM      7  C   UNL     1      -2.824  13.734   0.874  0.00  0.00    -0.004 A 
ATOM      8  S   UNL     1      -1.727  12.432   0.390  0.00  0.00    -0.077 S 
ATOM      9  C   UNL     1      -2.697  11.068   0.839  0.00  0.00    +0.086 A 
ATOM     10  C   UNL     1      -2.609  15.212   0.763  0.00  0.00    +0.043 C 
ATOM     11  C   UNL     1      -3.962  15.914   0.952  0.00  0.00    +0.005 C 
ATOM     12  C   UNL     1      -4.652  15.328   2.187  0.00  0.00    +0.005 C 
ATOM     13  C   UNL     1      -5.101  13.894   1.901  0.00  0.00    +0.037 C 
BRANCH   5  14
ATOM     14  C   UNL     1      -4.958  10.837   1.846  0.00  0.00    +0.342 C 
ATOM     15  O   UNL     1      -4.991  10.505   3.016  0.00  0.00    -0.245 OA
BRANCH  14  16
ATOM     16  O   UNL     1      -5.944  10.454   1.008  0.00  0.00    -0.461 OA
BRANCH  16  18
ATOM     17  C   UNL     1      -8.028   9.312   0.479  0.00  0.00    +0.048 C 
ATOM     18  C   UNL     1      -7.011   9.647   1.572  0.00  0.00    +0.229 C 
ENDBRANCH  16  18
ENDBRANCH  14  16
ENDBRANCH   5  14
ENDBRANCH   1   9
BRANCH   2  19
ATOM     19  C   UNL     1      -0.893   7.872   0.052  0.00  0.00    +0.136 C 
ATOM     20  C   UNL     1      -1.484   7.336  -1.253  0.00  0.00    +0.029 C 
BRANCH  19  21
ATOM     21  S   UNL     1       0.904   7.652   0.035  0.00  0.00    -0.093 S 
BRANCH  21  22
ATOM     22  C   UNL     1       0.997   5.893   0.025  0.00  0.00    +0.098 A 
ATOM     23  C   UNL     1       2.255   5.273   0.010  0.00  0.00    +0.035 A 
ATOM     24  C   UNL     1       2.342   3.914   0.001  0.00  0.00    +0.012 A 
ATOM     25  C   UNL     1       1.146   3.167   0.008  0.00  0.00    +0.000 A 
ATOM     26  C   UNL     1       1.163   1.764   0.000  0.00  0.00    +0.010 A 
ATOM     27  C   UNL     1      -0.013   1.076   0.008  0.00  0.00    +0.001 A 
ATOM     28  C   UNL     1      -1.233   1.747   0.017  0.00  0.00    +0.002 A 
ATOM     29  C   UNL     1      -1.286   3.107   0.030  0.00  0.00    +0.028 A 
ATOM     30  C   UNL     1      -0.094   3.852   0.023  0.00  0.00    +0.072 A 
ATOM     31  N   UNL     1      -0.118   5.189   0.031  0.00  0.00    -0.240 NA
ENDBRANCH  21  22
ENDBRANCH  19  21
ENDBRANCH   2  19
TORSDOF 7
