REMARK  Name = ZINC09730068
REMARK  7 active torsions:
REMARK  status: ('A' for Active; 'I' for Inactive)
REMARK    1  A    between atoms: C_1  and  O_2
REMARK    2  A    between atoms: O_2  and  C_3
REMARK    3  A    between atoms: C_8  and  O_9
REMARK    4  A    between atoms: O_9  and  C_10
REMARK    5  A    between atoms: C_11  and  C_29
REMARK    6  A    between atoms: C_15  and  C_16
REMARK    7  A    between atoms: C_15  and  N_58
REMARK                            x       y       z     vdW  Elec       q    Type
REMARK                         _______ _______ _______ _____ _____    ______ ____
ROOT
ATOM      1  C   UNL     1       7.431  -4.868  -5.611  0.00  0.00    +0.162 A 
ATOM      2  C   UNL     1       7.554  -3.763  -4.787  0.00  0.00    +0.053 A 
ATOM      3  C   UNL     1       6.499  -3.372  -3.977  0.00  0.00    -0.043 A 
ATOM      4  C   UNL     1       5.320  -4.088  -3.986  0.00  0.00    -0.049 A 
ATOM      5  C   UNL     1       5.192  -5.196  -4.812  0.00  0.00    +0.052 A 
ATOM      6  C   UNL     1       6.241  -5.589  -5.624  0.00  0.00    +0.162 A 
ATOM      7  C   UNL     1       4.152  -3.707  -3.115  0.00  0.00    +0.001 C 
ATOM      8  C   UNL     1       5.609  -2.138  -2.009  0.00  0.00    -0.072 C 
ATOM      9  C   UNL     1       6.679  -2.158  -3.101  0.00  0.00    +0.017 C 
ATOM     10  N   UNL     1       4.294  -2.313  -2.662  0.00  0.00    +0.393 N 
ATOM     11  H   UNL     1       4.237  -1.688  -3.474  0.00  0.00    -0.080 HD
ENDROOT
BRANCH   7  12
ATOM     12  C   UNL     1       2.877  -3.833  -3.909  0.00  0.00    -0.019 A 
ATOM     13  C   UNL     1       1.978  -4.847  -3.925  0.00  0.00    +0.010 A 
ATOM     14  C   UNL     1       0.865  -4.744  -4.738  0.00  0.00    +0.008 A 
ATOM     15  C   UNL     1       0.711  -3.636  -5.504  0.00  0.00    +0.045 A 
ATOM     16  S   UNL     1       2.163  -2.688  -5.079  0.00  0.00    -0.103 S 
ENDBRANCH   7  12
BRANCH   1  18
ATOM     17  C   UNL     1       9.659  -4.459  -6.337  0.00  0.00    +0.277 C 
ATOM     18  O   UNL     1       8.469  -5.247  -6.404  0.00  0.00    -0.491 OA
ENDBRANCH   1  18
BRANCH   6  19
ATOM     19  O   UNL     1       6.110  -6.675  -6.431  0.00  0.00    -0.491 OA
ATOM     20  C   UNL     1       4.859  -7.365  -6.391  0.00  0.00    +0.277 C 
ENDBRANCH   6  19
BRANCH  10  21
ATOM     21  C   UNL     1       3.208  -1.974  -1.716  0.00  0.00    +0.020 C 
BRANCH  21  22
ATOM     22  C   UNL     1       3.257  -0.496  -1.424  0.00  0.00    +0.204 C 
ATOM     23  O   UNL     1       4.112   0.195  -1.937  0.00  0.00    -0.277 OA
ATOM     24  N   UNL     1       2.352   0.057  -0.594  0.00  0.00    -0.262 N 
ATOM     25  C   UNL     1       1.306  -0.759   0.041  0.00  0.00    +0.209 C 
ATOM     26  C   UNL     1       0.002  -0.004   0.002  0.00  0.00    +0.235 C 
ATOM     27  O   UNL     1      -1.044  -0.617  -0.036  0.00  0.00    -0.274 OA
ATOM     28  N   UNL     1      -0.016   1.342   0.009  0.00  0.00    -0.283 N 
ATOM     29  C   UNL     1       1.176   2.074   0.002  0.00  0.00    +0.055 A 
ATOM     30  C   UNL     1       2.377   1.431  -0.306  0.00  0.00    +0.058 A 
ATOM     31  C   UNL     1       3.563   2.143  -0.323  0.00  0.00    +0.025 A 
ATOM     32  C   UNL     1       3.555   3.495  -0.031  0.00  0.00    +0.002 A 
ATOM     33  C   UNL     1       2.368   4.134   0.277  0.00  0.00    +0.002 A 
ATOM     34  C   UNL     1       1.179   3.428   0.294  0.00  0.00    +0.025 A 
ATOM     35  H   UNL     1      -0.866   1.810   0.016  0.00  0.00    +0.155 HD
ENDBRANCH  21  22
ENDBRANCH  10  21
TORSDOF 5
