REMARK  Name = ZINC13214093
REMARK  11 active torsions:
REMARK  status: ('A' for Active; 'I' for Inactive)
REMARK    1  A    between atoms: C_1  and  C_2
REMARK    2  A    between atoms: C_2  and  C_3
REMARK    3  A    between atoms: C_3  and  O_4
REMARK    4  A    between atoms: O_4  and  C_5
REMARK    5  A    between atoms: C_8  and  C_13
REMARK    6  A    between atoms: C_10  and  O_11
REMARK    7  A    between atoms: O_11  and  C_12
REMARK    8  A    between atoms: C_15  and  C_30
REMARK    9  A    between atoms: N_19  and  C_20
REMARK   10  A    between atoms: C_24  and  C_26
REMARK   11  A    between atoms: C_30  and  C_32
REMARK                            x       y       z     vdW  Elec       q    Type
REMARK                         _______ _______ _______ _____ _____    ______ ____
ROOT
ATOM      1  C   UNL     1       2.158  -4.233  -5.572  0.00  0.00    +0.150 C 
ATOM      2  C   UNL     1       1.254  -4.392  -6.772  0.00  0.00    +0.080 C 
ATOM      3  C   UNL     1       1.863  -3.764  -7.805  0.00  0.00    +0.250 C 
ATOM      4  C   UNL     1       3.141  -3.191  -7.339  0.00  0.00    +0.292 C 
ATOM      5  O   UNL     1       3.919  -2.566  -8.033  0.00  0.00    -0.266 OA
ATOM      6  N   UNL     1       3.319  -3.463  -6.032  0.00  0.00    -0.253 N 
ATOM      7  O   UNL     1       1.377  -3.676  -9.066  0.00  0.00    -0.282 OA
ENDROOT
BRANCH   1  11
ATOM      8  C   UNL     1       0.123  -2.113  -2.465  0.00  0.00    +0.162 A 
ATOM      9  C   UNL     1       0.608  -3.390  -2.233  0.00  0.00    +0.050 A 
ATOM     10  C   UNL     1       1.264  -4.073  -3.240  0.00  0.00    +0.009 A 
ATOM     11  C   UNL     1       1.440  -3.484  -4.478  0.00  0.00    -0.018 A 
ATOM     12  C   UNL     1       0.960  -2.210  -4.716  0.00  0.00    +0.055 A 
ATOM     13  C   UNL     1       0.295  -1.523  -3.713  0.00  0.00    +0.162 A 
BRANCH  13  14
ATOM     14  O   UNL     1      -0.184  -0.271  -3.947  0.00  0.00    -0.491 OA
ATOM     15  C   UNL     1      -0.073   0.227  -5.282  0.00  0.00    +0.277 C 
ENDBRANCH  13  14
BRANCH   8  16
ATOM     16  O   UNL     1      -0.524  -1.440  -1.476  0.00  0.00    -0.488 OA
BRANCH  16  17
ATOM     17  C   UNL     1      -0.664  -2.108  -0.221  0.00  0.00    +0.229 C 
BRANCH  17  19
ATOM     18  C   UNL     1      -1.561  -1.917   2.103  0.00  0.00    +0.007 C 
ATOM     19  C   UNL     1      -1.412  -1.202   0.759  0.00  0.00    +0.038 C 
ENDBRANCH  17  19
ENDBRANCH  16  17
ENDBRANCH   8  16
ENDBRANCH   1  11
BRANCH   6  20
ATOM     20  C   UNL     1       4.415  -3.081  -5.253  0.00  0.00    +0.038 A 
ATOM     21  C   UNL     1       4.470  -3.437  -3.909  0.00  0.00    +0.023 A 
ATOM     22  C   UNL     1       5.550  -3.061  -3.134  0.00  0.00    +0.003 A 
ATOM     23  C   UNL     1       6.582  -2.330  -3.686  0.00  0.00    +0.015 A 
ATOM     24  C   UNL     1       6.537  -1.968  -5.035  0.00  0.00    +0.065 A 
ATOM     25  C   UNL     1       5.448  -2.352  -5.820  0.00  0.00    +0.038 A 
BRANCH  24  26
ATOM     26  C   UNL     1       7.639  -1.186  -5.629  0.00  0.00    +0.387 C 
ATOM     27  O   UNL     1       8.594  -0.854  -4.940  0.00  0.00    -0.241 OA
ATOM     28  O   UNL     1       7.597  -0.870  -6.809  0.00  0.00    -0.241 OA
ENDBRANCH  24  26
ENDBRANCH   6  20
BRANCH   2  29
ATOM     29  C   UNL     1      -0.035  -5.092  -6.811  0.00  0.00    +0.230 C 
ATOM     30  O   UNL     1      -0.719  -5.053  -7.819  0.00  0.00    -0.283 OA
BRANCH  29  31
ATOM     31  C   UNL     1      -0.499  -5.838  -5.638  0.00  0.00    +0.175 A 
ATOM     32  C   UNL     1      -1.734  -6.432  -5.490  0.00  0.00    +0.053 A 
ATOM     33  C   UNL     1      -1.741  -7.029  -4.221  0.00  0.00    +0.042 A 
ATOM     34  C   UNL     1      -0.537  -6.781  -3.657  0.00  0.00    +0.196 A 
ATOM     35  O   UNL     1       0.208  -6.071  -4.513  0.00  0.00    -0.460 OA
ENDBRANCH  29  31
ENDBRANCH   2  29
TORSDOF 9
