REMARK  Name = ZINC20417603
REMARK  12 active torsions:
REMARK  status: ('A' for Active; 'I' for Inactive)
REMARK    1  A    between atoms: C_1  and  C_2
REMARK    2  A    between atoms: N_6  and  C_21
REMARK    3  A    between atoms: C_10  and  C_20
REMARK    4  A    between atoms: N_11  and  C_12
REMARK    5  A    between atoms: C_12  and  C_13
REMARK    6  A    between atoms: C_21  and  C_22
REMARK    7  A    between atoms: N_24  and  C_25
REMARK    8  A    between atoms: C_25  and  C_26
REMARK    9  A    between atoms: C_26  and  C_27
REMARK   10  A    between atoms: C_27  and  N_28
REMARK   11  A    between atoms: C_29  and  C_37
REMARK   12  A    between atoms: C_34  and  C_36
REMARK                            x       y       z     vdW  Elec       q    Type
REMARK                         _______ _______ _______ _____ _____    ______ ____
ROOT
ATOM      1  C   UNL     1      -0.015   3.042   5.761  0.00  0.00    +0.064 C 
ATOM      2  C   UNL     1      -0.311   1.927   4.792  0.00  0.00    +0.026 A 
ATOM      3  C   UNL     1       0.254   1.769   3.570  0.00  0.00    +0.028 A 
ATOM      4  C   UNL     1       1.244   2.484   2.762  0.00  0.00    +0.143 A 
ATOM      5  N   UNL     1       1.567   2.033   1.589  0.00  0.00    -0.176 NA
ATOM      6  N   UNL     1       1.013   0.886   1.025  0.00  0.00    -0.220 N 
ATOM      7  C   UNL     1       0.091   0.134   1.662  0.00  0.00    +0.277 A 
ATOM      8  O   UNL     1      -0.366  -0.865   1.137  0.00  0.00    -0.265 OA
ATOM      9  C   UNL     1      -0.349   0.543   2.998  0.00  0.00    +0.070 A 
ATOM     10  C   UNL     1      -1.219   0.080   3.931  0.00  0.00    +0.029 A 
ATOM     11  N   UNL     1      -1.192   0.909   4.996  0.00  0.00    -0.342 N 
ATOM     12  C   UNL     1      -2.074  -1.154   3.799  0.00  0.00    +0.064 C 
ENDROOT
BRANCH  11  13
ATOM     13  C   UNL     1      -1.998   0.736   6.206  0.00  0.00    +0.159 C 
BRANCH  13  14
ATOM     14  C   UNL     1      -1.239  -0.102   7.201  0.00  0.00    +0.007 A 
ATOM     15  C   UNL     1      -0.571   0.503   8.249  0.00  0.00    +0.008 A 
ATOM     16  C   UNL     1       0.126  -0.266   9.162  0.00  0.00    +0.000 A 
ATOM     17  C   UNL     1       0.155  -1.642   9.028  0.00  0.00    +0.003 A 
ATOM     18  C   UNL     1      -0.512  -2.249   7.982  0.00  0.00    +0.039 A 
ATOM     19  C   UNL     1      -1.214  -1.480   7.069  0.00  0.00    +0.128 A 
ATOM     20  F   UNL     1      -1.871  -2.074   6.049  0.00  0.00    -0.205 F 
ENDBRANCH  13  14
ENDBRANCH  11  13
BRANCH   6  21
ATOM     21  C   UNL     1       1.453   0.476  -0.311  0.00  0.00    +0.243 C 
BRANCH  21  22
ATOM     22  C   UNL     1       0.567   1.115  -1.349  0.00  0.00    +0.235 C 
ATOM     23  O   UNL     1      -0.342   1.842  -1.007  0.00  0.00    -0.274 OA
ATOM     24  N   UNL     1       0.785   0.880  -2.658  0.00  0.00    -0.314 N 
ATOM     25  H   UNL     1       1.609   0.222  -2.969  0.00  0.00    +0.149 HD
BRANCH  24  26
ATOM     26  C   UNL     1      -0.076   1.501  -3.667  0.00  0.00    +0.102 C 
BRANCH  26  27
ATOM     27  C   UNL     1       0.383   1.074  -5.063  0.00  0.00    +0.000 C 
BRANCH  27  28
ATOM     28  C   UNL     1      -0.516   1.722  -6.117  0.00  0.00    -0.077 C 
BRANCH  28  29
ATOM     29  N   UNL     1      -0.006   1.406  -7.458  0.00  0.00    +0.383 N 
ATOM     30  C   UNL     1      -0.669   2.225  -8.480  0.00  0.00    -0.071 C 
ATOM     31  C   UNL     1      -0.014   1.975  -9.840  0.00  0.00    -0.016 C 
ATOM     32  C   UNL     1      -0.133   0.490 -10.193  0.00  0.00    -0.003 C 
ATOM     33  C   UNL     1       0.523  -0.343  -9.089  0.00  0.00    -0.016 C 
ATOM     34  C   UNL     1      -0.148  -0.026  -7.750  0.00  0.00    -0.071 C 
ATOM     35  C   UNL     1      -1.633  -0.386  -7.826  0.00  0.00    -0.013 C 
ATOM     36  C   UNL     1      -0.535   3.705  -8.114  0.00  0.00    -0.013 C 
ATOM     37  H   UNL     1       1.067   1.648  -7.479  0.00  0.00    -0.081 HD
ENDBRANCH  28  29
ENDBRANCH  27  28
ENDBRANCH  26  27
ENDBRANCH  24  26
ENDBRANCH  21  22
ENDBRANCH   6  21
TORSDOF 8
