REMARK  Name = ZINC49471823
REMARK  5 active torsions:
REMARK  status: ('A' for Active; 'I' for Inactive)
REMARK    1  A    between atoms: C_1  and  C_2
REMARK    2  A    between atoms: C_2  and  C_3
REMARK    3  A    between atoms: C_3  and  C_4
REMARK    4  A    between atoms: C_14  and  N_16
REMARK    5  A    between atoms: C_17  and  C_19
REMARK                            x       y       z     vdW  Elec       q    Type
REMARK                         _______ _______ _______ _____ _____    ______ ____
ROOT
ATOM      1  C   UNL     1       0.759  -2.025   1.215  0.00  0.00    -0.033 A 
ATOM      2  C   UNL     1       1.737  -2.693   0.551  0.00  0.00    +0.074 A 
ATOM      3  C   UNL     1       1.659  -4.091   0.390  0.00  0.00    +0.249 A 
ATOM      4  O   UNL     1       2.548  -4.670  -0.211  0.00  0.00    -0.268 OA
ATOM      5  N   UNL     1       0.630  -4.802   0.882  0.00  0.00    -0.322 N 
ATOM      6  H   UNL     1       0.608  -5.764   0.753  0.00  0.00    +0.169 HD
ATOM      7  C   UNL     1      -0.396  -4.185   1.567  0.00  0.00    +0.051 A 
ATOM      8  C   UNL     1      -0.363  -2.789   1.760  0.00  0.00    +0.002 A 
ATOM      9  C   UNL     1      -1.397  -2.155   2.458  0.00  0.00    +0.012 A 
ATOM     10  C   UNL     1      -2.432  -2.892   2.955  0.00  0.00    +0.024 A 
ATOM     11  C   UNL     1      -2.468  -4.275   2.772  0.00  0.00    +0.036 A 
ATOM     12  C   UNL     1      -1.458  -4.920   2.075  0.00  0.00    +0.049 A 
ENDROOT
BRANCH  11  13
ATOM     13  N   UNL     1      -3.534  -5.013   3.286  0.00  0.00    -0.281 N 
ATOM     14  C   UNL     1      -3.330  -6.267   3.737  0.00  0.00    +0.255 C 
ATOM     15  O   UNL     1      -2.202  -6.720   3.784  0.00  0.00    -0.270 OA
ATOM     16  H   UNL     1      -4.422  -4.624   3.320  0.00  0.00    +0.155 HD
BRANCH  14  17
ATOM     17  C   UNL     1      -4.472  -7.088   4.172  0.00  0.00    +0.122 A 
ATOM     18  C   UNL     1      -4.293  -8.380   4.646  0.00  0.00    +0.031 A 
ATOM     19  C   UNL     1      -5.445  -9.121   5.017  0.00  0.00    +0.018 A 
ATOM     20  C   UNL     1      -5.318 -10.347   5.685  0.00  0.00    +0.011 A 
ATOM     21  C   UNL     1      -6.436 -11.028   6.073  0.00  0.00    +0.001 A 
ATOM     22  C   UNL     1      -7.700 -10.520   5.804  0.00  0.00    +0.004 A 
ATOM     23  C   UNL     1      -7.849  -9.326   5.130  0.00  0.00    +0.047 A 
ATOM     24  C   UNL     1      -6.726  -8.619   4.720  0.00  0.00    +0.139 A 
ATOM     25  O   UNL     1      -6.859  -7.467   4.020  0.00  0.00    -0.422 OA
ATOM     26  C   UNL     1      -5.851  -6.567   4.127  0.00  0.00    +0.350 A 
ATOM     27  O   UNL     1      -6.074  -5.372   4.180  0.00  0.00    -0.244 OA
ENDBRANCH  14  17
ENDBRANCH  11  13
BRANCH   1  28
ATOM     28  C   UNL     1       0.832  -0.531   1.393  0.00  0.00    +0.036 C 
BRANCH  28  30
ATOM     29  C   UNL     1       0.101   1.672   0.468  0.00  0.00    +0.004 C 
ATOM     30  C   UNL     1       0.027   0.154   0.287  0.00  0.00    +0.001 C 
ENDBRANCH  28  30
ENDBRANCH   1  28
TORSDOF 4
