REMARK  Name = ZINC03416322
REMARK  13 active torsions:
REMARK  status: ('A' for Active; 'I' for Inactive)
REMARK    1  A    between atoms: C_1  and  C_2
REMARK    2  A    between atoms: C_2  and  O_3
REMARK    3  A    between atoms: O_3  and  C_4
REMARK    4  A    between atoms: C_4  and  C_6
REMARK    5  A    between atoms: C_10  and  N_11
REMARK    6  A    between atoms: C_12  and  C_14
REMARK    7  A    between atoms: C_14  and  C_16
REMARK    8  A    between atoms: C_14  and  N_17
REMARK    9  A    between atoms: N_17  and  C_18
REMARK   10  A    between atoms: N_17  and  C_19
REMARK   11  A    between atoms: C_19  and  C_20
REMARK   12  A    between atoms: C_23  and  C_26
REMARK   13  A    between atoms: C_31  and  C_35
REMARK                            x       y       z     vdW  Elec       q    Type
REMARK                         _______ _______ _______ _____ _____    ______ ____
ROOT
ATOM      1  N   UNL     1      -0.193  -2.833  -4.333  0.00  0.00    -0.281 N 
ATOM      2  C   UNL     1      -1.009  -3.307  -5.295  0.00  0.00    +0.204 C 
ATOM      3  O   UNL     1      -0.607  -4.147  -6.072  0.00  0.00    -0.277 OA
ATOM      4  H   UNL     1      -0.514  -2.161  -3.712  0.00  0.00    +0.155 HD
ENDROOT
BRANCH   1   9
ATOM      5  C   UNL     1       2.079  -2.937  -3.314  0.00  0.00    +0.091 A 
ATOM      6  C   UNL     1       3.371  -3.593  -3.417  0.00  0.00    -0.021 A 
ATOM      7  C   UNL     1       3.456  -4.491  -4.422  0.00  0.00    -0.004 A 
ATOM      8  S   UNL     1       1.865  -4.455  -5.193  0.00  0.00    -0.077 S 
ATOM      9  C   UNL     1       1.106  -3.306  -4.232  0.00  0.00    +0.086 A 
ATOM     10  C   UNL     1       4.647  -5.323  -4.785  0.00  0.00    +0.046 C 
ATOM     11  C   UNL     1       5.880  -4.734  -4.085  0.00  0.00    -0.009 C 
ATOM     12  C   UNL     1       5.541  -4.484  -2.613  0.00  0.00    +0.008 C 
ATOM     13  C   UNL     1       4.551  -3.322  -2.496  0.00  0.00    +0.037 C 
ATOM     14  C   UNL     1       7.046  -5.719  -4.185  0.00  0.00    +0.008 C 
BRANCH   5  15
ATOM     15  C   UNL     1       1.812  -1.934  -2.281  0.00  0.00    +0.342 C 
ATOM     16  O   UNL     1       1.373  -2.276  -1.200  0.00  0.00    -0.245 OA
BRANCH  15  17
ATOM     17  O   UNL     1       2.053  -0.630  -2.529  0.00  0.00    -0.461 OA
BRANCH  17  19
ATOM     18  C   UNL     1       2.104   1.713  -1.939  0.00  0.00    +0.048 C 
ATOM     19  C   UNL     1       1.770   0.294  -1.476  0.00  0.00    +0.229 C 
ENDBRANCH  17  19
ENDBRANCH  15  17
ENDBRANCH   5  15
ENDBRANCH   1   9
BRANCH   2  20
ATOM     20  C   UNL     1      -2.421  -2.793  -5.406  0.00  0.00    +0.016 C 
ATOM     21  C   UNL     1      -3.336  -3.616  -4.497  0.00  0.00    -0.004 C 
BRANCH  20  22
ATOM     22  N   UNL     1      -2.878  -2.912  -6.797  0.00  0.00    +0.388 N 
ATOM     23  C   UNL     1      -2.021  -2.094  -7.665  0.00  0.00    -0.095 C 
ATOM     24  H   UNL     1      -2.827  -3.877  -7.087  0.00  0.00    -0.081 HD
BRANCH  22  25
ATOM     25  C   UNL     1      -4.267  -2.443  -6.898  0.00  0.00    -0.042 C 
BRANCH  25  26
ATOM     26  C   UNL     1      -4.776  -2.678  -8.297  0.00  0.00    -0.064 A 
ATOM     27  C   UNL     1      -4.614  -1.704  -9.264  0.00  0.00    +0.002 A 
ATOM     28  C   UNL     1      -5.081  -1.920 -10.547  0.00  0.00    +0.012 A 
ATOM     29  C   UNL     1      -5.709  -3.110 -10.863  0.00  0.00    +0.055 A 
ATOM     30  C   UNL     1      -5.870  -4.085  -9.896  0.00  0.00    +0.012 A 
ATOM     31  C   UNL     1      -5.399  -3.871  -8.614  0.00  0.00    +0.002 A 
BRANCH  29  32
ATOM     32  C   UNL     1      -6.219  -3.345 -12.262  0.00  0.00    +0.417 C 
ATOM     33  F   UNL     1      -5.214  -3.942 -13.030  0.00  0.00    -0.166 F 
ATOM     34  F   UNL     1      -7.334  -4.189 -12.216  0.00  0.00    -0.166 F 
ATOM     35  F   UNL     1      -6.582  -2.123 -12.837  0.00  0.00    -0.166 F 
ENDBRANCH  29  32
ENDBRANCH  25  26
ENDBRANCH  22  25
ENDBRANCH  20  22
ENDBRANCH   2  20
TORSDOF 9
