REMARK  Name = ZINC36346281
REMARK  15 active torsions:
REMARK  status: ('A' for Active; 'I' for Inactive)
REMARK    1  A    between atoms: C_1  and  C_2
REMARK    2  A    between atoms: C_2  and  O_3
REMARK    3  A    between atoms: O_3  and  C_4
REMARK    4  A    between atoms: C_4  and  C_5
REMARK    5  A    between atoms: C_5  and  C_7
REMARK    6  A    between atoms: C_5  and  O_36
REMARK    7  A    between atoms: C_7  and  N_8
REMARK    8  A    between atoms: N_8  and  C_9
REMARK    9  A    between atoms: N_8  and  C_15
REMARK   10  A    between atoms: C_9  and  C_10
REMARK   11  A    between atoms: C_15  and  C_16
REMARK   12  A    between atoms: C_17  and  C_35
REMARK   13  A    between atoms: N_19  and  C_29
REMARK   14  A    between atoms: C_20  and  O_21
REMARK   15  A    between atoms: O_21  and  C_22
REMARK                            x       y       z     vdW  Elec       q    Type
REMARK                         _______ _______ _______ _____ _____    ______ ____
ROOT
ATOM      1  C   UNL     1       3.558  -6.494  -5.546  0.00  0.00    +0.021 A 
ATOM      2  C   UNL     1       3.549  -6.434  -6.943  0.00  0.00    +0.065 A 
ATOM      3  N   UNL     1       4.785  -6.501  -7.368  0.00  0.00    -0.168 NA
ATOM      4  N   UNL     1       5.630  -6.608  -6.256  0.00  0.00    -0.200 N 
ATOM      5  C   UNL     1       4.852  -6.595  -5.141  0.00  0.00    +0.225 A 
ATOM      6  C   UNL     1       2.324  -6.312  -7.812  0.00  0.00    +0.068 C 
ENDROOT
BRANCH   4   7
ATOM      7  C   UNL     1       7.028  -6.704  -6.287  0.00  0.00    +0.069 A 
ATOM      8  C   UNL     1       7.793  -6.007  -5.362  0.00  0.00    +0.028 A 
ATOM      9  C   UNL     1       9.171  -6.104  -5.394  0.00  0.00    +0.002 A 
ATOM     10  C   UNL     1       9.787  -6.894  -6.347  0.00  0.00    +0.000 A 
ATOM     11  C   UNL     1       9.028  -7.589  -7.270  0.00  0.00    +0.002 A 
ATOM     12  C   UNL     1       7.650  -7.500  -7.239  0.00  0.00    +0.028 A 
ENDBRANCH   4   7
BRANCH   1  13
ATOM     13  C   UNL     1       2.348  -6.448  -4.649  0.00  0.00    -0.035 C 
BRANCH  13  14
ATOM     14  N   UNL     1       2.138  -5.072  -4.180  0.00  0.00    +0.389 N 
ATOM     15  H   UNL     1       2.985  -4.730  -3.751  0.00  0.00    -0.081 HD
BRANCH  14  16
ATOM     16  C   UNL     1       1.785  -4.215  -5.320  0.00  0.00    -0.044 C 
BRANCH  16  17
ATOM     17  C   UNL     1       1.689  -2.760  -4.853  0.00  0.00    +0.124 C 
BRANCH  17  18
ATOM     18  O   UNL     1       2.976  -2.311  -4.426  0.00  0.00    -0.391 OA
ATOM     19  H   UNL     1       3.653  -2.345  -5.116  0.00  0.00    +0.210 HD
ENDBRANCH  17  18
BRANCH  17  20
ATOM     20  C   UNL     1       1.200  -1.886  -6.010  0.00  0.00    +0.189 C 
BRANCH  20  21
ATOM     21  O   UNL     1       0.999  -0.550  -5.544  0.00  0.00    -0.378 OA
BRANCH  21  23
ATOM     22  C   UNL     1       0.360   1.746  -5.944  0.00  0.00    +0.034 C 
ATOM     23  C   UNL     1       0.540   0.354  -6.551  0.00  0.00    +0.156 C 
ENDBRANCH  21  23
ENDBRANCH  20  21
ENDBRANCH  17  20
ENDBRANCH  16  17
ENDBRANCH  14  16
BRANCH  14  24
ATOM     24  C   UNL     1       1.048  -5.051  -3.195  0.00  0.00    -0.003 C 
BRANCH  24  25
ATOM     25  C   UNL     1       1.466  -5.817  -1.967  0.00  0.00    +0.089 A 
ATOM     26  C   UNL     1       2.029  -5.289  -0.865  0.00  0.00    +0.042 A 
ATOM     27  C   UNL     1       2.255  -6.359   0.032  0.00  0.00    +0.041 A 
ATOM     28  C   UNL     1       1.816  -7.476  -0.576  0.00  0.00    +0.195 A 
ATOM     29  O   UNL     1       1.334  -7.141  -1.784  0.00  0.00    -0.470 OA
ENDBRANCH  24  25
ENDBRANCH  14  24
ENDBRANCH  13  14
ENDBRANCH   1  13
BRANCH   5  30
ATOM     30  O   UNL     1       5.287  -6.673  -3.857  0.00  0.00    -0.438 OA
BRANCH  30  31
ATOM     31  C   UNL     1       5.497  -7.907  -3.328  0.00  0.00    +0.133 A 
ATOM     32  C   UNL     1       5.375  -9.035  -4.127  0.00  0.00    +0.046 A 
ATOM     33  C   UNL     1       5.589 -10.289  -3.589  0.00  0.00    +0.006 A 
ATOM     34  C   UNL     1       5.924 -10.422  -2.254  0.00  0.00    +0.038 A 
ATOM     35  C   UNL     1       6.046  -9.298  -1.454  0.00  0.00    +0.127 A 
ATOM     36  C   UNL     1       5.839  -8.040  -1.991  0.00  0.00    +0.084 A 
ATOM     37  F   UNL     1       6.373  -9.431  -0.149  0.00  0.00    -0.205 F 
ENDBRANCH  30  31
ENDBRANCH   5  30
TORSDOF 13
