REMARK  Name = ZINC13680582
REMARK  4 active torsions:
REMARK  status: ('A' for Active; 'I' for Inactive)
REMARK    1  A    between atoms: N_7  and  S_23
REMARK    2  A    between atoms: C_9  and  C_12
REMARK    3  A    between atoms: N_14  and  C_15
REMARK    4  A    between atoms: S_23  and  C_26
REMARK                            x       y       z     vdW  Elec       q    Type
REMARK                         _______ _______ _______ _____ _____    ______ ____
ROOT
ATOM      1  C   UNL     1       0.604   2.028   0.799  0.00  0.00    +0.002 A 
ATOM      2  C   UNL     1      -0.480   1.175   0.722  0.00  0.00    +0.004 A 
ATOM      3  C   UNL     1      -0.296  -0.163   0.427  0.00  0.00    +0.047 A 
ATOM      4  C   UNL     1       0.981  -0.656   0.205  0.00  0.00    +0.144 A 
ATOM      5  C   UNL     1       2.072   0.206   0.281  0.00  0.00    +0.093 A 
ATOM      6  C   UNL     1       1.882   1.546   0.579  0.00  0.00    +0.028 A 
ATOM      7  N   UNL     1       3.367  -0.287   0.052  0.00  0.00    -0.195 N 
ATOM      8  C   UNL     1       3.552  -1.748   0.045  0.00  0.00    +0.186 C 
ATOM      9  C   UNL     1       2.372  -2.362  -0.722  0.00  0.00    +0.278 C 
ATOM     10  O   UNL     1       1.154  -1.973  -0.081  0.00  0.00    -0.476 OA
ENDROOT
BRANCH   9  11
ATOM     11  C   UNL     1       2.490  -3.864  -0.714  0.00  0.00    +0.260 C 
ATOM     12  O   UNL     1       1.665  -4.534  -0.130  0.00  0.00    -0.271 OA
ATOM     13  N   UNL     1       3.513  -4.463  -1.354  0.00  0.00    -0.281 N 
ATOM     14  H   UNL     1       4.135  -3.933  -1.877  0.00  0.00    +0.155 HD
BRANCH  13  15
ATOM     15  C   UNL     1       3.678  -5.851  -1.266  0.00  0.00    +0.052 A 
ATOM     16  C   UNL     1       2.568  -6.679  -1.175  0.00  0.00    +0.026 A 
ATOM     17  C   UNL     1       2.733  -8.047  -1.089  0.00  0.00    +0.022 A 
ATOM     18  C   UNL     1       4.005  -8.594  -1.093  0.00  0.00    +0.042 A 
ATOM     19  C   UNL     1       5.114  -7.772  -1.185  0.00  0.00    +0.041 A 
ATOM     20  C   UNL     1       4.954  -6.402  -1.276  0.00  0.00    +0.064 A 
ATOM     21 CL   UNL     1       6.345  -5.371  -1.397  0.00  0.00    -0.082 Cl
ATOM     22 CL   UNL     1       4.208 -10.314  -0.984  0.00  0.00    -0.083 Cl
ENDBRANCH  13  15
ENDBRANCH   9  11
BRANCH   7  23
ATOM     23  S   UNL     1       4.641   0.739  -0.202  0.00  0.00    +0.075 S 
ATOM     24  O   UNL     1       5.663  -0.028  -0.822  0.00  0.00    -0.150 OA
ATOM     25  O   UNL     1       4.105   1.915  -0.794  0.00  0.00    -0.150 OA
BRANCH  23  26
ATOM     26  C   UNL     1       5.255   1.208   1.382  0.00  0.00    +0.109 A 
ATOM     27  C   UNL     1       4.751   2.329   2.014  0.00  0.00    +0.030 A 
ATOM     28  C   UNL     1       5.228   2.695   3.259  0.00  0.00    +0.022 A 
ATOM     29  C   UNL     1       6.219   1.944   3.867  0.00  0.00    +0.041 A 
ATOM     30  C   UNL     1       6.727   0.826   3.231  0.00  0.00    +0.022 A 
ATOM     31  C   UNL     1       6.245   0.458   1.989  0.00  0.00    +0.030 A 
ATOM     32 CL   UNL     1       6.824   2.407   5.427  0.00  0.00    -0.084 Cl
ENDBRANCH  23  26
ENDBRANCH   7  23
TORSDOF 4
