REMARK  Name = ZINC13213164
REMARK  6 active torsions:
REMARK  status: ('A' for Active; 'I' for Inactive)
REMARK    1  A    between atoms: C_4  and  N_33
REMARK    2  A    between atoms: C_5  and  C_7
REMARK    3  A    between atoms: C_9  and  C_24
REMARK    4  A    between atoms: N_13  and  C_14
REMARK    5  A    between atoms: C_18  and  C_20
REMARK    6  A    between atoms: C_24  and  C_26
REMARK                            x       y       z     vdW  Elec       q    Type
REMARK                         _______ _______ _______ _____ _____    ______ ____
ROOT
ATOM      1  C   UNL     1       1.320  -2.203   0.094  0.00  0.00    +0.152 C 
ATOM      2  C   UNL     1       1.572  -2.623  -1.335  0.00  0.00    +0.077 C 
ATOM      3  C   UNL     1       0.444  -3.234  -1.768  0.00  0.00    +0.250 C 
ATOM      4  C   UNL     1      -0.554  -3.238  -0.678  0.00  0.00    +0.292 C 
ATOM      5  O   UNL     1      -1.669  -3.714  -0.756  0.00  0.00    -0.266 OA
ATOM      6  N   UNL     1      -0.046  -2.635   0.414  0.00  0.00    -0.253 N 
ATOM      7  O   UNL     1       0.260  -3.759  -3.001  0.00  0.00    -0.282 OA
ENDROOT
BRANCH   1  12
ATOM      8  C   UNL     1       0.400   1.455   0.263  0.00  0.00    +0.000 A 
ATOM      9  C   UNL     1       1.638   2.042   0.452  0.00  0.00    +0.002 A 
ATOM     10  C   UNL     1       2.772   1.255   0.524  0.00  0.00    +0.033 A 
ATOM     11  C   UNL     1       2.669  -0.118   0.408  0.00  0.00    +0.131 A 
ATOM     12  C   UNL     1       1.432  -0.705   0.221  0.00  0.00    +0.008 A 
ATOM     13  C   UNL     1       0.297   0.082   0.147  0.00  0.00    +0.008 A 
BRANCH  11  14
ATOM     14  N   UNL     1       3.884  -0.961   0.484  0.00  0.00    +0.057 N 
ATOM     15  O   UNL     1       4.975  -0.444   0.552  0.00  0.00    -0.126 OA
ATOM     16  O   UNL     1       3.785  -2.166   0.478  0.00  0.00    -0.126 OA
ENDBRANCH  11  14
ENDBRANCH   1  12
BRANCH   6  17
ATOM     17  C   UNL     1      -0.701  -2.454   1.635  0.00  0.00    +0.038 A 
ATOM     18  C   UNL     1      -0.054  -1.806   2.682  0.00  0.00    +0.023 A 
ATOM     19  C   UNL     1      -0.697  -1.625   3.892  0.00  0.00    +0.003 A 
ATOM     20  C   UNL     1      -1.986  -2.084   4.070  0.00  0.00    +0.015 A 
ATOM     21  C   UNL     1      -2.646  -2.737   3.025  0.00  0.00    +0.065 A 
ATOM     22  C   UNL     1      -1.998  -2.916   1.801  0.00  0.00    +0.038 A 
BRANCH  21  23
ATOM     23  C   UNL     1      -4.024  -3.230   3.212  0.00  0.00    +0.387 C 
ATOM     24  O   UNL     1      -4.591  -3.068   4.284  0.00  0.00    -0.241 OA
ATOM     25  O   UNL     1      -4.599  -3.801   2.296  0.00  0.00    -0.241 OA
ENDBRANCH  21  23
ENDBRANCH   6  17
BRANCH   2  26
ATOM     26  C   UNL     1       2.801  -2.410  -2.106  0.00  0.00    +0.195 C 
ATOM     27  O   UNL     1       3.050  -1.310  -2.561  0.00  0.00    -0.287 OA
BRANCH  26  28
ATOM     28  C   UNL     1       3.736  -3.531  -2.329  0.00  0.00    +0.022 A 
ATOM     29  C   UNL     1       3.497  -4.774  -1.736  0.00  0.00    +0.014 A 
ATOM     30  C   UNL     1       4.373  -5.816  -1.948  0.00  0.00    +0.039 A 
ATOM     31  C   UNL     1       5.490  -5.634  -2.748  0.00  0.00    +0.123 A 
ATOM     32  C   UNL     1       5.734  -4.403  -3.340  0.00  0.00    +0.039 A 
ATOM     33  C   UNL     1       4.861  -3.356  -3.139  0.00  0.00    +0.014 A 
ATOM     34  F   UNL     1       6.346  -6.660  -2.953  0.00  0.00    -0.205 F 
ENDBRANCH  26  28
ENDBRANCH   2  26
TORSDOF 6
