REMARK  Name = ZINC59057980
REMARK  11 active torsions:
REMARK  status: ('A' for Active; 'I' for Inactive)
REMARK    1  A    between atoms: C_1  and  C_2
REMARK    2  A    between atoms: C_2  and  C_3
REMARK    3  A    between atoms: C_4  and  C_16
REMARK    4  A    between atoms: C_11  and  O_14
REMARK    5  A    between atoms: O_14  and  C_15
REMARK    6  A    between atoms: N_18  and  C_19
REMARK    7  A    between atoms: C_19  and  C_20
REMARK    8  A    between atoms: C_23  and  C_26
REMARK    9  A    between atoms: C_26  and  N_27
REMARK   10  A    between atoms: C_29  and  C_36
REMARK   11  A    between atoms: C_32  and  C_35
REMARK                            x       y       z     vdW  Elec       q    Type
REMARK                         _______ _______ _______ _____ _____    ______ ____
ROOT
ATOM      1  C   UNL     1      -1.307  -0.625  -2.793  0.00  0.00    +0.248 C 
ATOM      2  O   UNL     1      -2.095  -0.244  -1.948  0.00  0.00    -0.270 OA
ATOM      3  N   UNL     1      -1.741  -0.924  -4.033  0.00  0.00    -0.307 N 
ATOM      4  H   UNL     1      -1.112  -1.227  -4.707  0.00  0.00    +0.149 HD
ENDROOT
BRANCH   1   6
ATOM      5  C   UNL     1       0.707  -0.490  -1.238  0.00  0.00    +0.059 A 
ATOM      6  C   UNL     1       0.122  -0.758  -2.459  0.00  0.00    +0.078 A 
ATOM      7  C   UNL     1       1.151  -1.186  -3.329  0.00  0.00    +0.148 A 
ATOM      8  N   UNL     1       2.274  -1.173  -2.667  0.00  0.00    -0.172 NA
ATOM      9  N   UNL     1       2.025  -0.737  -1.360  0.00  0.00    -0.216 N 
ATOM     10  C   UNL     1       2.983  -0.586  -0.351  0.00  0.00    +0.176 A 
ATOM     11  C   UNL     1       4.167  -1.321  -0.396  0.00  0.00    +0.055 A 
ATOM     12  C   UNL     1       5.084  -1.137   0.625  0.00  0.00    +0.072 A 
ATOM     13  C   UNL     1       4.767  -0.229   1.633  0.00  0.00    +0.234 A 
ATOM     14  N   UNL     1       3.618   0.425   1.593  0.00  0.00    -0.110 NA
ATOM     15  N   UNL     1       2.770   0.259   0.644  0.00  0.00    -0.126 NA
BRANCH   5  17
ATOM     16  C   UNL     1      -0.019   1.526   0.010  0.00  0.00    +0.010 C 
ATOM     17  C   UNL     1       0.002  -0.004   0.002  0.00  0.00    +0.053 C 
ENDBRANCH   5  17
BRANCH  13  18
ATOM     18  O   UNL     1       5.635  -0.016   2.654  0.00  0.00    -0.479 OA
ATOM     19  C   UNL     1       5.244   0.929   3.652  0.00  0.00    +0.279 C 
ENDBRANCH  13  18
ENDBRANCH   1   6
BRANCH   3  20
ATOM     20  C   UNL     1      -3.161  -0.790  -4.365  0.00  0.00    +0.139 C 
BRANCH  20  21
ATOM     21  C   UNL     1      -3.381  -1.183  -5.803  0.00  0.00    -0.030 A 
ATOM     22  C   UNL     1      -3.290  -0.231  -6.801  0.00  0.00    +0.005 A 
ATOM     23  C   UNL     1      -3.491  -0.592  -8.120  0.00  0.00    +0.002 A 
ATOM     24  C   UNL     1      -3.782  -1.904  -8.442  0.00  0.00    -0.064 A 
ATOM     25  C   UNL     1      -3.871  -2.857  -7.444  0.00  0.00    +0.002 A 
ATOM     26  C   UNL     1      -3.666  -2.497  -6.125  0.00  0.00    +0.005 A 
BRANCH  24  27
ATOM     27  C   UNL     1      -4.002  -2.297  -9.880  0.00  0.00    -0.043 C 
BRANCH  27  28
ATOM     28  N   UNL     1      -2.721  -2.691 -10.482  0.00  0.00    +0.383 N 
ATOM     29  C   UNL     1      -1.823  -1.531 -10.520  0.00  0.00    -0.075 C 
ATOM     30  C   UNL     1      -0.460  -1.955 -11.071  0.00  0.00    -0.031 C 
ATOM     31  C   UNL     1      -0.638  -2.512 -12.486  0.00  0.00    +0.003 C 
ATOM     32  C   UNL     1      -1.634  -3.674 -12.445  0.00  0.00    -0.031 C 
ATOM     33  C   UNL     1      -2.954  -3.187 -11.843  0.00  0.00    -0.075 C 
ATOM     34  C   UNL     1      -1.878  -4.188 -13.866  0.00  0.00    +0.005 C 
ATOM     35  C   UNL     1       0.143  -3.034 -10.169  0.00  0.00    +0.005 C 
ATOM     36  H   UNL     1      -2.301  -3.421  -9.926  0.00  0.00    -0.081 HD
ENDBRANCH  27  28
ENDBRANCH  24  27
ENDBRANCH  20  21
ENDBRANCH   3  20
TORSDOF 7
