REMARK  Name = ZINC01410337
REMARK  7 active torsions:
REMARK  status: ('A' for Active; 'I' for Inactive)
REMARK    1  A    between atoms: C_3  and  C_36
REMARK    2  A    between atoms: C_5  and  N_7
REMARK    3  A    between atoms: C_16  and  C_22
REMARK    4  A    between atoms: C_22  and  N_23
REMARK    5  A    between atoms: C_24  and  C_26
REMARK    6  A    between atoms: C_26  and  O_27
REMARK    7  A    between atoms: O_27  and  C_28
REMARK                            x       y       z     vdW  Elec       q    Type
REMARK                         _______ _______ _______ _____ _____    ______ ____
ROOT
ATOM      1  N   UNL     1       1.236   1.972   0.001  0.00  0.00    -0.210 N 
ATOM      2  C   UNL     1       2.178   1.024  -0.059  0.00  0.00    +0.233 C 
ATOM      3  O   UNL     1       3.372   1.228  -0.114  0.00  0.00    -0.274 OA
ATOM      4  C   UNL     1       1.526  -0.339  -0.047  0.00  0.00    +0.123 C 
ATOM      5  C   UNL     1       1.634  -0.976  -1.467  0.00  0.00    +0.155 C 
ATOM      6  C   UNL     1       0.883  -2.307  -1.385  0.00  0.00    +0.004 C 
ATOM      7  C   UNL     1      -0.403  -2.009  -1.323  0.00  0.00    +0.008 C 
ATOM      8  C   UNL     1      -0.498  -0.482  -1.365  0.00  0.00    +0.116 C 
ATOM      9  C   UNL     1       0.003  -0.004   0.033  0.00  0.00    +0.128 C 
ATOM     10  C   UNL     1      -0.017   1.507   0.055  0.00  0.00    +0.233 C 
ATOM     11  O   UNL     1      -1.016   2.192   0.109  0.00  0.00    -0.274 OA
ATOM     12  O   UNL     1       0.654  -0.144  -2.208  0.00  0.00    -0.359 OA
ENDROOT
BRANCH   1  17
ATOM     13  C   UNL     1       2.489   5.254   1.093  0.00  0.00    +0.002 A 
ATOM     14  C   UNL     1       2.131   6.043   0.015  0.00  0.00    +0.012 A 
ATOM     15  C   UNL     1       1.478   5.484  -1.067  0.00  0.00    +0.057 A 
ATOM     16  C   UNL     1       1.180   4.135  -1.075  0.00  0.00    +0.036 A 
ATOM     17  C   UNL     1       1.537   3.341   0.006  0.00  0.00    +0.044 A 
ATOM     18  C   UNL     1       2.188   3.906   1.094  0.00  0.00    +0.024 A 
BRANCH  15  19
ATOM     19  C   UNL     1       1.091   6.347  -2.240  0.00  0.00    +0.417 C 
ATOM     20  F   UNL     1      -0.191   6.868  -2.033  0.00  0.00    -0.166 F 
ATOM     21  F   UNL     1       2.006   7.398  -2.369  0.00  0.00    -0.166 F 
ATOM     22  F   UNL     1       1.098   5.577  -3.409  0.00  0.00    -0.166 F 
ENDBRANCH  15  19
ENDBRANCH   1  17
BRANCH   8  23
ATOM     23  C   UNL     1      -1.846   0.086  -1.814  0.00  0.00    +0.144 C 
BRANCH  23  24
ATOM     24  N   UNL     1      -2.242  -0.538  -3.079  0.00  0.00    -0.309 N 
ATOM     25  C   UNL     1      -3.403  -0.189  -3.668  0.00  0.00    +0.251 C 
ATOM     26  O   UNL     1      -4.120   0.640  -3.151  0.00  0.00    -0.272 OA
ATOM     27  H   UNL     1      -1.668  -1.201  -3.493  0.00  0.00    +0.149 HD
BRANCH  25  28
ATOM     28  C   UNL     1      -3.810  -0.831  -4.969  0.00  0.00    +0.324 C 
BRANCH  28  29
ATOM     29  O   UNL     1      -5.069  -0.300  -5.389  0.00  0.00    -0.481 OA
BRANCH  29  30
ATOM     30  C   UNL     1      -5.582  -0.777  -6.554  0.00  0.00    +0.140 A 
ATOM     31  C   UNL     1      -4.886  -1.732  -7.280  0.00  0.00    +0.048 A 
ATOM     32  C   UNL     1      -5.412  -2.219  -8.461  0.00  0.00    +0.023 A 
ATOM     33  C   UNL     1      -6.627  -1.748  -8.926  0.00  0.00    +0.043 A 
ATOM     34  C   UNL     1      -7.321  -0.792  -8.206  0.00  0.00    +0.043 A 
ATOM     35  C   UNL     1      -6.801  -0.306  -7.021  0.00  0.00    +0.084 A 
ATOM     36 CL   UNL     1      -7.672   0.894  -6.117  0.00  0.00    -0.080 Cl
ATOM     37 CL   UNL     1      -7.282  -2.357 -10.414  0.00  0.00    -0.083 Cl
ENDBRANCH  29  30
ENDBRANCH  28  29
ENDBRANCH  25  28
ENDBRANCH  23  24
ENDBRANCH   8  23
TORSDOF 7
