REMARK  Name = ZINC01923978
REMARK  9 active torsions:
REMARK  status: ('A' for Active; 'I' for Inactive)
REMARK    1  A    between atoms: C_1  and  C_2
REMARK    2  A    between atoms: C_2  and  C_3
REMARK    3  A    between atoms: C_6  and  N_9
REMARK    4  A    between atoms: C_10  and  C_12
REMARK    5  A    between atoms: C_12  and  O_13
REMARK    6  A    between atoms: O_13  and  C_14
REMARK    7  A    between atoms: C_19  and  C_31
REMARK    8  A    between atoms: C_20  and  C_30
REMARK    9  A    between atoms: C_24  and  C_25
REMARK                            x       y       z     vdW  Elec       q    Type
REMARK                         _______ _______ _______ _____ _____    ______ ____
ROOT
ATOM      1  C   UNL     1      -2.744   6.211   8.202  0.00  0.00    +0.214 A 
ATOM      2  C   UNL     1      -3.818   7.130   8.199  0.00  0.00    +0.235 A 
ATOM      3  O   UNL     1      -4.356   7.474   7.159  0.00  0.00    -0.283 OA
ATOM      4  C   UNL     1      -4.268   7.655   9.503  0.00  0.00    +0.068 A 
ATOM      5  C   UNL     1      -5.324   8.562   9.591  0.00  0.00    +0.019 A 
ATOM      6  C   UNL     1      -5.713   9.036  10.825  0.00  0.00    -0.047 A 
ATOM      7  C   UNL     1      -5.060   8.615  11.974  0.00  0.00    -0.044 A 
ATOM      8  C   UNL     1      -4.015   7.718  11.900  0.00  0.00    +0.050 A 
ATOM      9  C   UNL     1      -3.607   7.228  10.665  0.00  0.00    +0.140 A 
ATOM     10  O   UNL     1      -2.585   6.351  10.577  0.00  0.00    -0.448 OA
ATOM     11  C   UNL     1      -2.162   5.856   9.401  0.00  0.00    +0.216 A 
ATOM     12  C   UNL     1      -5.497   9.142  13.316  0.00  0.00    +0.044 C 
ATOM     13  C   UNL     1      -6.853  10.016  10.926  0.00  0.00    +0.044 C 
ENDROOT
BRANCH  11  14
ATOM     14  C   UNL     1      -1.046   4.907   9.393  0.00  0.00    +0.173 A 
ATOM     15  C   UNL     1      -0.366   4.457  10.489  0.00  0.00    +0.053 A 
ATOM     16  C   UNL     1       0.616   3.568  10.020  0.00  0.00    +0.042 A 
ATOM     17  C   UNL     1       0.494   3.516   8.676  0.00  0.00    +0.196 A 
ATOM     18  O   UNL     1      -0.512   4.320   8.302  0.00  0.00    -0.460 OA
ENDBRANCH  11  14
BRANCH   1  19
ATOM     19  O   UNL     1      -2.285   5.686   7.033  0.00  0.00    -0.476 OA
BRANCH  19  20
ATOM     20  C   UNL     1      -2.887   4.469   6.588  0.00  0.00    +0.325 C 
BRANCH  20  22
ATOM     21  N   UNL     1      -2.668   2.915   4.676  0.00  0.00    -0.283 N 
ATOM     22  C   UNL     1      -2.256   4.043   5.287  0.00  0.00    +0.255 C 
ATOM     23  O   UNL     1      -1.377   4.716   4.790  0.00  0.00    -0.272 OA
ATOM     24  H   UNL     1      -3.421   2.419   5.031  0.00  0.00    +0.155 HD
BRANCH  21  28
ATOM     25  C   UNL     1      -0.706   1.561   1.259  0.00  0.00    -0.048 A 
ATOM     26  C   UNL     1      -2.068   1.362   1.397  0.00  0.00    +0.005 A 
ATOM     27  C   UNL     1      -2.720   1.806   2.531  0.00  0.00    +0.023 A 
ATOM     28  C   UNL     1      -2.009   2.461   3.528  0.00  0.00    +0.034 A 
ATOM     29  C   UNL     1      -0.643   2.663   3.384  0.00  0.00    +0.023 A 
ATOM     30  C   UNL     1       0.004   2.213   2.250  0.00  0.00    +0.005 A 
BRANCH  25  32
ATOM     31  C   UNL     1       0.500  -0.358   0.253  0.00  0.00    +0.009 C 
ATOM     32  C   UNL     1       0.004   1.071   0.023  0.00  0.00    +0.032 C 
ENDBRANCH  25  32
ENDBRANCH  21  28
ENDBRANCH  20  22
ENDBRANCH  19  20
ENDBRANCH   1  19
TORSDOF 6
