REMARK  Name = ZINC09725019
REMARK  7 active torsions:
REMARK  status: ('A' for Active; 'I' for Inactive)
REMARK    1  A    between atoms: C_1  and  N_46
REMARK    2  A    between atoms: C_2  and  C_3
REMARK    3  A    between atoms: C_2  and  N_46
REMARK    4  A    between atoms: C_9  and  C_14
REMARK    5  A    between atoms: C_19  and  C_20
REMARK    6  A    between atoms: C_19  and  N_46
REMARK    7  A    between atoms: N_22  and  C_23
REMARK                            x       y       z     vdW  Elec       q    Type
REMARK                         _______ _______ _______ _____ _____    ______ ____
ROOT
ATOM      1  C   UNL     1      -3.719   1.640  -0.247  0.00  0.00    -0.003 C 
ENDROOT
BRANCH   1   2
ATOM      2  C   UNL     1      -4.785   0.603  -0.491  0.00  0.00    +0.094 A 
ATOM      3  N   UNL     1      -6.061   1.001  -0.731  0.00  0.00    -0.312 N 
ATOM      4  H   UNL     1      -6.269   1.948  -0.743  0.00  0.00    +0.170 HD
ATOM      5  C   UNL     1      -7.041   0.107  -0.958  0.00  0.00    +0.260 A 
ATOM      6  O   UNL     1      -8.181   0.481  -1.177  0.00  0.00    -0.267 OA
ATOM      7  C   UNL     1      -6.726  -1.289  -0.934  0.00  0.00    +0.083 A 
ATOM      8  C   UNL     1      -7.603  -2.436  -1.142  0.00  0.00    +0.039 A 
ATOM      9  C   UNL     1      -7.071  -3.683  -1.071  0.00  0.00    +0.059 A 
ATOM     10  S   UNL     1      -5.351  -3.378  -0.716  0.00  0.00    -0.076 S 
ATOM     11  C   UNL     1      -5.383  -1.605  -0.673  0.00  0.00    +0.116 A 
ATOM     12  N   UNL     1      -4.467  -0.663  -0.462  0.00  0.00    -0.229 NA
BRANCH   8  13
ATOM     13  C   UNL     1      -9.040  -2.245  -1.425  0.00  0.00    +0.136 A 
ATOM     14  C   UNL     1      -9.735  -2.816  -2.446  0.00  0.00    +0.050 A 
ATOM     15  C   UNL     1     -11.066  -2.362  -2.334  0.00  0.00    +0.042 A 
ATOM     16  C   UNL     1     -11.114  -1.540  -1.268  0.00  0.00    +0.196 A 
ATOM     17  O   UNL     1      -9.888  -1.471  -0.722  0.00  0.00    -0.463 OA
ENDBRANCH   8  13
ENDBRANCH   1   2
BRANCH   1  19
ATOM     18  C   UNL     1      -2.464   0.204   1.244  0.00  0.00    -0.095 C 
ATOM     19  N   UNL     1      -2.428   0.955  -0.029  0.00  0.00    +0.388 N 
ATOM     20  H   UNL     1      -2.265   0.297  -0.799  0.00  0.00    -0.081 HD
BRANCH  19  21
ATOM     21  C   UNL     1      -1.330   1.943  -0.001  0.00  0.00    +0.019 C 
BRANCH  21  22
ATOM     22  C   UNL     1      -0.014   1.208   0.001  0.00  0.00    +0.201 C 
ATOM     23  O   UNL     1       0.003  -0.005  -0.002  0.00  0.00    -0.278 OA
ATOM     24  N   UNL     1       1.143   1.898   0.001  0.00  0.00    -0.285 N 
ATOM     25  H   UNL     1       1.131   2.866  -0.061  0.00  0.00    +0.155 HD
BRANCH  24  26
ATOM     26  C   UNL     1       2.365   1.218   0.092  0.00  0.00    +0.072 A 
ATOM     27  C   UNL     1       2.514  -0.025  -0.508  0.00  0.00    +0.029 A 
ATOM     28  C   UNL     1       3.720  -0.694  -0.422  0.00  0.00    +0.043 A 
ATOM     29  C   UNL     1       4.779  -0.131   0.270  0.00  0.00    +0.161 A 
ATOM     30  C   UNL     1       4.633   1.108   0.875  0.00  0.00    +0.195 A 
ATOM     31  C   UNL     1       3.427   1.784   0.787  0.00  0.00    +0.182 A 
ATOM     32  F   UNL     1       3.284   2.991   1.375  0.00  0.00    -0.200 F 
ATOM     33  F   UNL     1       5.667   1.656   1.550  0.00  0.00    -0.199 F 
ATOM     34  F   UNL     1       5.955  -0.789   0.356  0.00  0.00    -0.202 F 
ENDBRANCH  24  26
ENDBRANCH  21  22
ENDBRANCH  19  21
ENDBRANCH   1  19
TORSDOF 6
