REMARK  Name = ZINC09114405
REMARK  9 active torsions:
REMARK  status: ('A' for Active; 'I' for Inactive)
REMARK    1  A    between atoms: C_1  and  O_2
REMARK    2  A    between atoms: O_2  and  C_3
REMARK    3  A    between atoms: C_8  and  C_9
REMARK    4  A    between atoms: C_9  and  N_10
REMARK    5  A    between atoms: N_22  and  C_25
REMARK    6  A    between atoms: C_25  and  N_62
REMARK    7  A    between atoms: C_30  and  C_32
REMARK    8  A    between atoms: C_32  and  O_34
REMARK    9  A    between atoms: O_34  and  C_35
REMARK                            x       y       z     vdW  Elec       q    Type
REMARK                         _______ _______ _______ _____ _____    ______ ____
ROOT
ATOM      1  N   UNL     1       3.570   1.678  -4.944  0.00  0.00    -0.272 N 
ATOM      2  C   UNL     1       4.089   2.562  -5.819  0.00  0.00    +0.263 A 
ATOM      3  O   UNL     1       5.266   2.514  -6.121  0.00  0.00    -0.267 OA
ATOM      4  C   UNL     1       3.208   3.590  -6.403  0.00  0.00    +0.064 A 
ATOM      5  C   UNL     1       3.695   4.527  -7.313  0.00  0.00    +0.015 A 
ATOM      6  C   UNL     1       2.840   5.473  -7.839  0.00  0.00    +0.001 A 
ATOM      7  C   UNL     1       1.505   5.495  -7.469  0.00  0.00    +0.002 A 
ATOM      8  C   UNL     1       1.011   4.571  -6.569  0.00  0.00    +0.027 A 
ATOM      9  C   UNL     1       1.855   3.613  -6.030  0.00  0.00    +0.064 A 
ATOM     10  N   UNL     1       1.381   2.670  -5.120  0.00  0.00    -0.257 N 
ATOM     11  C   UNL     1       2.228   1.722  -4.591  0.00  0.00    +0.238 A 
ATOM     12  N   UNL     1       1.544   0.967  -3.775  0.00  0.00    -0.133 NA
ATOM     13  N   UNL     1       0.220   1.424  -3.764  0.00  0.00    -0.255 N 
ATOM     14  C   UNL     1       0.148   2.472  -4.608  0.00  0.00    +0.182 A 
ATOM     15  S   UNL     1      -1.253   3.390  -4.964  0.00  0.00    -0.011 S 
ENDROOT
BRANCH   1  16
ATOM     16  C   UNL     1       4.436   0.652  -4.357  0.00  0.00    +0.167 C 
BRANCH  16  22
ATOM     17  C   UNL     1       5.202  -0.624  -6.375  0.00  0.00    +0.125 A 
ATOM     18  C   UNL     1       5.187  -1.757  -7.175  0.00  0.00    +0.046 A 
ATOM     19  C   UNL     1       4.396  -2.835  -6.829  0.00  0.00    +0.004 A 
ATOM     20  C   UNL     1       3.620  -2.786  -5.685  0.00  0.00    +0.001 A 
ATOM     21  C   UNL     1       3.636  -1.660  -4.884  0.00  0.00    +0.009 A 
ATOM     22  C   UNL     1       4.422  -0.577  -5.229  0.00  0.00    +0.014 A 
BRANCH  17  24
ATOM     23  C   UNL     1       6.756   0.319  -7.907  0.00  0.00    +0.277 C 
ATOM     24  O   UNL     1       5.979   0.438  -6.713  0.00  0.00    -0.495 OA
ENDBRANCH  17  24
ENDBRANCH  16  22
ENDBRANCH   1  16
BRANCH  13  25
ATOM     25  C   UNL     1      -0.885   0.861  -2.985  0.00  0.00    +0.073 C 
BRANCH  25  31
ATOM     26  C   UNL     1      -1.052   2.985  -1.835  0.00  0.00    -0.075 C 
ATOM     27  C   UNL     1      -0.973   3.654  -0.461  0.00  0.00    -0.019 C 
ATOM     28  C   UNL     1      -2.114   3.138   0.420  0.00  0.00    -0.003 C 
ATOM     29  C   UNL     1      -2.014   1.614   0.528  0.00  0.00    -0.004 C 
ATOM     30  C   UNL     1      -2.064   1.004  -0.875  0.00  0.00    +0.045 C 
ATOM     31  N   UNL     1      -0.926   1.522  -1.664  0.00  0.00    +0.402 N 
ATOM     32  H   UNL     1      -0.053   1.319  -1.162  0.00  0.00    -0.078 HD
BRANCH  30  33
ATOM     33  C   UNL     1      -1.946  -0.496  -0.774  0.00  0.00    +0.293 C 
ATOM     34  O   UNL     1      -0.860  -1.021  -0.827  0.00  0.00    -0.253 OA
BRANCH  33  35
ATOM     35  O   UNL     1      -3.049  -1.247  -0.625  0.00  0.00    -0.469 OA
ATOM     36  C   UNL     1      -2.860  -2.684  -0.535  0.00  0.00    +0.280 C 
ENDBRANCH  33  35
ENDBRANCH  30  33
ENDBRANCH  25  31
ENDBRANCH  13  25
TORSDOF 7
