REMARK  Name = ZINC41301490
REMARK  5 active torsions:
REMARK  status: ('A' for Active; 'I' for Inactive)
REMARK    1  A    between atoms: C_1  and  C_2
REMARK    2  A    between atoms: C_8  and  N_11
REMARK    3  A    between atoms: C_13  and  N_32
REMARK    4  A    between atoms: C_14  and  N_31
REMARK    5  A    between atoms: N_21  and  C_24
REMARK                            x       y       z     vdW  Elec       q    Type
REMARK                         _______ _______ _______ _____ _____    ______ ____
ROOT
ATOM      1  N   UNL     1       1.473  -2.627   3.397  0.00  0.00    -0.266 N 
ATOM      2  C   UNL     1       1.794  -3.656   4.271  0.00  0.00    +0.163 A 
ATOM      3  C   UNL     1       1.999  -3.394   5.623  0.00  0.00    +0.205 A 
ATOM      4  C   UNL     1       2.319  -4.457   6.462  0.00  0.00    +0.154 A 
ATOM      5  N   UNL     1       2.418  -5.681   5.949  0.00  0.00    -0.197 NA
ATOM      6  C   UNL     1       2.215  -5.893   4.657  0.00  0.00    +0.221 A 
ATOM      7  N   UNL     1       1.904  -4.907   3.830  0.00  0.00    -0.197 NA
ATOM      8  N   UNL     1       2.327  -7.180   4.160  0.00  0.00    -0.297 N 
ATOM      9  C   UNL     1       2.115  -7.451   2.731  0.00  0.00    +0.127 C 
ATOM     10  C   UNL     1       3.355  -8.165   2.179  0.00  0.00    +0.124 C 
ATOM     11  N   UNL     1       3.688  -9.285   3.070  0.00  0.00    -0.325 N 
ATOM     12  C   UNL     1       3.900  -9.014   4.499  0.00  0.00    +0.124 C 
ATOM     13  C   UNL     1       2.666  -8.299   5.051  0.00  0.00    +0.127 C 
ATOM     14  H   UNL     1       1.394  -1.718   3.725  0.00  0.00    +0.157 HD
ENDROOT
BRANCH   1  21
ATOM     15  C   UNL     1      -0.019   1.526   0.010  0.00  0.00    +0.008 C 
ATOM     16  C   UNL     1       0.002  -0.004   0.002  0.00  0.00    -0.009 C 
ATOM     17  C   UNL     1       0.716  -0.496  -1.259  0.00  0.00    +0.010 C 
ATOM     18  C   UNL     1       0.486  -2.003  -1.429  0.00  0.00    +0.059 C 
ATOM     19  C   UNL     1       0.829  -2.683  -0.126  0.00  0.00    +0.089 A 
ATOM     20  C   UNL     1       0.948  -1.998   1.099  0.00  0.00    +0.037 A 
ATOM     21  C   UNL     1       1.265  -2.899   2.055  0.00  0.00    +0.226 A 
ATOM     22  O   UNL     1       1.342  -4.108   1.468  0.00  0.00    -0.339 OA
ATOM     23  N   UNL     1       1.061  -3.942   0.088  0.00  0.00    -0.081 NA
ATOM     24  C   UNL     1       0.742  -0.511   1.246  0.00  0.00    +0.045 C 
ENDBRANCH   1  21
BRANCH  11  25
ATOM     25  C   UNL     1       3.801 -10.585   2.568  0.00  0.00    +0.065 A 
ATOM     26  C   UNL     1       5.027 -11.052   2.115  0.00  0.00    +0.026 A 
ATOM     27  C   UNL     1       5.136 -12.337   1.619  0.00  0.00    +0.002 A 
ATOM     28  C   UNL     1       4.025 -13.159   1.573  0.00  0.00    +0.003 A 
ATOM     29  C   UNL     1       2.801 -12.698   2.023  0.00  0.00    +0.040 A 
ATOM     30  C   UNL     1       2.686 -11.415   2.526  0.00  0.00    +0.144 A 
ATOM     31  F   UNL     1       1.491 -10.967   2.970  0.00  0.00    -0.204 F 
ENDBRANCH  11  25
BRANCH   4  32
ATOM     32  N   UNL     1       2.533  -4.244   7.815  0.00  0.00    -0.341 N 
ATOM     33  H   UNL     1       2.460  -3.349   8.183  0.00  0.00    +0.144 HD
ATOM     34  H   UNL     1       2.756  -4.989   8.395  0.00  0.00    +0.144 HD
ENDBRANCH   4  32
BRANCH   3  35
ATOM     35  N   UNL     1       1.881  -2.018   6.154  0.00  0.00    +0.063 N 
ATOM     36  O   UNL     1       0.814  -1.615   6.557  0.00  0.00    -0.126 OA
ATOM     37  O   UNL     1       2.850  -1.296   6.186  0.00  0.00    -0.126 OA
ENDBRANCH   3  35
TORSDOF 4
