REMARK  Name = ZINC39478152
REMARK  9 active torsions:
REMARK  status: ('A' for Active; 'I' for Inactive)
REMARK    1  A    between atoms: C_1  and  O_2
REMARK    2  A    between atoms: O_2  and  C_3
REMARK    3  A    between atoms: C_5  and  C_13
REMARK    4  A    between atoms: C_8  and  O_9
REMARK    5  A    between atoms: O_9  and  C_10
REMARK    6  A    between atoms: C_13  and  O_15
REMARK    7  A    between atoms: O_15  and  C_16
REMARK    8  A    between atoms: C_16  and  C_17
REMARK    9  A    between atoms: N_19  and  C_20
REMARK                            x       y       z     vdW  Elec       q    Type
REMARK                         _______ _______ _______ _____ _____    ______ ____
ROOT
ATOM      1  C   UNL     1       4.176  -0.252  -7.348  0.00  0.00    +0.255 C 
ATOM      2  O   UNL     1       4.146  -1.462  -7.266  0.00  0.00    -0.272 OA
ATOM      3  N   UNL     1       4.771   0.336  -8.405  0.00  0.00    -0.283 N 
ATOM      4  H   UNL     1       4.736   1.300  -8.506  0.00  0.00    +0.155 HD
ENDROOT
BRANCH   3   5
ATOM      5  C   UNL     1       5.437  -0.445  -9.358  0.00  0.00    +0.037 A 
ATOM      6  C   UNL     1       6.588   0.038  -9.969  0.00  0.00    +0.027 A 
ATOM      7  C   UNL     1       7.247  -0.731 -10.910  0.00  0.00    +0.051 A 
ATOM      8  C   UNL     1       6.763  -1.983 -11.244  0.00  0.00    +0.167 A 
ATOM      9  C   UNL     1       5.609  -2.471 -10.632  0.00  0.00    +0.169 A 
ATOM     10  C   UNL     1       4.951  -1.703  -9.688  0.00  0.00    +0.073 A 
ATOM     11  O   UNL     1       5.350  -3.720 -11.134  0.00  0.00    -0.447 OA
ATOM     12  C   UNL     1       6.062  -3.744 -12.379  0.00  0.00    +0.254 C 
ATOM     13  O   UNL     1       7.216  -2.931 -12.126  0.00  0.00    -0.448 OA
ATOM     14  C   UNL     1       5.212  -3.168 -13.517  0.00  0.00    +0.093 C 
ATOM     15  C   UNL     1       5.618  -4.014 -14.752  0.00  0.00    +0.008 C 
ATOM     16  C   UNL     1       5.817  -5.429 -14.153  0.00  0.00    +0.008 C 
ATOM     17  C   UNL     1       6.455  -5.169 -12.770  0.00  0.00    +0.093 C 
ENDBRANCH   3   5
BRANCH   1  18
ATOM     18  C   UNL     1       3.549   0.593  -6.269  0.00  0.00    +0.328 C 
BRANCH  18  19
ATOM     19  O   UNL     1       2.989  -0.256  -5.265  0.00  0.00    -0.452 OA
BRANCH  19  20
ATOM     20  C   UNL     1       2.386   0.347  -4.222  0.00  0.00    +0.340 C 
ATOM     21  O   UNL     1       2.337   1.560  -4.167  0.00  0.00    -0.245 OA
BRANCH  20  24
ATOM     22  C   UNL     1       0.597  -0.607  -1.061  0.00  0.00    +0.162 A 
ATOM     23  C   UNL     1       1.159   0.159  -2.065  0.00  0.00    +0.064 A 
ATOM     24  C   UNL     1       1.785  -0.465  -3.148  0.00  0.00    +0.063 A 
ATOM     25  C   UNL     1       1.840  -1.860  -3.210  0.00  0.00    +0.019 A 
ATOM     26  C   UNL     1       1.278  -2.617  -2.206  0.00  0.00    +0.050 A 
ATOM     27  C   UNL     1       0.661  -1.998  -1.127  0.00  0.00    +0.168 A 
BRANCH  22  29
ATOM     28  C   UNL     1      -0.041   1.426  -0.004  0.00  0.00    +0.277 C 
ATOM     29  O   UNL     1      -0.013  -0.003  -0.006  0.00  0.00    -0.491 OA
ENDBRANCH  22  29
BRANCH  27  30
ATOM     30  O   UNL     1       0.113  -2.749  -0.137  0.00  0.00    -0.431 OA
BRANCH  30  31
ATOM     31  C   UNL     1       0.214  -4.168  -0.268  0.00  0.00    +0.541 C 
ATOM     32  F   UNL     1      -0.424  -4.574  -1.445  0.00  0.00    -0.166 F 
ATOM     33  F   UNL     1       1.563  -4.537  -0.318  0.00  0.00    -0.166 F 
ENDBRANCH  30  31
ENDBRANCH  27  30
ENDBRANCH  20  24
ENDBRANCH  19  20
ENDBRANCH  18  19
ENDBRANCH   1  18
TORSDOF 8
