REMARK  Name = ZINC11971762
REMARK  12 active torsions:
REMARK  status: ('A' for Active; 'I' for Inactive)
REMARK    1  A    between atoms: C_1  and  C_2
REMARK    2  A    between atoms: C_5  and  C_9
REMARK    3  A    between atoms: C_7  and  C_8
REMARK    4  A    between atoms: C_14  and  C_17
REMARK    5  A    between atoms: C_17  and  C_28
REMARK    6  A    between atoms: N_20  and  C_24
REMARK    7  A    between atoms: C_24  and  C_25
REMARK    8  A    between atoms: C_25  and  N_74
REMARK    9  A    between atoms: C_26  and  N_74
REMARK   10  A    between atoms: C_27  and  N_74
REMARK   11  A    between atoms: C_28  and  C_29
REMARK   12  A    between atoms: C_29  and  C_30
REMARK                            x       y       z     vdW  Elec       q    Type
REMARK                         _______ _______ _______ _____ _____    ______ ____
ROOT
ATOM      1  C   UNL     1      -1.866   2.145  -0.140  0.00  0.00    +0.116 C 
ATOM      2  C   UNL     1      -1.985   0.641   0.003  0.00  0.00    +0.247 C 
ATOM      3  O   UNL     1      -1.137  -0.126   0.407  0.00  0.00    -0.273 OA
ATOM      4  N   UNL     1      -3.229   0.333  -0.414  0.00  0.00    -0.226 N 
ATOM      5  C   UNL     1      -3.905   1.422  -0.796  0.00  0.00    +0.309 C 
ATOM      6  O   UNL     1      -5.048   1.397  -1.211  0.00  0.00    -0.252 OA
ATOM      7  N   UNL     1      -3.180   2.548  -0.670  0.00  0.00    -0.285 N 
ATOM      8  H   UNL     1      -3.465   3.449  -0.890  0.00  0.00    +0.151 HD
ENDROOT
BRANCH   1  14
ATOM      9  C   UNL     1       0.210   4.199  -4.743  0.00  0.00    +0.247 C 
ATOM     10  O   UNL     1       0.203   5.413  -4.813  0.00  0.00    -0.270 OA
ATOM     11  N   UNL     1       0.244   3.594  -3.539  0.00  0.00    -0.298 N 
ATOM     12  C   UNL     1       0.129   2.133  -3.433  0.00  0.00    +0.108 C 
ATOM     13  C   UNL     1      -1.004   1.797  -2.459  0.00  0.00    +0.025 C 
ATOM     14  C   UNL     1      -0.754   2.506  -1.127  0.00  0.00    +0.024 C 
ATOM     15  C   UNL     1      -0.740   4.020  -1.348  0.00  0.00    +0.025 C 
ATOM     16  C   UNL     1       0.397   4.382  -2.309  0.00  0.00    +0.108 C 
BRANCH   9  21
ATOM     17  C   UNL     1       0.100   1.042  -9.553  0.00  0.00    +0.044 C 
ATOM     18  C   UNL     1       0.128   1.869  -8.293  0.00  0.00    -0.047 A 
ATOM     19  C   UNL     1       0.852   1.431  -7.198  0.00  0.00    +0.004 A 
ATOM     20  C   UNL     1       0.887   2.185  -6.044  0.00  0.00    +0.013 A 
ATOM     21  C   UNL     1       0.181   3.388  -5.979  0.00  0.00    +0.037 A 
ATOM     22  C   UNL     1      -0.547   3.824  -7.086  0.00  0.00    +0.016 A 
ATOM     23  C   UNL     1      -0.570   3.062  -8.236  0.00  0.00    -0.047 A 
ATOM     24  C   UNL     1      -1.356   3.530  -9.434  0.00  0.00    +0.044 C 
ENDBRANCH   9  21
ENDBRANCH   1  14
BRANCH   4  25
ATOM     25  C   UNL     1      -3.773  -1.027  -0.446  0.00  0.00    +0.099 C 
BRANCH  25  26
ATOM     26  C   UNL     1      -3.470  -1.666  -1.802  0.00  0.00    -0.060 C 
BRANCH  26  29
ATOM     27  C   UNL     1      -5.484  -3.011  -1.776  0.00  0.00    -0.097 C 
ATOM     28  C   UNL     1      -3.545  -3.758  -3.020  0.00  0.00    -0.097 C 
ATOM     29  N   UNL     1      -4.006  -3.044  -1.811  0.00  0.00    +0.377 N 
ATOM     30  H   UNL     1      -3.664  -3.540  -0.979  0.00  0.00    -0.083 HD
ENDBRANCH  26  29
ENDBRANCH  25  26
ENDBRANCH   4  25
BRANCH   1  31
ATOM     31  C   UNL     1      -1.612   2.797   1.221  0.00  0.00    +0.040 C 
BRANCH  31  32
ATOM     32  C   UNL     1      -2.709   2.374   2.201  0.00  0.00    +0.038 C 
BRANCH  32  33
ATOM     33  C   UNL     1      -2.459   3.016   3.542  0.00  0.00    -0.047 A 
ATOM     34  C   UNL     1      -1.691   2.363   4.488  0.00  0.00    +0.003 A 
ATOM     35  C   UNL     1      -1.458   2.954   5.716  0.00  0.00    +0.000 A 
ATOM     36  C   UNL     1      -2.001   4.192   6.001  0.00  0.00    +0.000 A 
ATOM     37  C   UNL     1      -2.774   4.843   5.057  0.00  0.00    +0.000 A 
ATOM     38  C   UNL     1      -3.002   4.254   3.827  0.00  0.00    +0.003 A 
ENDBRANCH  32  33
ENDBRANCH  31  32
ENDBRANCH   1  31
TORSDOF 8
