REMARK  Name = ZINC33796035
REMARK  9 active torsions:
REMARK  status: ('A' for Active; 'I' for Inactive)
REMARK    1  A    between atoms: C_1  and  C_2
REMARK    2  A    between atoms: C_3  and  C_35
REMARK    3  A    between atoms: C_8  and  C_28
REMARK    4  A    between atoms: C_10  and  C_15
REMARK    5  A    between atoms: C_15  and  C_17
REMARK    6  A    between atoms: C_23  and  O_26
REMARK    7  A    between atoms: O_26  and  C_27
REMARK    8  A    between atoms: C_31  and  O_34
REMARK    9  A    between atoms: C_35  and  C_37
REMARK                            x       y       z     vdW  Elec       q    Type
REMARK                         _______ _______ _______ _____ _____    ______ ____
ROOT
ATOM      1  C   UNL     1       3.400   9.399  -0.102  0.00  0.00    +0.067 C 
ATOM      2  C   UNL     1       4.375   8.252  -0.168  0.00  0.00    +0.058 A 
ATOM      3  C   UNL     1       5.746   8.476  -0.276  0.00  0.00    +0.078 A 
ATOM      4  S   UNL     1       6.351   6.795  -0.310  0.00  0.00    -0.049 S 
ATOM      5  C   UNL     1       4.814   5.997  -0.185  0.00  0.00    +0.169 A 
ATOM      6  N   UNL     1       3.965   7.013  -0.133  0.00  0.00    -0.229 NA
ATOM      7  N   UNL     1       4.544   4.644  -0.154  0.00  0.00    -0.232 N 
ATOM      8  C   UNL     1       3.215   4.030  -0.046  0.00  0.00    +0.152 C 
ATOM      9  C   UNL     1       3.439   2.536  -0.052  0.00  0.00    +0.080 C 
ATOM     10  C   UNL     1       4.776   2.343  -0.148  0.00  0.00    +0.250 C 
ATOM     11  C   UNL     1       5.452   3.653  -0.216  0.00  0.00    +0.293 C 
ATOM     12  O   UNL     1       6.653   3.814  -0.311  0.00  0.00    -0.266 OA
ATOM     13  O   UNL     1       5.394   1.139  -0.179  0.00  0.00    -0.282 OA
ENDROOT
BRANCH   8  14
ATOM     14  C   UNL     1       2.362   4.431  -1.223  0.00  0.00    -0.022 A 
ATOM     15  C   UNL     1       2.912   4.475  -2.490  0.00  0.00    +0.009 A 
ATOM     16  C   UNL     1       2.131   4.836  -3.571  0.00  0.00    +0.046 A 
ATOM     17  C   UNL     1       0.797   5.167  -3.382  0.00  0.00    +0.117 A 
ATOM     18  C   UNL     1       0.249   5.128  -2.108  0.00  0.00    +0.046 A 
ATOM     19  C   UNL     1       1.033   4.760  -1.032  0.00  0.00    +0.009 A 
BRANCH  17  20
ATOM     20  O   UNL     1       0.029   5.527  -4.443  0.00  0.00    -0.507 OA
ATOM     21  H   UNL     1      -1.029   5.789  -4.292  0.00  0.00    +0.292 HD
ENDBRANCH  17  20
ENDBRANCH   8  14
BRANCH   3  22
ATOM     22  C   UNL     1       6.457   9.691  -0.340  0.00  0.00    +0.168 C 
ATOM     23  O   UNL     1       5.859  10.748  -0.301  0.00  0.00    -0.292 OA
ATOM     24  C   UNL     1       7.960   9.679  -0.456  0.00  0.00    +0.092 C 
ENDBRANCH   3  22
BRANCH   9  25
ATOM     25  C   UNL     1       2.409   1.496   0.036  0.00  0.00    +0.230 C 
ATOM     26  O   UNL     1       2.217   0.748  -0.906  0.00  0.00    -0.283 OA
BRANCH  25  27
ATOM     27  C   UNL     1       1.608   1.357   1.259  0.00  0.00    +0.176 A 
ATOM     28  C   UNL     1       0.562   0.501   1.418  0.00  0.00    +0.062 A 
ATOM     29  C   UNL     1       0.071   0.711   2.779  0.00  0.00    +0.025 A 
ATOM     30  C   UNL     1      -0.966   0.155   3.537  0.00  0.00    +0.012 A 
ATOM     31  C   UNL     1      -1.172   0.579   4.818  0.00  0.00    +0.004 A 
ATOM     32  C   UNL     1      -0.360   1.558   5.376  0.00  0.00    +0.049 A 
ATOM     33  C   UNL     1       0.674   2.116   4.647  0.00  0.00    +0.163 A 
ATOM     34  C   UNL     1       0.900   1.701   3.336  0.00  0.00    +0.177 A 
ATOM     35  O   UNL     1       1.798   2.059   2.396  0.00  0.00    -0.448 OA
BRANCH  33  36
ATOM     36  O   UNL     1       1.460   3.076   5.204  0.00  0.00    -0.491 OA
ATOM     37  C   UNL     1       1.170   3.451   6.552  0.00  0.00    +0.277 C 
ENDBRANCH  33  36
ENDBRANCH  25  27
ENDBRANCH   9  25
TORSDOF 6
