REMARK  Name = ZINC50038124
REMARK  4 active torsions:
REMARK  status: ('A' for Active; 'I' for Inactive)
REMARK    1  A    between atoms: C_6  and  C_7
REMARK    2  A    between atoms: C_7  and  C_8
REMARK    3  A    between atoms: C_10  and  C_13
REMARK    4  A    between atoms: C_13  and  N_19
REMARK                            x       y       z     vdW  Elec       q    Type
REMARK                         _______ _______ _______ _____ _____    ______ ____
ROOT
ATOM      1  C   UNL     1      -1.739  -1.024  -1.407  0.00  0.00    +0.176 A 
ATOM      2  N   UNL     1      -2.521  -0.215  -2.130  0.00  0.00    -0.197 NA
ATOM      3  C   UNL     1      -2.716  -0.723  -3.316  0.00  0.00    +0.216 A 
ATOM      4  O   UNL     1      -2.057  -1.886  -3.387  0.00  0.00    -0.340 OA
ATOM      5  N   UNL     1      -1.420  -2.059  -2.130  0.00  0.00    -0.061 NA
ENDROOT
BRANCH   3   6
ATOM      6  C   UNL     1      -3.542  -0.106  -4.415  0.00  0.00    +0.010 C 
ATOM      7  C   UNL     1      -4.985   0.063  -3.936  0.00  0.00    -0.004 C 
ATOM      8  C   UNL     1      -5.564  -1.305  -3.569  0.00  0.00    -0.001 C 
ATOM      9  C   UNL     1      -5.538  -2.216  -4.798  0.00  0.00    -0.000 C 
ATOM     10  C   UNL     1      -4.095  -2.385  -5.277  0.00  0.00    -0.001 C 
ATOM     11  C   UNL     1      -3.516  -1.018  -5.644  0.00  0.00    -0.004 C 
BRANCH   6  12
ATOM     12  N   UNL     1      -2.986   1.207  -4.768  0.00  0.00    +0.388 N 
ATOM     13  H   UNL     1      -2.034   1.095  -5.084  0.00  0.00    -0.089 HD
ATOM     14  H   UNL     1      -3.539   1.620  -5.504  0.00  0.00    -0.089 HD
ATOM     15  H   UNL     1      -3.003   1.808  -3.957  0.00  0.00    -0.089 HD
ENDBRANCH   6  12
ENDBRANCH   3   6
BRANCH   1  16
ATOM     16  C   UNL     1      -1.293  -0.775   0.011  0.00  0.00    +0.115 C 
BRANCH  16  22
ATOM     17  C   UNL     1      -0.017   1.378   0.010  0.00  0.00    +0.005 A 
ATOM     18  C   UNL     1       1.171   2.086   0.002  0.00  0.00    +0.022 A 
ATOM     19  C   UNL     1       2.378   1.412  -0.013  0.00  0.00    +0.059 A 
ATOM     20  C   UNL     1       2.397   0.027  -0.021  0.00  0.00    +0.060 A 
ATOM     21  C   UNL     1       1.208  -0.680  -0.013  0.00  0.00    +0.025 A 
ATOM     22  C   UNL     1       0.002  -0.004   0.002  0.00  0.00    -0.038 A 
ATOM     23 CL   UNL     1       3.912  -0.821  -0.040  0.00  0.00    -0.082 Cl
ATOM     24 CL   UNL     1       3.869   2.301  -0.023  0.00  0.00    -0.082 Cl
ENDBRANCH  16  22
ENDBRANCH   1  16
TORSDOF 4
