REMARK  Name = ZINC14984607
REMARK  5 active torsions:
REMARK  status: ('A' for Active; 'I' for Inactive)
REMARK    1  A    between atoms: C_3  and  C_6
REMARK    2  A    between atoms: C_9  and  C_17
REMARK    3  A    between atoms: C_10  and  N_12
REMARK    4  A    between atoms: C_22  and  C_25
REMARK    5  A    between atoms: C_22  and  N_28
REMARK                            x       y       z     vdW  Elec       q    Type
REMARK                         _______ _______ _______ _____ _____    ______ ____
ROOT
ATOM      1  C   UNL     1      -4.313  -3.058   1.469  0.00  0.00    +0.250 C 
ATOM      2  O   UNL     1      -4.171  -4.253   1.289  0.00  0.00    -0.270 OA
ATOM      3  N   UNL     1      -3.660  -2.177   0.685  0.00  0.00    -0.298 N 
ATOM      4  C   UNL     1      -2.880  -2.638  -0.471  0.00  0.00    +0.107 C 
ATOM      5  C   UNL     1      -1.458  -2.077  -0.362  0.00  0.00    +0.016 C 
ATOM      6  C   UNL     1      -1.525  -0.555  -0.216  0.00  0.00    +0.015 C 
ATOM      7  C   UNL     1      -2.286  -0.197   1.063  0.00  0.00    +0.016 C 
ATOM      8  C   UNL     1      -3.716  -0.737   0.970  0.00  0.00    +0.107 C 
ENDROOT
BRANCH   6   9
ATOM      9  N   UNL     1      -0.163  -0.010  -0.144  0.00  0.00    +0.389 N 
ATOM     10  C   UNL     1      -0.184   1.458  -0.116  0.00  0.00    -0.077 C 
ATOM     11  C   UNL     1       1.248   1.992  -0.189  0.00  0.00    -0.019 C 
ATOM     12  C   UNL     1       2.049   1.452   0.999  0.00  0.00    -0.004 C 
ATOM     13  C   UNL     1       2.015  -0.078   0.974  0.00  0.00    -0.019 C 
ATOM     14  C   UNL     1       0.561  -0.552   1.013  0.00  0.00    -0.077 C 
ATOM     15  H   UNL     1       0.376  -0.321  -1.051  0.00  0.00    -0.080 HD
ENDBRANCH   6   9
BRANCH   1  19
ATOM     16  C   UNL     1      -6.795  -1.720   4.582  0.00  0.00    +0.080 A 
ATOM     17  C   UNL     1      -7.019  -1.235   3.290  0.00  0.00    +0.030 A 
ATOM     18  C   UNL     1      -6.221  -1.659   2.263  0.00  0.00    +0.018 A 
ATOM     19  C   UNL     1      -5.195  -2.575   2.543  0.00  0.00    +0.077 A 
ATOM     20  C   UNL     1      -5.027  -3.028   3.864  0.00  0.00    +0.134 A 
ATOM     21  N   UNL     1      -5.818  -2.588   4.828  0.00  0.00    -0.231 NA
BRANCH  16  24
ATOM     22  C   UNL     1      -8.528  -1.046   7.875  0.00  0.00    +0.008 A 
ATOM     23  C   UNL     1      -7.615  -1.611   7.015  0.00  0.00    +0.017 A 
ATOM     24  C   UNL     1      -7.655  -1.263   5.689  0.00  0.00    +0.038 A 
ATOM     25  S   UNL     1      -9.025  -0.119   5.650  0.00  0.00    -0.095 S 
ATOM     26  C   UNL     1      -9.446  -0.171   7.384  0.00  0.00    +0.046 A 
ENDBRANCH  16  24
BRANCH  20  27
ATOM     27  N   UNL     1      -4.025  -3.936   4.156  0.00  0.00    -0.315 N 
ATOM     28  C   UNL     1      -2.684  -3.314   4.010  0.00  0.00    +0.106 C 
ATOM     29  C   UNL     1      -1.770  -4.240   4.851  0.00  0.00    +0.020 C 
ATOM     30  C   UNL     1      -2.669  -4.614   6.052  0.00  0.00    +0.020 C 
ATOM     31  C   UNL     1      -4.111  -4.384   5.563  0.00  0.00    +0.106 C 
ENDBRANCH  20  27
ENDBRANCH   1  19
BRANCH   6  32
ATOM     32  C   UNL     1      -2.239   0.033  -1.405  0.00  0.00    +0.200 C 
ATOM     33  O   UNL     1      -3.408   0.346  -1.318  0.00  0.00    -0.278 OA
ATOM     34  N   UNL     1      -1.580   0.209  -2.567  0.00  0.00    -0.330 N 
ATOM     35  H   UNL     1      -2.101   0.638  -3.436  0.00  0.00    +0.145 HD
ATOM     36  H   UNL     1      -0.520  -0.075  -2.647  0.00  0.00    +0.145 HD
ENDBRANCH   6  32
TORSDOF 5
