REMARK  Name = ZINC01077865
REMARK  6 active torsions:
REMARK  status: ('A' for Active; 'I' for Inactive)
REMARK    1  A    between atoms: C_5  and  C_7
REMARK    2  A    between atoms: C_7  and  N_8
REMARK    3  A    between atoms: C_15  and  C_18
REMARK    4  A    between atoms: C_15  and  O_27
REMARK    5  A    between atoms: C_18  and  C_19
REMARK    6  A    between atoms: C_19  and  C_21
REMARK                            x       y       z     vdW  Elec       q    Type
REMARK                         _______ _______ _______ _____ _____    ______ ____
ROOT
ATOM      1  N   UNL     1      -0.319   5.223   0.030  0.00  0.00    -0.264 N 
ATOM      2  C   UNL     1      -0.048   3.854   0.022  0.00  0.00    +0.043 A 
ATOM      3  C   UNL     1       1.163   3.165   0.007  0.00  0.00    +0.024 A 
ATOM      4  C   UNL     1       1.175   1.785   0.000  0.00  0.00    +0.002 A 
ATOM      5  C   UNL     1      -0.013   1.076   0.008  0.00  0.00    +0.000 A 
ATOM      6  C   UNL     1      -1.219   1.753   0.017  0.00  0.00    +0.009 A 
ATOM      7  C   UNL     1      -1.234   3.130   0.030  0.00  0.00    +0.015 A 
ATOM      8  C   UNL     1      -2.353   4.146   0.045  0.00  0.00    +0.175 C 
ATOM      9  C   UNL     1      -1.638   5.481   0.044  0.00  0.00    +0.257 C 
ATOM     10  O   UNL     1      -2.158   6.576   0.053  0.00  0.00    -0.272 OA
ENDROOT
BRANCH   8  11
ATOM     11  O   UNL     1      -3.144   4.002   1.226  0.00  0.00    -0.374 OA
ATOM     12  H   UNL     1      -3.877   4.630   1.287  0.00  0.00    +0.211 HD
ENDBRANCH   8  11
BRANCH   1  13
ATOM     13  C   UNL     1       0.716   6.260   0.026  0.00  0.00    +0.151 C 
BRANCH  13  18
ATOM     14  C   UNL     1       2.503   6.426  -3.295  0.00  0.00    +0.000 A 
ATOM     15  C   UNL     1       1.688   7.286  -4.006  0.00  0.00    +0.003 A 
ATOM     16  C   UNL     1       0.557   7.815  -3.414  0.00  0.00    +0.038 A 
ATOM     17  C   UNL     1       0.241   7.483  -2.107  0.00  0.00    +0.128 A 
ATOM     18  C   UNL     1       1.058   6.622  -1.396  0.00  0.00    +0.005 A 
ATOM     19  C   UNL     1       2.192   6.098  -1.989  0.00  0.00    +0.008 A 
ATOM     20  F   UNL     1      -0.864   8.000  -1.527  0.00  0.00    -0.205 F 
ENDBRANCH  13  18
ENDBRANCH   1  13
BRANCH   8  21
ATOM     21  C   UNL     1      -3.223   4.003  -1.206  0.00  0.00    +0.129 C 
BRANCH  21  22
ATOM     22  C   UNL     1      -4.254   5.103  -1.228  0.00  0.00    +0.167 C 
ATOM     23  O   UNL     1      -4.288   5.917  -0.336  0.00  0.00    -0.292 OA
BRANCH  22  24
ATOM     24  C   UNL     1      -5.220   5.185  -2.340  0.00  0.00    +0.020 A 
ATOM     25  C   UNL     1      -5.194   4.255  -3.387  0.00  0.00    +0.031 A 
ATOM     26  C   UNL     1      -6.122   4.367  -4.404  0.00  0.00    +0.111 A 
ATOM     27  N   UNL     1      -7.014   5.337  -4.403  0.00  0.00    -0.263 NA
ATOM     28  C   UNL     1      -7.071   6.236  -3.441  0.00  0.00    +0.111 A 
ATOM     29  C   UNL     1      -6.186   6.198  -2.381  0.00  0.00    +0.031 A 
ENDBRANCH  22  24
ENDBRANCH  21  22
ENDBRANCH   8  21
TORSDOF 6
