REMARK  Name = ZINC59305538
REMARK  8 active torsions:
REMARK  status: ('A' for Active; 'I' for Inactive)
REMARK    1  A    between atoms: C_1  and  C_2
REMARK    2  A    between atoms: C_5  and  C_8
REMARK    3  A    between atoms: C_10  and  C_29
REMARK    4  A    between atoms: C_11  and  C_28
REMARK    5  A    between atoms: C_18  and  C_19
REMARK    6  A    between atoms: C_22  and  S_25
REMARK    7  A    between atoms: S_25  and  C_26
REMARK    8  A    between atoms: N_31  and  C_32
REMARK                            x       y       z     vdW  Elec       q    Type
REMARK                         _______ _______ _______ _____ _____    ______ ____
ROOT
ATOM      1  C   UNL     1       0.628  -4.152   0.345  0.00  0.00    +0.160 C 
ATOM      2  C   UNL     1       2.057  -4.305   0.810  0.00  0.00    +0.063 C 
ATOM      3  C   UNL     1       2.307  -5.149   1.855  0.00  0.00    +0.051 C 
ATOM      4  N   UNL     1       1.316  -5.811   2.439  0.00  0.00    -0.228 NA
ATOM      5  C   UNL     1       0.056  -5.730   2.092  0.00  0.00    +0.178 A 
ATOM      6  N   UNL     1      -0.410  -4.940   1.068  0.00  0.00    -0.275 N 
ATOM      7  C   UNL     1      -1.724  -4.939   0.805  0.00  0.00    +0.268 A 
ATOM      8  O   UNL     1      -2.183  -4.256  -0.092  0.00  0.00    -0.266 OA
ATOM      9  C   UNL     1      -2.593  -5.786   1.632  0.00  0.00    +0.081 A 
ATOM     10  C   UNL     1      -3.939  -5.961   1.571  0.00  0.00    +0.028 C 
ATOM     11  S   UNL     1      -1.403  -6.524   2.737  0.00  0.00    -0.046 S 
ATOM     12  C   UNL     1       3.719  -5.329   2.349  0.00  0.00    +0.066 C 
ENDROOT
BRANCH   1  17
ATOM     13  C   UNL     1      -0.787   1.436   0.744  0.00  0.00    +0.044 C 
ATOM     14  C   UNL     1      -0.418  -0.021   0.640  0.00  0.00    -0.050 A 
ATOM     15  C   UNL     1      -0.045  -0.554  -0.580  0.00  0.00    +0.004 A 
ATOM     16  C   UNL     1       0.294  -1.891  -0.675  0.00  0.00    +0.006 A 
ATOM     17  C   UNL     1       0.260  -2.695   0.449  0.00  0.00    -0.020 A 
ATOM     18  C   UNL     1      -0.113  -2.162   1.669  0.00  0.00    +0.006 A 
ATOM     19  C   UNL     1      -0.447  -0.824   1.765  0.00  0.00    +0.004 A 
ENDBRANCH   1  17
BRANCH  10  20
ATOM     20  C   UNL     1      -4.702  -5.396   0.453  0.00  0.00    -0.024 A 
ATOM     21  C   UNL     1      -4.211  -5.496  -0.856  0.00  0.00    +0.009 A 
ATOM     22  C   UNL     1      -4.925  -4.969  -1.894  0.00  0.00    +0.015 A 
ATOM     23  C   UNL     1      -6.140  -4.331  -1.653  0.00  0.00    +0.008 A 
ATOM     24  C   UNL     1      -6.633  -4.228  -0.354  0.00  0.00    +0.015 A 
ATOM     25  C   UNL     1      -5.928  -4.758   0.690  0.00  0.00    +0.009 A 
BRANCH  23  26
ATOM     26  S   UNL     1      -7.057  -3.652  -2.996  0.00  0.00    -0.129 S 
ATOM     27  C   UNL     1      -8.530  -2.944  -2.208  0.00  0.00    +0.090 C 
ENDBRANCH  23  26
ENDBRANCH  10  20
BRANCH   2  28
ATOM     28  C   UNL     1       3.101  -3.600   0.185  0.00  0.00    +0.248 C 
ATOM     29  O   UNL     1       3.522  -3.967  -0.899  0.00  0.00    -0.270 OA
ATOM     30  N   UNL     1       3.637  -2.518   0.784  0.00  0.00    -0.282 N 
ATOM     31  H   UNL     1       3.362  -2.275   1.682  0.00  0.00    +0.155 HD
BRANCH  30  32
ATOM     32  C   UNL     1       4.588  -1.745   0.111  0.00  0.00    +0.034 A 
ATOM     33  C   UNL     1       4.508  -1.587  -1.267  0.00  0.00    +0.023 A 
ATOM     34  C   UNL     1       5.449  -0.823  -1.928  0.00  0.00    +0.002 A 
ATOM     35  C   UNL     1       6.470  -0.215  -1.221  0.00  0.00    +0.000 A 
ATOM     36  C   UNL     1       6.553  -0.371   0.151  0.00  0.00    +0.002 A 
ATOM     37  C   UNL     1       5.612  -1.128   0.819  0.00  0.00    +0.023 A 
ENDBRANCH  30  32
ENDBRANCH   2  28
TORSDOF 5
