REMARK  Name = ZINC13281060
REMARK  9 active torsions:
REMARK  status: ('A' for Active; 'I' for Inactive)
REMARK    1  A    between atoms: C_1  and  C_2
REMARK    2  A    between atoms: C_5  and  C_8
REMARK    3  A    between atoms: C_11  and  S_16
REMARK    4  A    between atoms: N_12  and  C_13
REMARK    5  A    between atoms: C_13  and  C_14
REMARK    6  A    between atoms: S_16  and  C_17
REMARK    7  A    between atoms: C_17  and  C_18
REMARK    8  A    between atoms: C_22  and  C_31
REMARK    9  A    between atoms: N_33  and  C_34
REMARK                            x       y       z     vdW  Elec       q    Type
REMARK                         _______ _______ _______ _____ _____    ______ ____
ROOT
ATOM      1  C   UNL     1       2.360   5.279  -0.493  0.00  0.00    +0.173 C 
ENDROOT
BRANCH   1   2
ATOM      2  C   UNL     1       1.048   5.992  -0.287  0.00  0.00    +0.230 C 
ATOM      3  O   UNL     1       0.995   7.201  -0.370  0.00  0.00    -0.274 OA
ATOM      4  N   UNL     1      -0.067   5.286  -0.011  0.00  0.00    -0.264 N 
ATOM      5  C   UNL     1      -0.051   3.813   0.006  0.00  0.00    +0.168 C 
ATOM      6  C   UNL     1      -0.879   3.355   1.216  0.00  0.00    +0.276 C 
ATOM      7  O   UNL     1      -2.203   3.880   1.094  0.00  0.00    -0.476 OA
ATOM      8  C   UNL     1      -2.336   5.206   0.825  0.00  0.00    +0.143 A 
ATOM      9  C   UNL     1      -1.284   5.929   0.269  0.00  0.00    +0.078 A 
ATOM     10  C   UNL     1      -1.436   7.279  -0.004  0.00  0.00    +0.027 A 
ATOM     11  C   UNL     1      -2.634   7.909   0.277  0.00  0.00    +0.002 A 
ATOM     12  C   UNL     1      -3.679   7.193   0.831  0.00  0.00    +0.004 A 
ATOM     13  C   UNL     1      -3.532   5.847   1.110  0.00  0.00    +0.047 A 
BRANCH   6  14
ATOM     14  C   UNL     1      -0.931   1.849   1.252  0.00  0.00    +0.255 C 
ATOM     15  O   UNL     1      -1.988   1.275   1.100  0.00  0.00    -0.272 OA
ATOM     16  N   UNL     1       0.198   1.141   1.452  0.00  0.00    -0.315 N 
ATOM     17  C   UNL     1       0.148  -0.323   1.487  0.00  0.00    +0.128 C 
ATOM     18  H   UNL     1       1.044   1.600   1.574  0.00  0.00    +0.148 HD
ENDBRANCH   6  14
ENDBRANCH   1   2
BRANCH   1  19
ATOM     19  S   UNL     1       3.682   6.497  -0.699  0.00  0.00    -0.077 S 
BRANCH  19  23
ATOM     20  C   UNL     1       7.069   4.622  -1.229  0.00  0.00    +0.165 A 
ATOM     21  N   UNL     1       6.212   3.636  -1.097  0.00  0.00    -0.128 NA
ATOM     22  N   UNL     1       5.029   4.105  -0.912  0.00  0.00    -0.122 NA
ATOM     23  C   UNL     1       5.060   5.419  -0.915  0.00  0.00    +0.193 A 
ATOM     24  N   UNL     1       6.356   5.794  -1.123  0.00  0.00    -0.291 N 
BRANCH  20  29
ATOM     25  C   UNL     1      12.734   4.130  -2.114  0.00  0.00    +0.044 C 
ATOM     26  C   UNL     1      11.250   4.259  -1.882  0.00  0.00    -0.050 A 
ATOM     27  C   UNL     1      10.731   5.441  -1.386  0.00  0.00    +0.004 A 
ATOM     28  C   UNL     1       9.373   5.566  -1.171  0.00  0.00    +0.012 A 
ATOM     29  C   UNL     1       8.524   4.495  -1.456  0.00  0.00    +0.019 A 
ATOM     30  C   UNL     1       9.056   3.303  -1.951  0.00  0.00    +0.012 A 
ATOM     31  C   UNL     1      10.414   3.194  -2.166  0.00  0.00    +0.004 A 
ENDBRANCH  20  29
BRANCH  24  32
ATOM     32  C   UNL     1       6.880   7.159  -1.211  0.00  0.00    +0.250 C 
BRANCH  32  33
ATOM     33  C   UNL     1       7.177   7.674   0.174  0.00  0.00    +0.375 C 
ATOM     34  O   UNL     1       6.972   6.972   1.136  0.00  0.00    -0.244 OA
ATOM     35  O   UNL     1       7.669   8.912   0.339  0.00  0.00    -0.244 OA
ENDBRANCH  32  33
ENDBRANCH  24  32
ENDBRANCH  19  23
ENDBRANCH   1  19
TORSDOF 7
