REMARK  Name = ZINC25463770
REMARK  3 active torsions:
REMARK  status: ('A' for Active; 'I' for Inactive)
REMARK    1  A    between atoms: C_4  and  S_7
REMARK    2  A    between atoms: S_7  and  N_10
REMARK    3  A    between atoms: N_10  and  C_11
REMARK                            x       y       z     vdW  Elec       q    Type
REMARK                         _______ _______ _______ _____ _____    ______ ____
ROOT
ATOM      1  N   UNL     1      -0.112   5.261   0.032  0.00  0.00    -0.214 N 
ATOM      2  H   UNL     1       0.605   5.826  -0.581  0.00  0.00    +0.174 HD
ENDROOT
BRANCH   1   3
ATOM      3  C   UNL     1       0.041   3.881   0.193  0.00  0.00    +0.073 A 
ATOM      4  C   UNL     1      -1.070   3.062   0.273  0.00  0.00    +0.026 A 
ATOM      5  C   UNL     1      -0.925   1.689   0.426  0.00  0.00    +0.003 A 
ATOM      6  C   UNL     1       0.313   1.124   0.512  0.00  0.00    +0.011 A 
ATOM      7  C   UNL     1       1.458   1.930   0.434  0.00  0.00    +0.021 A 
ATOM      8  C   UNL     1       1.319   3.319   0.272  0.00  0.00    +0.088 A 
ATOM      9  N   UNL     1       2.589   3.838   0.228  0.00  0.00    -0.275 N 
ATOM     10  H   UNL     1       2.736   4.921   0.105  0.00  0.00    +0.189 HD
ATOM     11  N   UNL     1       3.496   2.779   0.361  0.00  0.00    -0.181 NA
ATOM     12  C   UNL     1       2.847   1.658   0.482  0.00  0.00    +0.142 A 
ENDBRANCH   1   3
BRANCH   1  13
ATOM     13  S   UNL     1      -1.373   6.044   0.766  0.00  0.00    +0.072 S 
ATOM     14  O   UNL     1      -1.181   7.432   0.529  0.00  0.00    -0.150 OA
ATOM     15  O   UNL     1      -2.557   5.361   0.378  0.00  0.00    -0.150 OA
BRANCH  13  19
ATOM     16  C   UNL     1      -0.923   5.420   5.227  0.00  0.00    +0.000 A 
ATOM     17  C   UNL     1      -0.331   6.511   4.619  0.00  0.00    +0.002 A 
ATOM     18  C   UNL     1      -0.468   6.701   3.256  0.00  0.00    +0.029 A 
ATOM     19  C   UNL     1      -1.198   5.801   2.503  0.00  0.00    +0.108 A 
ATOM     20  C   UNL     1      -1.795   4.713   3.112  0.00  0.00    +0.029 A 
ATOM     21  C   UNL     1      -1.653   4.520   4.473  0.00  0.00    +0.002 A 
ENDBRANCH  13  19
ENDBRANCH   1  13
TORSDOF 3
