REMARK  Name = ZINC35778412
REMARK  12 active torsions:
REMARK  status: ('A' for Active; 'I' for Inactive)
REMARK    1  A    between atoms: C_1  and  N_2
REMARK    2  A    between atoms: C_3  and  O_31
REMARK    3  A    between atoms: C_4  and  C_13
REMARK    4  A    between atoms: C_5  and  C_7
REMARK    5  A    between atoms: C_13  and  N_14
REMARK    6  A    between atoms: N_14  and  C_15
REMARK    7  A    between atoms: N_14  and  C_21
REMARK    8  A    between atoms: C_15  and  C_16
REMARK    9  A    between atoms: C_21  and  C_22
REMARK   10  A    between atoms: C_22  and  C_24
REMARK   11  A    between atoms: C_22  and  O_30
REMARK   12  A    between atoms: O_31  and  C_32
REMARK                            x       y       z     vdW  Elec       q    Type
REMARK                         _______ _______ _______ _____ _____    ______ ____
ROOT
ATOM      1  C   UNL     1       0.716   1.208   0.850  0.00  0.00    +0.176 C 
ATOM      2  N   UNL     1       0.208  -0.151   0.644  0.00  0.00    -0.235 N 
ATOM      3  C   UNL     1       0.304  -0.873  -0.502  0.00  0.00    +0.221 A 
ATOM      4  C   UNL     1      -0.287  -2.075  -0.284  0.00  0.00    +0.025 A 
ATOM      5  C   UNL     1      -0.760  -2.088   1.042  0.00  0.00    +0.098 A 
ATOM      6  N   UNL     1      -0.456  -0.934   1.597  0.00  0.00    -0.168 NA
ENDROOT
BRANCH   5   7
ATOM      7  C   UNL     1      -1.473  -3.210   1.702  0.00  0.00    +0.002 A 
ATOM      8  C   UNL     1      -2.475  -3.898   1.021  0.00  0.00    +0.010 A 
ATOM      9  C   UNL     1      -3.135  -4.941   1.639  0.00  0.00    +0.001 A 
ATOM     10  C   UNL     1      -2.803  -5.304   2.932  0.00  0.00    +0.000 A 
ATOM     11  C   UNL     1      -1.809  -4.624   3.612  0.00  0.00    +0.001 A 
ATOM     12  C   UNL     1      -1.139  -3.584   3.002  0.00  0.00    +0.010 A 
ENDBRANCH   5   7
BRANCH   4  13
ATOM     13  C   UNL     1      -0.414  -3.196  -1.283  0.00  0.00    -0.035 C 
BRANCH  13  14
ATOM     14  N   UNL     1       0.828  -3.979  -1.301  0.00  0.00    +0.389 N 
ATOM     15  H   UNL     1       1.605  -3.372  -1.514  0.00  0.00    -0.081 HD
BRANCH  14  16
ATOM     16  C   UNL     1       0.731  -5.028  -2.326  0.00  0.00    -0.003 C 
BRANCH  16  17
ATOM     17  C   UNL     1       0.517  -4.392  -3.675  0.00  0.00    +0.089 A 
ATOM     18  C   UNL     1       1.481  -4.085  -4.562  0.00  0.00    +0.042 A 
ATOM     19  C   UNL     1       0.839  -3.511  -5.683  0.00  0.00    +0.041 A 
ATOM     20  C   UNL     1      -0.479  -3.502  -5.414  0.00  0.00    +0.195 A 
ATOM     21  O   UNL     1      -0.669  -4.042  -4.199  0.00  0.00    -0.470 OA
ENDBRANCH  16  17
ENDBRANCH  14  16
BRANCH  14  22
ATOM     22  C   UNL     1       1.036  -4.599   0.015  0.00  0.00    -0.041 C 
BRANCH  22  23
ATOM     23  C   UNL     1       2.427  -5.234   0.066  0.00  0.00    +0.128 C 
BRANCH  23  24
ATOM     24  C   UNL     1       2.729  -5.669   1.476  0.00  0.00    -0.021 A 
ATOM     25  C   UNL     1       2.300  -6.904   1.926  0.00  0.00    +0.006 A 
ATOM     26  C   UNL     1       2.577  -7.303   3.220  0.00  0.00    +0.000 A 
ATOM     27  C   UNL     1       3.284  -6.468   4.064  0.00  0.00    +0.000 A 
ATOM     28  C   UNL     1       3.714  -5.233   3.615  0.00  0.00    +0.000 A 
ATOM     29  C   UNL     1       3.441  -4.836   2.319  0.00  0.00    +0.006 A 
ENDBRANCH  23  24
BRANCH  23  30
ATOM     30  O   UNL     1       2.464  -6.369  -0.801  0.00  0.00    -0.389 OA
ATOM     31  H   UNL     1       1.827  -7.059  -0.573  0.00  0.00    +0.210 HD
ENDBRANCH  23  30
ENDBRANCH  22  23
ENDBRANCH  14  22
ENDBRANCH  13  14
ENDBRANCH   4  13
BRANCH   3  32
ATOM     32  O   UNL     1       0.885  -0.465  -1.659  0.00  0.00    -0.438 OA
BRANCH  32  33
ATOM     33  C   UNL     1       0.130   0.247  -2.536  0.00  0.00    +0.130 A 
ATOM     34  C   UNL     1      -1.158   0.630  -2.193  0.00  0.00    +0.046 A 
ATOM     35  C   UNL     1      -1.924   1.354  -3.086  0.00  0.00    +0.004 A 
ATOM     36  C   UNL     1      -1.407   1.696  -4.322  0.00  0.00    +0.000 A 
ATOM     37  C   UNL     1      -0.123   1.315  -4.667  0.00  0.00    +0.004 A 
ATOM     38  C   UNL     1       0.648   0.596  -3.775  0.00  0.00    +0.046 A 
ENDBRANCH  32  33
ENDBRANCH   3  32
TORSDOF 11
