REMARK  Name = ZINC40161535
REMARK  12 active torsions:
REMARK  status: ('A' for Active; 'I' for Inactive)
REMARK    1  A    between atoms: C_1  and  C_2
REMARK    2  A    between atoms: C_9  and  C_16
REMARK    3  A    between atoms: C_11  and  O_12
REMARK    4  A    between atoms: C_16  and  N_17
REMARK    5  A    between atoms: C_22  and  O_35
REMARK    6  A    between atoms: C_23  and  O_33
REMARK    7  A    between atoms: C_26  and  C_28
REMARK    8  A    between atoms: C_28  and  C_29
REMARK    9  A    between atoms: C_29  and  O_31
REMARK   10  A    between atoms: O_31  and  C_32
REMARK   11  A    between atoms: O_33  and  C_34
REMARK   12  A    between atoms: O_35  and  C_36
REMARK                            x       y       z     vdW  Elec       q    Type
REMARK                         _______ _______ _______ _____ _____    ______ ____
ROOT
ATOM      1  N   UNL     1      -2.930  -7.204  -1.989  0.00  0.00    -0.290 NA
ATOM      2  C   UNL     1      -2.076  -8.250  -2.574  0.00  0.00    +0.090 C 
ATOM      3  C   UNL     1      -2.259  -8.233  -4.092  0.00  0.00    +0.051 C 
ATOM      4  C   UNL     1      -3.726  -8.267  -4.434  0.00  0.00    -0.038 A 
ATOM      5  C   UNL     1      -4.095  -8.615  -5.725  0.00  0.00    +0.053 A 
ATOM      6  C   UNL     1      -5.430  -8.655  -6.085  0.00  0.00    +0.162 A 
ATOM      7  C   UNL     1      -6.407  -8.342  -5.144  0.00  0.00    +0.162 A 
ATOM      8  C   UNL     1      -6.034  -7.997  -3.858  0.00  0.00    +0.054 A 
ATOM      9  C   UNL     1      -4.694  -7.961  -3.501  0.00  0.00    -0.023 A 
ATOM     10  C   UNL     1      -4.341  -7.590  -2.084  0.00  0.00    +0.098 C 
ENDROOT
BRANCH   7  11
ATOM     11  O   UNL     1      -7.722  -8.376  -5.489  0.00  0.00    -0.491 OA
ATOM     12  C   UNL     1      -8.668  -8.043  -4.470  0.00  0.00    +0.277 C 
ENDBRANCH   7  11
BRANCH   6  13
ATOM     13  O   UNL     1      -5.786  -8.998  -7.352  0.00  0.00    -0.491 OA
ATOM     14  C   UNL     1      -4.728  -9.306  -8.263  0.00  0.00    +0.277 C 
ENDBRANCH   6  13
BRANCH   1  15
ATOM     15  C   UNL     1      -2.551  -6.932  -0.597  0.00  0.00    +0.121 C 
BRANCH  15  24
ATOM     16  C   UNL     1       0.143   1.471  -0.369  0.00  0.00    +0.109 C 
ATOM     17  C   UNL     1       0.048  -0.016  -0.592  0.00  0.00    +0.214 C 
ATOM     18  O   UNL     1       0.994  -0.624  -1.060  0.00  0.00    -0.276 OA
ATOM     19  N   UNL     1      -1.060  -0.660  -0.280  0.00  0.00    -0.286 N 
ATOM     20  C   UNL     1      -1.100  -2.019  -0.350  0.00  0.00    +0.037 A 
ATOM     21  C   UNL     1      -2.340  -2.682  -0.375  0.00  0.00    +0.024 A 
ATOM     22  C   UNL     1      -2.393  -4.038  -0.446  0.00  0.00    +0.014 A 
ATOM     23  C   UNL     1      -1.203  -4.785  -0.495  0.00  0.00    +0.022 A 
ATOM     24  C   UNL     1      -1.237  -6.194  -0.569  0.00  0.00    -0.016 A 
ATOM     25  C   UNL     1      -0.040  -6.881  -0.615  0.00  0.00    +0.093 A 
ATOM     26  C   UNL     1       1.159  -6.184  -0.588  0.00  0.00    +0.285 A 
ATOM     27  O   UNL     1       1.187  -4.849  -0.518  0.00  0.00    -0.425 OA
ATOM     28  C   UNL     1       0.047  -4.128  -0.470  0.00  0.00    +0.141 A 
ATOM     29  C   UNL     1       0.090  -2.747  -0.403  0.00  0.00    +0.070 A 
ATOM     30  H   UNL     1      -1.846  -0.166   0.000  0.00  0.00    +0.155 HD
BRANCH  26  31
ATOM     31  O   UNL     1       2.319  -6.866  -0.634  0.00  0.00    -0.480 OA
ATOM     32  H   UNL     1       3.106  -6.305  -0.611  0.00  0.00    +0.295 HD
ENDBRANCH  26  31
ENDBRANCH  15  24
ENDBRANCH   1  15
BRANCH  10  33
ATOM     33  C   UNL     1      -5.217  -6.418  -1.636  0.00  0.00    +0.144 C 
BRANCH  33  34
ATOM     34  C   UNL     1      -4.920  -5.214  -2.493  0.00  0.00    +0.309 C 
ATOM     35  O   UNL     1      -4.142  -5.304  -3.413  0.00  0.00    -0.251 OA
BRANCH  34  36
ATOM     36  O   UNL     1      -5.519  -4.041  -2.234  0.00  0.00    -0.468 OA
ATOM     37  C   UNL     1      -5.191  -2.942  -3.086  0.00  0.00    +0.280 C 
ENDBRANCH  34  36
ENDBRANCH  33  34
ENDBRANCH  10  33
TORSDOF 8
