REMARK  Name = ZINC15087741
REMARK  9 active torsions:
REMARK  status: ('A' for Active; 'I' for Inactive)
REMARK    1  A    between atoms: C_1  and  C_2
REMARK    2  A    between atoms: C_5  and  N_8
REMARK    3  A    between atoms: C_9  and  C_11
REMARK    4  A    between atoms: C_11  and  N_12
REMARK    5  A    between atoms: C_18  and  C_37
REMARK    6  A    between atoms: C_18  and  C_38
REMARK    7  A    between atoms: N_26  and  C_29
REMARK    8  A    between atoms: C_32  and  O_35
REMARK    9  A    between atoms: O_35  and  C_36
REMARK                            x       y       z     vdW  Elec       q    Type
REMARK                         _______ _______ _______ _____ _____    ______ ____
ROOT
ATOM      1  N   UNL     1       0.420  -6.845   2.495  0.00  0.00    -0.288 N 
ATOM      2  C   UNL     1       1.658  -6.966   3.085  0.00  0.00    +0.091 A 
ATOM      3  C   UNL     1       1.640  -7.422   4.351  0.00  0.00    +0.031 A 
ATOM      4  S   UNL     1      -0.087  -7.683   4.668  0.00  0.00    -0.030 S 
ATOM      5  C   UNL     1      -0.689  -7.175   3.182  0.00  0.00    +0.292 A 
ATOM      6  O   UNL     1      -1.850  -7.121   2.816  0.00  0.00    -0.259 OA
ATOM      7  C   UNL     1       2.782  -7.639   5.277  0.00  0.00    +0.012 C 
ATOM      8  C   UNL     1       4.129  -7.557   4.665  0.00  0.00    +0.109 C 
ATOM      9  C   UNL     1       4.388  -6.459   3.626  0.00  0.00    +0.152 C 
ATOM     10  S   UNL     1       3.183  -6.582   2.265  0.00  0.00    -0.093 S 
ATOM     11  C   UNL     1       5.710  -6.997   3.049  0.00  0.00    +0.240 C 
ATOM     12  O   UNL     1       6.593  -6.340   2.541  0.00  0.00    -0.274 OA
ATOM     13  N   UNL     1       5.704  -8.334   3.216  0.00  0.00    -0.209 N 
ATOM     14  C   UNL     1       4.719  -8.775   4.027  0.00  0.00    +0.232 C 
ATOM     15  O   UNL     1       4.386  -9.927   4.206  0.00  0.00    -0.274 OA
ATOM     16  C   UNL     1       2.627  -9.022   5.912  0.00  0.00    +0.017 C 
ATOM     17  C   UNL     1       2.698  -6.595   6.392  0.00  0.00    +0.017 C 
ENDROOT
BRANCH  13  18
ATOM     18  C   UNL     1       6.627  -9.188   2.594  0.00  0.00    +0.044 A 
ATOM     19  C   UNL     1       6.558 -10.559   2.805  0.00  0.00    +0.027 A 
ATOM     20  C   UNL     1       7.467 -11.398   2.192  0.00  0.00    +0.047 A 
ATOM     21  C   UNL     1       8.449 -10.873   1.365  0.00  0.00    +0.120 A 
ATOM     22  C   UNL     1       8.518  -9.504   1.154  0.00  0.00    +0.047 A 
ATOM     23  C   UNL     1       7.607  -8.664   1.762  0.00  0.00    +0.027 A 
BRANCH  21  24
ATOM     24  O   UNL     1       9.343 -11.700   0.762  0.00  0.00    -0.495 OA
ATOM     25  C   UNL     1      10.327 -11.091  -0.076  0.00  0.00    +0.277 C 
ENDBRANCH  21  24
ENDBRANCH  13  18
BRANCH   1  26
ATOM     26  C   UNL     1       0.309  -6.349   1.121  0.00  0.00    +0.222 C 
BRANCH  26  28
ATOM     27  N   UNL     1       0.059  -4.170  -0.021  0.00  0.00    -0.284 N 
ATOM     28  C   UNL     1       0.175  -4.848   1.138  0.00  0.00    +0.237 C 
ATOM     29  O   UNL     1       0.173  -4.251   2.193  0.00  0.00    -0.274 OA
ATOM     30  H   UNL     1      -0.017  -4.651  -0.860  0.00  0.00    +0.155 HD
BRANCH  27  35
ATOM     31  C   UNL     1       0.008   1.503   0.007  0.00  0.00    +0.044 C 
ATOM     32  C   UNL     1       0.022  -0.004  -0.001  0.00  0.00    -0.050 A 
ATOM     33  C   UNL     1       0.777  -0.692   0.931  0.00  0.00    +0.005 A 
ATOM     34  C   UNL     1       0.791  -2.073   0.927  0.00  0.00    +0.023 A 
ATOM     35  C   UNL     1       0.046  -2.771  -0.014  0.00  0.00    +0.033 A 
ATOM     36  C   UNL     1      -0.712  -2.077  -0.948  0.00  0.00    +0.023 A 
ATOM     37  C   UNL     1      -0.726  -0.696  -0.936  0.00  0.00    +0.005 A 
ENDBRANCH  27  35
ENDBRANCH  26  28
ENDBRANCH   1  26
TORSDOF 5
