REMARK  Name = ZINC35220043
REMARK  6 active torsions:
REMARK  status: ('A' for Active; 'I' for Inactive)
REMARK    1  A    between atoms: C_1  and  C_2
REMARK    2  A    between atoms: C_7  and  N_8
REMARK    3  A    between atoms: C_9  and  C_11
REMARK    4  A    between atoms: N_16  and  S_17
REMARK    5  A    between atoms: S_17  and  C_20
REMARK    6  A    between atoms: C_29  and  C_32
REMARK                            x       y       z     vdW  Elec       q    Type
REMARK                         _______ _______ _______ _____ _____    ______ ____
ROOT
ATOM      1  C   UNL     1      -0.219   0.102   4.922  0.00  0.00    +0.166 C 
ATOM      2  C   UNL     1       0.990   1.053   5.055  0.00  0.00    +0.031 C 
ATOM      3  C   UNL     1       1.400   0.887   6.542  0.00  0.00    +0.019 C 
ATOM      4  C   UNL     1       1.108  -0.616   6.779  0.00  0.00    +0.110 C 
ATOM      5  N   UNL     1      -0.119  -0.890   6.002  0.00  0.00    -0.165 NA
ENDROOT
BRANCH   1   7
ATOM      6  N   UNL     1      -0.769  -0.023   2.513  0.00  0.00    -0.284 N 
ATOM      7  C   UNL     1      -0.180  -0.592   3.584  0.00  0.00    +0.236 C 
ATOM      8  O   UNL     1       0.381  -1.661   3.471  0.00  0.00    -0.274 OA
ATOM      9  H   UNL     1      -1.162   0.860   2.588  0.00  0.00    +0.155 HD
BRANCH   6  16
ATOM     10  C   UNL     1      -2.933   0.518   0.747  0.00  0.00    +0.046 C 
ATOM     11  C   UNL     1      -1.852  -0.474   0.402  0.00  0.00    -0.028 A 
ATOM     12  C   UNL     1      -1.891  -1.148  -0.803  0.00  0.00    +0.025 A 
ATOM     13  C   UNL     1      -0.900  -2.059  -1.120  0.00  0.00    +0.041 A 
ATOM     14  C   UNL     1       0.134  -2.298  -0.231  0.00  0.00    +0.022 A 
ATOM     15  C   UNL     1       0.177  -1.628   0.975  0.00  0.00    +0.025 A 
ATOM     16  C   UNL     1      -0.814  -0.708   1.294  0.00  0.00    +0.036 A 
ATOM     17 CL   UNL     1      -0.952  -2.905  -2.635  0.00  0.00    -0.084 Cl
ENDBRANCH   6  16
ENDBRANCH   1   7
BRANCH   5  18
ATOM     18  S   UNL     1      -1.200  -2.109   6.297  0.00  0.00    +0.062 S 
ATOM     19  O   UNL     1      -1.887  -2.346   5.075  0.00  0.00    -0.153 OA
ATOM     20  O   UNL     1      -0.486  -3.130   6.979  0.00  0.00    -0.153 OA
BRANCH  18  21
ATOM     21  C   UNL     1      -2.393  -1.483   7.432  0.00  0.00    +0.107 A 
ATOM     22  C   UNL     1      -2.138  -1.521   8.791  0.00  0.00    +0.032 A 
ATOM     23  C   UNL     1      -3.069  -1.031   9.689  0.00  0.00    +0.049 A 
ATOM     24  C   UNL     1      -4.261  -0.501   9.226  0.00  0.00    +0.143 A 
ATOM     25  C   UNL     1      -4.519  -0.464   7.857  0.00  0.00    +0.078 A 
ATOM     26  C   UNL     1      -3.580  -0.951   6.962  0.00  0.00    +0.055 A 
ATOM     27  N   UNL     1      -5.731   0.073   7.401  0.00  0.00    -0.279 N 
ATOM     28  C   UNL     1      -6.475   0.819   8.247  0.00  0.00    +0.258 C 
ATOM     29  O   UNL     1      -7.542   1.268   7.885  0.00  0.00    -0.271 OA
ATOM     30  C   UNL     1      -5.974   1.091   9.642  0.00  0.00    +0.256 C 
ATOM     31  O   UNL     1      -5.187  -0.014  10.095  0.00  0.00    -0.478 OA
ATOM     32  C   UNL     1      -5.116   2.358   9.637  0.00  0.00    +0.062 C 
ATOM     33  H   UNL     1      -6.031  -0.089   6.493  0.00  0.00    +0.155 HD
ENDBRANCH  18  21
ENDBRANCH   5  18
TORSDOF 4
