REMARK  Name = ZINC11911228
REMARK  7 active torsions:
REMARK  status: ('A' for Active; 'I' for Inactive)
REMARK    1  A    between atoms: C_1  and  C_2
REMARK    2  A    between atoms: C_2  and  C_3
REMARK    3  A    between atoms: C_3  and  C_20
REMARK    4  A    between atoms: N_6  and  C_10
REMARK    5  A    between atoms: C_10  and  C_11
REMARK    6  A    between atoms: C_25  and  C_26
REMARK    7  A    between atoms: C_25  and  N_67
REMARK                            x       y       z     vdW  Elec       q    Type
REMARK                         _______ _______ _______ _____ _____    ______ ____
ROOT
ATOM      1  C   UNL     1      -0.867   2.239  -0.937  0.00  0.00    +0.115 C 
ATOM      2  C   UNL     1      -2.267   1.661  -1.000  0.00  0.00    +0.247 C 
ATOM      3  O   UNL     1      -3.136   1.754  -0.160  0.00  0.00    -0.273 OA
ATOM      4  N   UNL     1      -2.345   1.024  -2.185  0.00  0.00    -0.220 N 
ATOM      5  C   UNL     1      -1.201   1.117  -2.872  0.00  0.00    +0.310 C 
ATOM      6  O   UNL     1      -1.029   0.622  -3.969  0.00  0.00    -0.252 OA
ATOM      7  N   UNL     1      -0.260   1.823  -2.214  0.00  0.00    -0.285 N 
ATOM      8  H   UNL     1       0.640   2.020  -2.519  0.00  0.00    +0.151 HD
ENDROOT
BRANCH   1   9
ATOM      9  C   UNL     1      -0.094   1.649   0.244  0.00  0.00    +0.018 C 
ATOM     10  C   UNL     1       1.339   2.188   0.238  0.00  0.00    -0.013 C 
ATOM     11  C   UNL     1       2.124   1.548   1.385  0.00  0.00    -0.078 C 
ATOM     12  C   UNL     1       0.769  -0.457   1.270  0.00  0.00    -0.078 C 
ATOM     13  C   UNL     1      -0.057   0.123   0.120  0.00  0.00    -0.013 C 
ATOM     14  N   UNL     1       2.143   0.082   1.194  0.00  0.00    +0.382 N 
ATOM     15  H   UNL     1       2.533  -0.128   0.268  0.00  0.00    -0.081 HD
BRANCH  14  16
ATOM     16  C   UNL     1       2.991  -0.550   2.226  0.00  0.00    -0.042 C 
BRANCH  16  17
ATOM     17  C   UNL     1       4.350   0.102   2.212  0.00  0.00    -0.056 A 
ATOM     18  C   UNL     1       4.713   0.947   3.215  0.00  0.00    +0.002 A 
ATOM     19  C   UNL     1       5.965   1.559   3.220  0.00  0.00    +0.001 A 
ATOM     20  C   UNL     1       6.861   1.330   2.221  0.00  0.00    +0.008 A 
ATOM     21  C   UNL     1       6.521   0.464   1.168  0.00  0.00    -0.018 A 
ATOM     22  C   UNL     1       5.250  -0.163   1.166  0.00  0.00    -0.017 A 
ATOM     23  C   UNL     1       4.913  -1.034   0.116  0.00  0.00    +0.009 A 
ATOM     24  C   UNL     1       5.811  -1.268  -0.879  0.00  0.00    +0.001 A 
ATOM     25  C   UNL     1       7.063  -0.655  -0.875  0.00  0.00    +0.001 A 
ATOM     26  C   UNL     1       7.420   0.202   0.119  0.00  0.00    +0.008 A 
ENDBRANCH  16  17
ENDBRANCH  14  16
ENDBRANCH   1   9
BRANCH   1  28
ATOM     27  C   UNL     1      -1.696   4.328  -2.028  0.00  0.00    +0.006 C 
ATOM     28  C   UNL     1      -0.918   3.765  -0.837  0.00  0.00    +0.032 C 
ENDBRANCH   1  28
BRANCH   4  29
ATOM     29  C   UNL     1      -3.536   0.316  -2.662  0.00  0.00    +0.153 C 
BRANCH  29  30
ATOM     30  C   UNL     1      -4.409   1.269  -3.438  0.00  0.00    -0.026 A 
ATOM     31  C   UNL     1      -4.231   1.412  -4.801  0.00  0.00    +0.009 A 
ATOM     32  C   UNL     1      -5.030   2.284  -5.518  0.00  0.00    +0.050 A 
ATOM     33  C   UNL     1      -6.011   3.017  -4.870  0.00  0.00    +0.166 A 
ATOM     34  C   UNL     1      -6.191   2.872  -3.496  0.00  0.00    +0.167 A 
ATOM     35  C   UNL     1      -5.390   1.993  -2.786  0.00  0.00    +0.054 A 
ATOM     36  O   UNL     1      -7.208   3.692  -3.100  0.00  0.00    -0.453 OA
ATOM     37  C   UNL     1      -7.376   4.640  -4.171  0.00  0.00    +0.466 C 
ATOM     38  O   UNL     1      -6.916   3.927  -5.334  0.00  0.00    -0.453 OA
ENDBRANCH  29  30
ENDBRANCH   4  29
TORSDOF 6
