REMARK  Name = ZINC18200790
REMARK  4 active torsions:
REMARK  status: ('A' for Active; 'I' for Inactive)
REMARK    1  A    between atoms: C_1  and  C_2
REMARK    2  A    between atoms: C_5  and  C_7
REMARK    3  A    between atoms: C_15  and  O_16
REMARK    4  A    between atoms: C_23  and  C_26
REMARK                            x       y       z     vdW  Elec       q    Type
REMARK                         _______ _______ _______ _____ _____    ______ ____
ROOT
ATOM      1  C   UNL     1       1.043  -4.062  -0.027  0.00  0.00    +0.099 C 
ATOM      2  C   UNL     1       1.887  -4.285   1.196  0.00  0.00    +0.067 A 
ATOM      3  C   UNL     1       3.253  -4.360   1.141  0.00  0.00    +0.126 A 
ATOM      4  N   UNL     1       3.704  -4.560   2.394  0.00  0.00    -0.260 N 
ATOM      5  H   UNL     1       4.633  -4.651   2.660  0.00  0.00    +0.190 HD
ATOM      6  N   UNL     1       2.590  -4.614   3.247  0.00  0.00    -0.134 NA
ATOM      7  C   UNL     1       1.504  -4.449   2.524  0.00  0.00    +0.237 A 
ATOM      8  N   UNL     1       3.938  -4.236  -0.062  0.00  0.00    -0.303 N 
ATOM      9  C   UNL     1       3.229  -4.336  -1.233  0.00  0.00    +0.017 C 
ATOM     10  C   UNL     1       1.881  -4.272  -1.269  0.00  0.00    +0.025 C 
ATOM     11  C   UNL     1       1.187  -4.402  -2.486  0.00  0.00    +0.162 C 
ATOM     12  O   UNL     1      -0.026  -4.335  -2.486  0.00  0.00    -0.292 OA
ATOM     13  C   UNL     1       1.910  -4.620  -3.785  0.00  0.00    +0.091 C 
ATOM     14  C   UNL     1       3.230  -5.347  -3.503  0.00  0.00    +0.068 C 
ATOM     15  C   UNL     1       4.030  -4.516  -2.502  0.00  0.00    +0.063 C 
ATOM     16  H   UNL     1       4.896  -4.083  -0.073  0.00  0.00    +0.153 HD
ENDROOT
BRANCH   1  21
ATOM     17  C   UNL     1      -0.018   1.503   0.010  0.00  0.00    +0.051 C 
ATOM     18  C   UNL     1       0.002  -0.004   0.002  0.00  0.00    -0.013 A 
ATOM     19  C   UNL     1      -1.039  -0.872   0.002  0.00  0.00    +0.011 A 
ATOM     20  C   UNL     1      -0.780  -2.230  -0.007  0.00  0.00    +0.012 A 
ATOM     21  C   UNL     1       0.507  -2.653  -0.016  0.00  0.00    +0.002 A 
ATOM     22  S   UNL     1       1.404  -1.109  -0.018  0.00  0.00    -0.097 S 
ENDBRANCH   1  21
BRANCH  14  23
ATOM     23  C   UNL     1       4.012  -5.495  -4.782  0.00  0.00    +0.109 A 
ATOM     24  C   UNL     1       4.391  -6.657  -5.343  0.00  0.00    +0.045 A 
ATOM     25  C   UNL     1       5.097  -6.331  -6.524  0.00  0.00    +0.041 A 
ATOM     26  C   UNL     1       5.108  -4.989  -6.614  0.00  0.00    +0.195 A 
ATOM     27  O   UNL     1       4.444  -4.488  -5.559  0.00  0.00    -0.468 OA
ENDBRANCH  14  23
BRANCH   7  29
ATOM     28  H   UNL     1      -0.193  -5.310   3.006  0.00  0.00    +0.294 HD
ATOM     29  O   UNL     1       0.228  -4.440   2.993  0.00  0.00    -0.491 OA
ENDBRANCH   7  29
TORSDOF 3
