REMARK  Name = ZINC35193872
REMARK  14 active torsions:
REMARK  status: ('A' for Active; 'I' for Inactive)
REMARK    1  A    between atoms: C_1  and  C_2
REMARK    2  A    between atoms: N_4  and  C_38
REMARK    3  A    between atoms: C_11  and  C_14
REMARK    4  A    between atoms: C_17  and  N_20
REMARK    5  A    between atoms: N_20  and  C_21
REMARK    6  A    between atoms: N_20  and  C_22
REMARK    7  A    between atoms: C_25  and  C_34
REMARK    8  A    between atoms: C_28  and  C_30
REMARK    9  A    between atoms: C_30  and  C_31
REMARK   10  A    between atoms: C_30  and  C_32
REMARK   11  A    between atoms: C_30  and  C_33
REMARK   12  A    between atoms: C_34  and  C_35
REMARK   13  A    between atoms: C_34  and  C_36
REMARK   14  A    between atoms: C_34  and  C_37
REMARK                            x       y       z     vdW  Elec       q    Type
REMARK                         _______ _______ _______ _____ _____    ______ ____
ROOT
ATOM      1  C   UNL     1       0.586   2.172   0.104  0.00  0.00    +0.063 C 
ATOM      2  C   UNL     1       0.812   0.755  -0.327  0.00  0.00    +0.044 C 
ATOM      3  N   UNL     1       0.924   0.474  -1.639  0.00  0.00    -0.187 NA
ATOM      4  N   UNL     1       1.110  -0.958  -1.877  0.00  0.00    -0.206 N 
ATOM      5  C   UNL     1       0.450  -1.610  -0.615  0.00  0.00    +0.178 C 
ATOM      6  C   UNL     1       0.825  -0.528   0.460  0.00  0.00    +0.098 C 
ATOM      7  C   UNL     1       0.023  -0.486   1.610  0.00  0.00    -0.046 C 
ATOM      8  C   UNL     1      -1.263  -0.893   1.554  0.00  0.00    +0.017 C 
ATOM      9  C   UNL     1      -1.859  -1.509   0.295  0.00  0.00    +0.119 C 
ATOM     10  N   UNL     1      -0.997  -1.584  -0.880  0.00  0.00    -0.285 NA
ATOM     11  C   UNL     1      -2.176  -0.778   2.647  0.00  0.00    +0.165 C 
ATOM     12  O   UNL     1      -3.457  -0.946   2.506  0.00  0.00    -0.292 OA
ATOM     13  C   UNL     1      -1.686  -0.458   4.004  0.00  0.00    +0.066 C 
ATOM     14  C   UNL     1      -0.470   0.551   3.803  0.00  0.00    +0.020 C 
ATOM     15  C   UNL     1       0.534  -0.182   2.975  0.00  0.00    +0.022 C 
ATOM     16  H   UNL     1      -1.200  -1.038  -1.619  0.00  0.00    +0.125 HD
ENDROOT
BRANCH   9  17
ATOM     17  C   UNL     1      -2.421  -2.872   0.605  0.00  0.00    -0.026 A 
ATOM     18  C   UNL     1      -1.576  -3.963   0.695  0.00  0.00    +0.007 A 
ATOM     19  C   UNL     1      -2.088  -5.214   0.979  0.00  0.00    +0.023 A 
ATOM     20  C   UNL     1      -3.454  -5.376   1.173  0.00  0.00    +0.029 A 
ATOM     21  C   UNL     1      -4.300  -4.278   1.081  0.00  0.00    +0.023 A 
ATOM     22  C   UNL     1      -3.781  -3.029   0.803  0.00  0.00    +0.007 A 
BRANCH  20  23
ATOM     23  N   UNL     1      -3.975  -6.639   1.459  0.00  0.00    -0.336 N 
ATOM     24  C   UNL     1      -3.081  -7.796   1.555  0.00  0.00    +0.129 C 
ATOM     25  C   UNL     1      -5.416  -6.808   1.663  0.00  0.00    +0.129 C 
ENDBRANCH  20  23
ENDBRANCH   9  17
BRANCH   4  26
ATOM     26  C   UNL     1       1.753  -1.643  -2.909  0.00  0.00    +0.053 A 
ATOM     27  C   UNL     1       1.786  -3.032  -2.907  0.00  0.00    +0.025 A 
ATOM     28  C   UNL     1       2.423  -3.707  -3.930  0.00  0.00    +0.002 A 
ATOM     29  C   UNL     1       3.028  -3.001  -4.955  0.00  0.00    +0.000 A 
ATOM     30  C   UNL     1       2.997  -1.619  -4.959  0.00  0.00    +0.002 A 
ATOM     31  C   UNL     1       2.356  -0.938  -3.943  0.00  0.00    +0.025 A 
ENDBRANCH   4  26
BRANCH  15  32
ATOM     32  C   UNL     1       1.705   0.744   2.835  0.00  0.00    -0.031 C 
ATOM     33  C   UNL     1       1.203   2.169   2.596  0.00  0.00    +0.011 C 
ATOM     34  C   UNL     1       2.541   0.706   4.116  0.00  0.00    +0.011 C 
ATOM     35  C   UNL     1       2.567   0.301   1.650  0.00  0.00    +0.011 C 
ENDBRANCH  15  32
BRANCH  13  36
ATOM     36  C   UNL     1      -2.778   0.170   4.929  0.00  0.00    -0.028 C 
ATOM     37  C   UNL     1      -3.872  -0.865   5.202  0.00  0.00    +0.011 C 
ATOM     38  C   UNL     1      -2.140   0.598   6.253  0.00  0.00    +0.011 C 
ATOM     39  C   UNL     1      -3.391   1.391   4.240  0.00  0.00    +0.011 C 
ENDBRANCH  13  36
TORSDOF 5
