REMARK  Name = ZINC35760089
REMARK  17 active torsions:
REMARK  status: ('A' for Active; 'I' for Inactive)
REMARK    1  A    between atoms: C_1  and  C_2
REMARK    2  A    between atoms: C_2  and  C_3
REMARK    3  A    between atoms: C_2  and  N_4
REMARK    4  A    between atoms: N_4  and  C_5
REMARK    5  A    between atoms: N_4  and  C_6
REMARK    6  A    between atoms: C_7  and  C_17
REMARK    7  A    between atoms: C_8  and  C_11
REMARK    8  A    between atoms: C_17  and  N_18
REMARK    9  A    between atoms: N_18  and  C_19
REMARK   10  A    between atoms: N_18  and  C_26
REMARK   11  A    between atoms: C_19  and  C_20
REMARK   12  A    between atoms: C_26  and  C_27
REMARK   13  A    between atoms: C_27  and  C_29
REMARK   14  A    between atoms: C_27  and  O_38
REMARK   15  A    between atoms: C_29  and  O_30
REMARK   16  A    between atoms: O_30  and  C_31
REMARK   17  A    between atoms: C_31  and  C_32
REMARK                            x       y       z     vdW  Elec       q    Type
REMARK                         _______ _______ _______ _____ _____    ______ ____
ROOT
ATOM      1  N   UNL     1      -4.730  -0.304  -1.440  0.00  0.00    +0.387 N 
ATOM      2  H   UNL     1      -4.137   0.200  -2.082  0.00  0.00    -0.081 HD
ENDROOT
BRANCH   1   3
ATOM      3  C   UNL     1      -3.919  -1.249  -0.661  0.00  0.00    -0.035 C 
BRANCH   3   5
ATOM      4  C   UNL     1      -1.973  -1.847  -2.202  0.00  0.00    +0.222 A 
ATOM      5  C   UNL     1      -3.152  -2.145  -1.600  0.00  0.00    +0.025 A 
ATOM      6  C   UNL     1      -3.534  -3.440  -2.008  0.00  0.00    +0.117 A 
ATOM      7  N   UNL     1      -2.612  -3.895  -2.825  0.00  0.00    -0.076 NA
ATOM      8  O   UNL     1      -1.618  -2.897  -2.963  0.00  0.00    -0.339 OA
BRANCH   6   9
ATOM      9  C   UNL     1      -4.762  -4.161  -1.588  0.00  0.00    +0.004 A 
ATOM     10  C   UNL     1      -5.516  -4.863  -2.526  0.00  0.00    +0.010 A 
ATOM     11  C   UNL     1      -6.656  -5.532  -2.129  0.00  0.00    +0.001 A 
ATOM     12  C   UNL     1      -7.050  -5.507  -0.803  0.00  0.00    +0.000 A 
ATOM     13  C   UNL     1      -6.305  -4.812   0.132  0.00  0.00    +0.001 A 
ATOM     14  C   UNL     1      -5.160  -4.144  -0.253  0.00  0.00    +0.010 A 
ENDBRANCH   6   9
BRANCH   4  15
ATOM     15  N   UNL     1      -1.264  -0.668  -2.063  0.00  0.00    -0.300 N 
ATOM     16  C   UNL     1      -1.584   0.484  -2.909  0.00  0.00    +0.132 C 
BRANCH  15  18
ATOM     17  C   UNL     1       1.128  -0.250  -1.770  0.00  0.00    +0.028 C 
ATOM     18  C   UNL     1      -0.193  -0.571  -1.068  0.00  0.00    +0.070 C 
ATOM     19  C   UNL     1      -0.523   0.541  -0.070  0.00  0.00    +0.028 C 
ENDBRANCH  15  18
ENDBRANCH   4  15
ENDBRANCH   3   5
ENDBRANCH   1   3
BRANCH   1  20
ATOM     20  C   UNL     1      -5.752  -1.041  -2.194  0.00  0.00    -0.042 C 
BRANCH  20  21
ATOM     21  C   UNL     1      -6.465  -0.099  -3.130  0.00  0.00    -0.064 A 
ATOM     22  C   UNL     1      -7.797   0.204  -2.923  0.00  0.00    +0.002 A 
ATOM     23  C   UNL     1      -8.451   1.069  -3.781  0.00  0.00    +0.000 A 
ATOM     24  C   UNL     1      -7.771   1.632  -4.845  0.00  0.00    +0.000 A 
ATOM     25  C   UNL     1      -6.438   1.329  -5.051  0.00  0.00    +0.000 A 
ATOM     26  C   UNL     1      -5.784   0.468  -4.191  0.00  0.00    +0.002 A 
ENDBRANCH  20  21
ENDBRANCH   1  20
BRANCH   1  27
ATOM     27  C   UNL     1      -5.384   0.646  -0.529  0.00  0.00    -0.044 C 
BRANCH  27  28
ATOM     28  C   UNL     1      -5.816   1.888  -1.312  0.00  0.00    +0.124 C 
BRANCH  28  29
ATOM     29  O   UNL     1      -4.669   2.500  -1.904  0.00  0.00    -0.391 OA
ATOM     30  H   UNL     1      -4.000   2.783  -1.266  0.00  0.00    +0.210 HD
ENDBRANCH  28  29
BRANCH  28  31
ATOM     31  C   UNL     1      -6.490   2.880  -0.362  0.00  0.00    +0.189 C 
BRANCH  31  32
ATOM     32  O   UNL     1      -6.997   3.987  -1.110  0.00  0.00    -0.373 OA
BRANCH  32  33
ATOM     33  C   UNL     1      -7.649   4.977  -0.313  0.00  0.00    +0.195 C 
BRANCH  33  34
ATOM     34  C   UNL     1      -8.141   6.092  -1.201  0.00  0.00    -0.022 A 
ATOM     35  C   UNL     1      -7.323   7.173  -1.471  0.00  0.00    +0.006 A 
ATOM     36  C   UNL     1      -7.774   8.195  -2.285  0.00  0.00    +0.000 A 
ATOM     37  C   UNL     1      -9.043   8.136  -2.829  0.00  0.00    +0.000 A 
ATOM     38  C   UNL     1      -9.861   7.054  -2.559  0.00  0.00    +0.000 A 
ATOM     39  C   UNL     1      -9.409   6.030  -1.749  0.00  0.00    +0.006 A 
ENDBRANCH  33  34
ENDBRANCH  32  33
ENDBRANCH  31  32
ENDBRANCH  28  31
ENDBRANCH  27  28
ENDBRANCH   1  27
TORSDOF 14
