REMARK  Name = ZINC63291105
REMARK  8 active torsions:
REMARK  status: ('A' for Active; 'I' for Inactive)
REMARK    1  A    between atoms: C_1  and  C_2
REMARK    2  A    between atoms: C_5  and  C_8
REMARK    3  A    between atoms: C_11  and  C_34
REMARK    4  A    between atoms: C_13  and  C_28
REMARK    5  A    between atoms: C_14  and  C_15
REMARK    6  A    between atoms: N_16  and  C_17
REMARK    7  A    between atoms: C_17  and  C_18
REMARK    8  A    between atoms: C_18  and  C_19
REMARK                            x       y       z     vdW  Elec       q    Type
REMARK                         _______ _______ _______ _____ _____    ______ ____
ROOT
ATOM      1  C   UNL     1       0.095  -3.785   0.230  0.00  0.00    +0.080 C 
ATOM      2  C   UNL     1      -1.059  -4.724   0.447  0.00  0.00    +0.033 C 
ATOM      3  C   UNL     1      -1.003  -5.688   1.355  0.00  0.00    +0.133 C 
ATOM      4  O   UNL     1       0.089  -5.880   2.130  0.00  0.00    -0.455 OA
ATOM      5  C   UNL     1       1.273  -5.354   1.758  0.00  0.00    +0.141 C 
ATOM      6  C   UNL     1       1.342  -4.351   0.854  0.00  0.00    +0.024 C 
ENDROOT
BRANCH   1  11
ATOM      7  C   UNL     1      -1.113   1.325   2.644  0.00  0.00    +0.044 C 
ATOM      8  C   UNL     1      -0.797  -0.008   2.014  0.00  0.00    -0.050 A 
ATOM      9  C   UNL     1      -0.553  -0.090   0.656  0.00  0.00    +0.003 A 
ATOM     10  C   UNL     1      -0.264  -1.313   0.079  0.00  0.00    +0.005 A 
ATOM     11  C   UNL     1      -0.219  -2.452   0.859  0.00  0.00    -0.036 A 
ATOM     12  C   UNL     1      -0.462  -2.370   2.218  0.00  0.00    +0.005 A 
ATOM     13  C   UNL     1      -0.747  -1.147   2.796  0.00  0.00    +0.003 A 
ENDBRANCH   1  11
BRANCH   5  14
ATOM     14  C   UNL     1       2.517  -5.883   2.350  0.00  0.00    +0.018 A 
ATOM     15  C   UNL     1       2.812  -5.643   3.694  0.00  0.00    +0.011 A 
ATOM     16  C   UNL     1       3.976  -6.141   4.241  0.00  0.00    +0.001 A 
ATOM     17  C   UNL     1       4.852  -6.876   3.461  0.00  0.00    +0.000 A 
ATOM     18  C   UNL     1       4.566  -7.117   2.128  0.00  0.00    +0.001 A 
ATOM     19  C   UNL     1       3.403  -6.630   1.570  0.00  0.00    +0.011 A 
ENDBRANCH   5  14
BRANCH   3  20
ATOM     20  C   UNL     1      -2.171  -6.582   1.526  0.00  0.00    +0.017 A 
ATOM     21  C   UNL     1      -3.307  -6.409   0.736  0.00  0.00    +0.011 A 
ATOM     22  C   UNL     1      -4.392  -7.245   0.901  0.00  0.00    +0.001 A 
ATOM     23  C   UNL     1      -4.355  -8.253   1.847  0.00  0.00    +0.000 A 
ATOM     24  C   UNL     1      -3.231  -8.430   2.634  0.00  0.00    +0.001 A 
ATOM     25  C   UNL     1      -2.137  -7.604   2.475  0.00  0.00    +0.011 A 
ENDBRANCH   3  20
BRANCH   6  26
ATOM     26  C   UNL     1       2.602  -3.828   0.492  0.00  0.00    +0.113 C 
ATOM     27  N   UNL     1       3.675  -4.225   1.114  0.00  0.00    -0.291 NA
BRANCH  27  28
ATOM     28  C   UNL     1       4.967  -3.603   0.816  0.00  0.00    +0.146 C 
BRANCH  28  29
ATOM     29  C   UNL     1       5.490  -2.889   2.064  0.00  0.00    +0.056 C 
BRANCH  29  30
ATOM     30  C   UNL     1       6.757  -2.148   1.725  0.00  0.00    -0.040 C 
ATOM     31  C   UNL     1       6.869  -0.845   1.381  0.00  0.00    -0.001 A 
ATOM     32  C   UNL     1       5.883   0.231   1.223  0.00  0.00    +0.010 A 
ATOM     33  C   UNL     1       6.307   1.462   0.859  0.00  0.00    +0.001 A 
ATOM     34  C   UNL     1       7.662   1.736   0.628  0.00  0.00    +0.002 A 
ATOM     35  C   UNL     1       8.627   0.801   0.753  0.00  0.00    +0.026 A 
ATOM     36  C   UNL     1       8.294  -0.529   1.131  0.00  0.00    +0.043 A 
ATOM     37  N   UNL     1       9.034  -1.596   1.315  0.00  0.00    -0.380 N 
ATOM     38  C   UNL     1       8.162  -2.708   1.708  0.00  0.00    +0.144 C 
ATOM     39  H   UNL     1       9.998  -1.641   1.212  0.00  0.00    +0.160 HD
ENDBRANCH  29  30
ENDBRANCH  28  29
ENDBRANCH  27  28
ENDBRANCH   6  26
TORSDOF 7
