REMARK  Name = ZINC22381379
REMARK  13 active torsions:
REMARK  status: ('A' for Active; 'I' for Inactive)
REMARK    1  A    between atoms: C_1  and  C_2
REMARK    2  A    between atoms: C_5  and  N_32
REMARK    3  A    between atoms: C_6  and  N_9
REMARK    4  A    between atoms: C_7  and  C_8
REMARK    5  A    between atoms: C_10  and  C_12
REMARK    6  A    between atoms: C_12  and  C_14
REMARK    7  A    between atoms: C_12  and  S_15
REMARK    8  A    between atoms: S_15  and  C_16
REMARK    9  A    between atoms: N_26  and  C_27
REMARK   10  A    between atoms: C_27  and  C_28
REMARK   11  A    between atoms: C_28  and  C_29
REMARK   12  A    between atoms: C_29  and  O_30
REMARK   13  A    between atoms: O_30  and  C_31
REMARK                            x       y       z     vdW  Elec       q    Type
REMARK                         _______ _______ _______ _____ _____    ______ ____
ROOT
ATOM      1  C   UNL     1      -1.348  -2.962   3.448  0.00  0.00    +0.137 C 
ATOM      2  C   UNL     1      -0.317  -3.672   4.328  0.00  0.00    +0.029 C 
ENDROOT
BRANCH   1   4
ATOM      3  N   UNL     1      -3.493  -4.082   3.961  0.00  0.00    -0.283 N 
ATOM      4  C   UNL     1      -2.462  -3.919   3.109  0.00  0.00    +0.230 C 
ATOM      5  O   UNL     1      -2.431  -4.542   2.069  0.00  0.00    -0.274 OA
ATOM      6  H   UNL     1      -3.483  -3.577   4.939  0.00  0.00    +0.155 HD
BRANCH   3  12
ATOM      7  C   UNL     1      -7.005  -5.270   0.733  0.00  0.00    +0.044 C 
ATOM      8  C   UNL     1      -6.296  -5.491   2.044  0.00  0.00    -0.046 A 
ATOM      9  C   UNL     1      -6.716  -6.496   2.896  0.00  0.00    +0.006 A 
ATOM     10  C   UNL     1      -6.069  -6.702   4.100  0.00  0.00    +0.035 A 
ATOM     11  C   UNL     1      -4.996  -5.907   4.454  0.00  0.00    +0.148 A 
ATOM     12  C   UNL     1      -4.576  -4.893   3.603  0.00  0.00    +0.067 A 
ATOM     13  C   UNL     1      -5.228  -4.689   2.394  0.00  0.00    -0.024 A 
ATOM     14  C   UNL     1      -4.771  -3.594   1.466  0.00  0.00    +0.046 C 
BRANCH  11  15
ATOM     15  N   UNL     1      -4.300  -6.131   5.740  0.00  0.00    +0.058 N 
ATOM     16  O   UNL     1      -4.734  -6.947   6.533  0.00  0.00    -0.126 OA
ATOM     17  O   UNL     1      -3.293  -5.500   6.006  0.00  0.00    -0.126 OA
ENDBRANCH  11  15
ENDBRANCH   3  12
ENDBRANCH   1   4
BRANCH   1  18
ATOM     18  S   UNL     1      -0.553  -2.397   1.923  0.00  0.00    -0.075 S 
BRANCH  18  19
ATOM     19  C   UNL     1       0.572  -1.214   2.585  0.00  0.00    +0.173 A 
ATOM     20  N   UNL     1       0.590  -1.026   3.881  0.00  0.00    -0.223 NA
ATOM     21  C   UNL     1       1.421  -0.132   4.455  0.00  0.00    +0.079 A 
ATOM     22  C   UNL     1       1.436   0.072   5.838  0.00  0.00    +0.028 A 
ATOM     23  C   UNL     1       2.294   0.988   6.376  0.00  0.00    +0.002 A 
ATOM     24  C   UNL     1       3.155   1.723   5.570  0.00  0.00    +0.001 A 
ATOM     25  C   UNL     1       3.163   1.545   4.214  0.00  0.00    +0.015 A 
ATOM     26  C   UNL     1       2.298   0.617   3.637  0.00  0.00    +0.065 A 
ATOM     27  C   UNL     1       2.263   0.384   2.187  0.00  0.00    +0.262 A 
ATOM     28  O   UNL     1       2.993   0.999   1.431  0.00  0.00    -0.267 OA
ATOM     29  N   UNL     1       1.388  -0.538   1.723  0.00  0.00    -0.287 N 
BRANCH  29  30
ATOM     30  C   UNL     1       1.311  -0.809   0.285  0.00  0.00    +0.129 C 
BRANCH  30  31
ATOM     31  C   UNL     1       2.290  -1.928  -0.076  0.00  0.00    +0.050 C 
BRANCH  31  32
ATOM     32  C   UNL     1       2.210  -2.211  -1.578  0.00  0.00    +0.161 C 
BRANCH  32  33
ATOM     33  O   UNL     1       3.124  -3.256  -1.915  0.00  0.00    -0.383 OA
ATOM     34  C   UNL     1       3.128  -3.600  -3.302  0.00  0.00    +0.193 C 
ENDBRANCH  32  33
ENDBRANCH  31  32
ENDBRANCH  30  31
ENDBRANCH  29  30
ENDBRANCH  18  19
ENDBRANCH   1  18
TORSDOF 9
