REMARK  Name = ZINC34811011
REMARK  6 active torsions:
REMARK  status: ('A' for Active; 'I' for Inactive)
REMARK    1  A    between atoms: C_4  and  C_7
REMARK    2  A    between atoms: C_7  and  C_8
REMARK    3  A    between atoms: C_7  and  N_14
REMARK    4  A    between atoms: C_15  and  C_17
REMARK    5  A    between atoms: N_24  and  C_27
REMARK    6  A    between atoms: C_27  and  C_28
REMARK                            x       y       z     vdW  Elec       q    Type
REMARK                         _______ _______ _______ _____ _____    ______ ____
ROOT
ATOM      1  C   UNL     1       4.621  -3.538  -2.404  0.00  0.00    +0.148 A 
ATOM      2  C   UNL     1       5.693  -4.176  -3.068  0.00  0.00    +0.067 A 
ATOM      3  C   UNL     1       5.126  -5.182  -3.771  0.00  0.00    +0.124 A 
ATOM      4  N   UNL     1       3.768  -5.140  -3.530  0.00  0.00    -0.257 N 
ATOM      5  N   UNL     1       3.511  -4.180  -2.731  0.00  0.00    -0.166 NA
ATOM      6  C   UNL     1       2.859  -6.111  -4.154  0.00  0.00    +0.163 C 
ATOM      7  C   UNL     1       3.429  -6.537  -5.505  0.00  0.00    +0.132 C 
ATOM      8  N   UNL     1       4.841  -6.892  -5.435  0.00  0.00    -0.290 N 
ATOM      9  C   UNL     1       5.711  -6.202  -4.658  0.00  0.00    +0.265 C 
ATOM     10  O   UNL     1       6.909  -6.412  -4.692  0.00  0.00    -0.268 OA
ENDROOT
BRANCH   1  12
ATOM     11  N   UNL     1       3.611  -1.865  -0.930  0.00  0.00    -0.299 N 
ATOM     12  C   UNL     1       4.721  -2.370  -1.504  0.00  0.00    +0.265 C 
ATOM     13  O   UNL     1       5.805  -1.867  -1.281  0.00  0.00    -0.268 OA
ATOM     14  H   UNL     1       2.747  -2.267  -1.108  0.00  0.00    +0.150 HD
BRANCH  11  15
ATOM     15  C   UNL     1       3.711  -0.707  -0.038  0.00  0.00    +0.134 C 
BRANCH  15  19
ATOM     16  C   UNL     1      -0.017   1.378   0.010  0.00  0.00    +0.000 A 
ATOM     17  C   UNL     1       1.171   2.086   0.002  0.00  0.00    +0.000 A 
ATOM     18  C   UNL     1       2.377   1.411  -0.013  0.00  0.00    +0.006 A 
ATOM     19  C   UNL     1       2.396   0.029  -0.020  0.00  0.00    -0.023 A 
ATOM     20  C   UNL     1       1.208  -0.679  -0.012  0.00  0.00    +0.006 A 
ATOM     21  C   UNL     1       0.002  -0.004   0.002  0.00  0.00    +0.000 A 
ENDBRANCH  15  19
BRANCH  15  22
ATOM     22  C   UNL     1       4.044  -1.175   1.356  0.00  0.00    -0.023 A 
ATOM     23  C   UNL     1       3.455  -2.320   1.860  0.00  0.00    +0.006 A 
ATOM     24  C   UNL     1       3.760  -2.748   3.138  0.00  0.00    +0.000 A 
ATOM     25  C   UNL     1       4.654  -2.033   3.912  0.00  0.00    +0.000 A 
ATOM     26  C   UNL     1       5.243  -0.888   3.408  0.00  0.00    +0.000 A 
ATOM     27  C   UNL     1       4.941  -0.462   2.128  0.00  0.00    +0.006 A 
ENDBRANCH  15  22
ENDBRANCH  11  15
ENDBRANCH   1  12
BRANCH   8  28
ATOM     28  C   UNL     1       5.332  -8.025  -6.224  0.00  0.00    +0.146 C 
BRANCH  28  29
ATOM     29  C   UNL     1       5.774  -7.538  -7.580  0.00  0.00    +0.005 A 
ATOM     30  C   UNL     1       4.941  -7.684  -8.672  0.00  0.00    +0.008 A 
ATOM     31  C   UNL     1       5.346  -7.237  -9.916  0.00  0.00    +0.000 A 
ATOM     32  C   UNL     1       6.586  -6.645 -10.069  0.00  0.00    +0.003 A 
ATOM     33  C   UNL     1       7.421  -6.499  -8.978  0.00  0.00    +0.038 A 
ATOM     34  C   UNL     1       7.014  -6.940  -7.731  0.00  0.00    +0.128 A 
ATOM     35  F   UNL     1       7.828  -6.793  -6.662  0.00  0.00    -0.205 F 
ENDBRANCH  28  29
ENDBRANCH   8  28
TORSDOF 6
