REMARK  Name = ZINC00821070
REMARK  9 active torsions:
REMARK  status: ('A' for Active; 'I' for Inactive)
REMARK    1  A    between atoms: C_1  and  C_2
REMARK    2  A    between atoms: C_3  and  C_30
REMARK    3  A    between atoms: C_4  and  C_21
REMARK    4  A    between atoms: C_10  and  C_15
REMARK    5  A    between atoms: C_24  and  O_29
REMARK    6  A    between atoms: C_25  and  O_27
REMARK    7  A    between atoms: O_27  and  C_28
REMARK    8  A    between atoms: C_30  and  O_32
REMARK    9  A    between atoms: O_32  and  C_33
REMARK                            x       y       z     vdW  Elec       q    Type
REMARK                         _______ _______ _______ _____ _____    ______ ____
ROOT
ATOM      1  C   UNL     1       4.755   4.143  -0.829  0.00  0.00    +0.061 C 
ATOM      2  C   UNL     1       3.566   3.321  -0.404  0.00  0.00    +0.031 C 
ATOM      3  C   UNL     1       3.646   1.979  -0.406  0.00  0.00    +0.154 C 
ATOM      4  C   UNL     1       2.486   1.128   0.015  0.00  0.00    +0.073 C 
ATOM      5  C   UNL     1       1.201   1.918   0.002  0.00  0.00    +0.025 C 
ATOM      6  C   UNL     1       1.221   3.268  -0.014  0.00  0.00    +0.049 C 
ATOM      7  N   UNL     1       2.412   3.944  -0.019  0.00  0.00    -0.260 NA
ATOM      8  C   UNL     1      -0.060   4.064  -0.024  0.00  0.00    +0.064 C 
ATOM      9  C   UNL     1      -1.155   3.288   0.706  0.00  0.00    +0.032 C 
ATOM     10  C   UNL     1      -1.335   1.931   0.012  0.00  0.00    +0.088 C 
ATOM     11  C   UNL     1      -0.014   1.211   0.006  0.00  0.00    +0.162 C 
ATOM     12  O   UNL     1       0.003  -0.004   0.000  0.00  0.00    -0.292 OA
ENDROOT
BRANCH   9  13
ATOM     13  C   UNL     1      -2.448   4.060   0.647  0.00  0.00    -0.044 A 
ATOM     14  C   UNL     1      -3.015   4.367  -0.575  0.00  0.00    +0.004 A 
ATOM     15  C   UNL     1      -4.204   5.072  -0.629  0.00  0.00    +0.000 A 
ATOM     16  C   UNL     1      -4.820   5.478   0.540  0.00  0.00    +0.000 A 
ATOM     17  C   UNL     1      -4.250   5.175   1.763  0.00  0.00    +0.000 A 
ATOM     18  C   UNL     1      -3.064   4.467   1.817  0.00  0.00    +0.004 A 
ENDBRANCH   9  13
BRANCH   4  19
ATOM     19  C   UNL     1       2.737   0.615   1.409  0.00  0.00    -0.035 A 
ATOM     20  C   UNL     1       2.881   1.506   2.457  0.00  0.00    +0.008 A 
ATOM     21  C   UNL     1       3.106   1.040   3.738  0.00  0.00    +0.049 A 
ATOM     22  C   UNL     1       3.199  -0.323   3.974  0.00  0.00    +0.158 A 
ATOM     23  C   UNL     1       3.060  -1.219   2.919  0.00  0.00    +0.162 A 
ATOM     24  C   UNL     1       2.829  -0.746   1.637  0.00  0.00    +0.053 A 
BRANCH  23  25
ATOM     25  O   UNL     1       3.150  -2.557   3.145  0.00  0.00    -0.491 OA
ATOM     26  C   UNL     1       2.998  -3.418   2.014  0.00  0.00    +0.277 C 
ENDBRANCH  23  25
BRANCH  22  27
ATOM     27  O   UNL     1       3.426  -0.783   5.233  0.00  0.00    -0.503 OA
ATOM     28  H   UNL     1       4.363  -0.881   5.453  0.00  0.00    +0.292 HD
ENDBRANCH  22  27
ENDBRANCH   4  19
BRANCH   3  29
ATOM     29  C   UNL     1       4.849   1.357  -0.817  0.00  0.00    +0.317 C 
ATOM     30  O   UNL     1       5.797   2.036  -1.164  0.00  0.00    -0.250 OA
BRANCH  29  31
ATOM     31  O   UNL     1       4.944   0.011  -0.824  0.00  0.00    -0.461 OA
BRANCH  31  32
ATOM     32  C   UNL     1       6.188  -0.549  -1.250  0.00  0.00    +0.176 C 
ATOM     33  C   UNL     1       6.153  -0.775  -2.763  0.00  0.00    +0.044 C 
ATOM     34  C   UNL     1       7.484  -1.375  -3.220  0.00  0.00    +0.004 C 
ATOM     35  C   UNL     1       7.713  -2.711  -2.509  0.00  0.00    +0.000 C 
ATOM     36  C   UNL     1       7.747  -2.484  -0.996  0.00  0.00    +0.004 C 
ATOM     37  C   UNL     1       6.416  -1.885  -0.540  0.00  0.00    +0.044 C 
ENDBRANCH  31  32
ENDBRANCH  29  31
ENDBRANCH   3  29
TORSDOF 7
