REMARK  Name = ZINC59020525
REMARK  8 active torsions:
REMARK  status: ('A' for Active; 'I' for Inactive)
REMARK    1  A    between atoms: C_4  and  C_7
REMARK    2  A    between atoms: C_7  and  C_9
REMARK    3  A    between atoms: C_7  and  N_18
REMARK    4  A    between atoms: C_9  and  O_10
REMARK    5  A    between atoms: O_10  and  C_11
REMARK    6  A    between atoms: C_19  and  C_21
REMARK    7  A    between atoms: C_21  and  C_22
REMARK    8  A    between atoms: C_22  and  N_23
REMARK                            x       y       z     vdW  Elec       q    Type
REMARK                         _______ _______ _______ _____ _____    ______ ____
ROOT
ATOM      1  N   UNL     1       3.611  -1.865  -0.930  0.00  0.00    -0.305 N 
ATOM      2  C   UNL     1       3.825  -1.716  -2.253  0.00  0.00    +0.215 C 
ATOM      3  O   UNL     1       4.099  -0.624  -2.704  0.00  0.00    -0.276 OA
ATOM      4  H   UNL     1       3.392  -2.738  -0.569  0.00  0.00    +0.149 HD
ENDROOT
BRANCH   1   5
ATOM      5  C   UNL     1       3.711  -0.707  -0.038  0.00  0.00    +0.141 C 
BRANCH   5   9
ATOM      6  C   UNL     1      -0.017   1.378   0.010  0.00  0.00    +0.000 A 
ATOM      7  C   UNL     1       1.171   2.086   0.002  0.00  0.00    +0.000 A 
ATOM      8  C   UNL     1       2.377   1.411  -0.013  0.00  0.00    +0.005 A 
ATOM      9  C   UNL     1       2.396   0.029  -0.020  0.00  0.00    -0.024 A 
ATOM     10  C   UNL     1       1.208  -0.679  -0.012  0.00  0.00    +0.005 A 
ATOM     11  C   UNL     1       0.002  -0.004   0.002  0.00  0.00    +0.000 A 
ENDBRANCH   5   9
BRANCH   5  12
ATOM     12  C   UNL     1       4.049  -1.182   1.377  0.00  0.00    +0.256 C 
BRANCH  12  13
ATOM     13  O   UNL     1       2.966  -1.962   1.889  0.00  0.00    -0.487 OA
BRANCH  13  14
ATOM     14  C   UNL     1       3.107  -2.463   3.145  0.00  0.00    +0.156 A 
ATOM     15  C   UNL     1       4.260  -2.206   3.871  0.00  0.00    +0.048 A 
ATOM     16  C   UNL     1       4.400  -2.717   5.147  0.00  0.00    +0.004 A 
ATOM     17  C   UNL     1       3.393  -3.485   5.701  0.00  0.00    +0.003 A 
ATOM     18  C   UNL     1       2.243  -3.745   4.980  0.00  0.00    +0.042 A 
ATOM     19  C   UNL     1       2.093  -3.231   3.705  0.00  0.00    +0.165 A 
ATOM     20  F   UNL     1       0.966  -3.480   3.003  0.00  0.00    -0.202 F 
ENDBRANCH  13  14
ENDBRANCH  12  13
ENDBRANCH   5  12
ENDBRANCH   1   5
BRANCH   2  21
ATOM     21  C   UNL     1       3.722  -2.906  -3.171  0.00  0.00    +0.115 C 
BRANCH  21  22
ATOM     22  C   UNL     1       4.007  -2.468  -4.609  0.00  0.00    +0.126 C 
BRANCH  22  23
ATOM     23  N   UNL     1       3.908  -3.625  -5.501  0.00  0.00    -0.234 N 
ATOM     24  C   UNL     1       4.934  -4.439  -5.810  0.00  0.00    +0.254 C 
ATOM     25  O   UNL     1       6.072  -4.332  -5.400  0.00  0.00    -0.270 OA
ATOM     26  C   UNL     1       4.444  -5.485  -6.732  0.00  0.00    +0.049 A 
ATOM     27  C   UNL     1       5.031  -6.567  -7.368  0.00  0.00    +0.014 A 
ATOM     28  C   UNL     1       4.267  -7.377  -8.194  0.00  0.00    +0.001 A 
ATOM     29  C   UNL     1       2.924  -7.113  -8.386  0.00  0.00    +0.001 A 
ATOM     30  C   UNL     1       2.323  -6.034  -7.757  0.00  0.00    +0.014 A 
ATOM     31  C   UNL     1       3.074  -5.216  -6.929  0.00  0.00    +0.049 A 
ATOM     32  C   UNL     1       2.777  -4.018  -6.115  0.00  0.00    +0.254 C 
ATOM     33  O   UNL     1       1.694  -3.477  -6.019  0.00  0.00    -0.270 OA
ENDBRANCH  22  23
ENDBRANCH  21  22
ENDBRANCH   2  21
TORSDOF 8
