REMARK  Name = ZINC11628145
REMARK  4 active torsions:
REMARK  status: ('A' for Active; 'I' for Inactive)
REMARK    1  A    between atoms: C_1  and  C_2
REMARK    2  A    between atoms: C_12  and  C_14
REMARK    3  A    between atoms: C_17  and  C_19
REMARK    4  A    between atoms: C_19  and  N_35
REMARK                            x       y       z     vdW  Elec       q    Type
REMARK                         _______ _______ _______ _____ _____    ______ ____
ROOT
ATOM      1  C   UNL     1      -4.660   7.920   0.269  0.00  0.00    +0.029 C 
ATOM      2  C   UNL     1      -3.969   7.096   1.358  0.00  0.00    +0.083 C 
ATOM      3  C   UNL     1      -5.006   6.283   2.150  0.00  0.00    +0.059 C 
ATOM      4  C   UNL     1      -4.610   4.841   1.926  0.00  0.00    -0.024 A 
ATOM      5  C   UNL     1      -5.171   3.665   2.387  0.00  0.00    +0.005 A 
ATOM      6  C   UNL     1      -4.617   2.448   2.037  0.00  0.00    +0.000 A 
ATOM      7  C   UNL     1      -3.499   2.409   1.224  0.00  0.00    +0.002 A 
ATOM      8  C   UNL     1      -2.936   3.579   0.762  0.00  0.00    +0.024 A 
ATOM      9  C   UNL     1      -3.493   4.812   1.107  0.00  0.00    +0.040 A 
ATOM     10  N   UNL     1      -3.080   6.100   0.754  0.00  0.00    -0.262 N 
ATOM     11  C   UNL     1      -2.022   6.384  -0.031  0.00  0.00    +0.286 C 
ATOM     12  O   UNL     1      -1.400   5.484  -0.563  0.00  0.00    -0.266 OA
ENDROOT
BRANCH  11  13
ATOM     13  C   UNL     1      -1.621   7.778  -0.244  0.00  0.00    +0.190 A 
ATOM     14  C   UNL     1      -0.654   8.212  -1.105  0.00  0.00    +0.055 A 
ATOM     15  C   UNL     1      -0.604   9.610  -0.985  0.00  0.00    +0.043 A 
ATOM     16  C   UNL     1      -1.530   9.963  -0.067  0.00  0.00    +0.089 A 
ATOM     17  O   UNL     1      -2.137   8.856   0.381  0.00  0.00    -0.457 OA
BRANCH  16  18
ATOM     18  C   UNL     1      -1.828  11.370   0.383  0.00  0.00    -0.011 C 
BRANCH  18  21
ATOM     19  H   UNL     1      -3.090  12.892  -0.192  0.00  0.00    -0.089 HD
ATOM     20  H   UNL     1      -2.603  11.913  -1.446  0.00  0.00    -0.089 HD
ATOM     21  N   UNL     1      -2.891  11.932  -0.469  0.00  0.00    +0.383 N 
ATOM     22  H   UNL     1      -3.743  11.369  -0.360  0.00  0.00    -0.089 HD
ENDBRANCH  18  21
ENDBRANCH  16  18
ENDBRANCH  11  13
TORSDOF 3
