REMARK  Name = ZINC24072216
REMARK  11 active torsions:
REMARK  status: ('A' for Active; 'I' for Inactive)
REMARK    1  A    between atoms: C_1  and  C_2
REMARK    2  A    between atoms: C_5  and  C_8
REMARK    3  A    between atoms: C_11  and  C_14
REMARK    4  A    between atoms: C_19  and  C_21
REMARK    5  A    between atoms: C_21  and  N_22
REMARK    6  A    between atoms: N_25  and  C_28
REMARK    7  A    between atoms: C_28  and  C_29
REMARK    8  A    between atoms: N_31  and  C_32
REMARK    9  A    between atoms: C_32  and  C_33
REMARK   10  A    between atoms: C_32  and  C_34
REMARK   11  A    between atoms: C_32  and  C_35
REMARK                            x       y       z     vdW  Elec       q    Type
REMARK                         _______ _______ _______ _____ _____    ______ ____
ROOT
ATOM      1  C   UNL     1      -8.784  -4.014  -2.107  0.00  0.00    +0.069 C 
ATOM      2  N   UNL     1      -7.992  -3.111  -1.642  0.00  0.00    -0.181 NA
ATOM      3  N   UNL     1      -6.874  -2.869  -2.438  0.00  0.00    -0.181 N 
ATOM      4  C   UNL     1      -6.933  -3.744  -3.620  0.00  0.00    +0.173 C 
ATOM      5  C   UNL     1      -8.234  -4.545  -3.412  0.00  0.00    +0.090 C 
ATOM      6  C   UNL     1      -5.901  -1.976  -2.171  0.00  0.00    +0.249 C 
ATOM      7  O   UNL     1      -4.969  -1.847  -2.938  0.00  0.00    -0.272 OA
ENDROOT
BRANCH   1  12
ATOM      8  C   UNL     1     -13.662  -5.757   0.392  0.00  0.00    +0.044 C 
ATOM      9  C   UNL     1     -12.384  -5.300  -0.263  0.00  0.00    -0.050 A 
ATOM     10  C   UNL     1     -11.616  -4.318   0.337  0.00  0.00    +0.004 A 
ATOM     11  C   UNL     1     -10.444  -3.896  -0.256  0.00  0.00    +0.010 A 
ATOM     12  C   UNL     1     -10.035  -4.461  -1.466  0.00  0.00    -0.002 A 
ATOM     13  C   UNL     1     -10.819  -5.448  -2.069  0.00  0.00    +0.010 A 
ATOM     14  C   UNL     1     -11.984  -5.864  -1.461  0.00  0.00    +0.004 A 
ENDBRANCH   1  12
BRANCH   4  15
ATOM     15  C   UNL     1      -7.008  -2.924  -4.882  0.00  0.00    +0.128 A 
ATOM     16  C   UNL     1      -6.389  -3.209  -6.042  0.00  0.00    +0.046 A 
ATOM     17  C   UNL     1      -6.732  -2.182  -6.952  0.00  0.00    +0.041 A 
ATOM     18  C   UNL     1      -7.541  -1.332  -6.294  0.00  0.00    +0.195 A 
ATOM     19  O   UNL     1      -7.709  -1.790  -5.042  0.00  0.00    -0.466 OA
ENDBRANCH   4  15
BRANCH   6  20
ATOM     20  C   UNL     1      -5.969  -1.137  -0.921  0.00  0.00    +0.182 C 
BRANCH  20  21
ATOM     21  N   UNL     1      -4.884  -0.147  -0.936  0.00  0.00    -0.298 NA
ATOM     22  C   UNL     1      -5.077   0.831  -2.016  0.00  0.00    +0.066 C 
ATOM     23  C   UNL     1      -3.888   1.794  -2.047  0.00  0.00    -0.063 C 
ATOM     24  N   UNL     1      -3.772   2.467  -0.746  0.00  0.00    +0.387 N 
ATOM     25  C   UNL     1      -3.579   1.489   0.334  0.00  0.00    -0.063 C 
ATOM     26  C   UNL     1      -4.768   0.526   0.365  0.00  0.00    +0.066 C 
ATOM     27  H   UNL     1      -4.713   3.003  -0.555  0.00  0.00    -0.081 HD
BRANCH  24  28
ATOM     28  C   UNL     1      -2.687   3.457  -0.761  0.00  0.00    +0.019 C 
BRANCH  28  29
ATOM     29  C   UNL     1      -2.752   4.293   0.491  0.00  0.00    +0.197 C 
ATOM     30  O   UNL     1      -3.619   4.085   1.315  0.00  0.00    -0.278 OA
ATOM     31  N   UNL     1      -1.846   5.269   0.699  0.00  0.00    -0.312 N 
ATOM     32  H   UNL     1      -1.061   5.457  -0.048  0.00  0.00    +0.149 HD
BRANCH  31  33
ATOM     33  C   UNL     1      -1.907   6.077   1.919  0.00  0.00    +0.026 C 
ATOM     34  C   UNL     1      -1.758   5.169   3.141  0.00  0.00    +0.031 C 
ATOM     35  C   UNL     1      -0.773   7.105   1.906  0.00  0.00    +0.031 C 
ATOM     36  C   UNL     1      -3.252   6.803   1.983  0.00  0.00    +0.031 C 
ENDBRANCH  31  33
ENDBRANCH  28  29
ENDBRANCH  24  28
ENDBRANCH  20  21
ENDBRANCH   6  20
TORSDOF 7
