REMARK  Name = ZINC26272523
REMARK  8 active torsions:
REMARK  status: ('A' for Active; 'I' for Inactive)
REMARK    1  A    between atoms: C_1  and  C_2
REMARK    2  A    between atoms: C_2  and  C_4
REMARK    3  A    between atoms: C_2  and  O_20
REMARK    4  A    between atoms: N_6  and  C_7
REMARK    5  A    between atoms: C_10  and  N_17
REMARK    6  A    between atoms: C_12  and  C_13
REMARK    7  A    between atoms: O_20  and  C_21
REMARK    8  A    between atoms: C_21  and  C_23
REMARK                            x       y       z     vdW  Elec       q    Type
REMARK                         _______ _______ _______ _____ _____    ______ ____
ROOT
ATOM      1  C   UNL     1       4.583  -0.665  -1.066  0.00  0.00    +0.062 C 
ATOM      2  C   UNL     1       3.744  -0.963   0.178  0.00  0.00    +0.259 C 
ENDROOT
BRANCH   2   3
ATOM      3  C   UNL     1       2.426  -0.238   0.080  0.00  0.00    +0.258 C 
ATOM      4  O   UNL     1       1.388  -0.864   0.087  0.00  0.00    -0.271 OA
ATOM      5  N   UNL     1       2.403   1.107  -0.015  0.00  0.00    -0.282 N 
ATOM      6  H   UNL     1       3.344   1.669  -0.095  0.00  0.00    +0.155 HD
BRANCH   5   7
ATOM      7  C   UNL     1       1.180   1.787  -0.010  0.00  0.00    +0.045 A 
ATOM      8  C   UNL     1       0.064   1.216  -0.609  0.00  0.00    +0.026 A 
ATOM      9  C   UNL     1      -1.140   1.892  -0.607  0.00  0.00    +0.034 A 
ATOM     10  C   UNL     1      -1.238   3.131  -0.001  0.00  0.00    +0.127 A 
ATOM     11  C   UNL     1      -0.130   3.702   0.596  0.00  0.00    +0.047 A 
ATOM     12  C   UNL     1       1.079   3.033   0.593  0.00  0.00    +0.078 A 
BRANCH  12  13
ATOM     13  C   UNL     1       2.287   3.656   1.244  0.00  0.00    +0.419 C 
ATOM     14  F   UNL     1       1.939   4.902   1.777  0.00  0.00    -0.166 F 
ATOM     15  F   UNL     1       2.747   2.822   2.268  0.00  0.00    -0.166 F 
ATOM     16  F   UNL     1       3.297   3.823   0.289  0.00  0.00    -0.166 F 
ENDBRANCH  12  13
BRANCH  10  17
ATOM     17  N   UNL     1      -2.532   3.851   0.003  0.00  0.00    +0.056 N 
ATOM     18  O   UNL     1      -2.619   4.944   0.532  0.00  0.00    -0.126 OA
ATOM     19  O   UNL     1      -3.510   3.349  -0.522  0.00  0.00    -0.126 OA
ENDBRANCH  10  17
ENDBRANCH   5   7
ENDBRANCH   2   3
BRANCH   2  20
ATOM     20  O   UNL     1       3.504  -2.392   0.269  0.00  0.00    -0.449 OA
BRANCH  20  21
ATOM     21  C   UNL     1       4.407  -3.122   0.954  0.00  0.00    +0.340 C 
ATOM     22  O   UNL     1       5.368  -2.578   1.462  0.00  0.00    -0.245 OA
BRANCH  21  23
ATOM     23  C   UNL     1       4.228  -4.578   1.088  0.00  0.00    +0.067 A 
ATOM     24  C   UNL     1       3.135  -5.225   0.516  0.00  0.00    +0.016 A 
ATOM     25  C   UNL     1       2.951  -6.598   0.633  0.00  0.00    +0.005 A 
ATOM     26  C   UNL     1       3.837  -7.377   1.318  0.00  0.00    -0.039 A 
ATOM     27  C   UNL     1       4.944  -6.773   1.905  0.00  0.00    -0.011 A 
ATOM     28  C   UNL     1       5.194  -5.393   1.820  0.00  0.00    -0.003 A 
ATOM     29  C   UNL     1       6.336  -4.888   2.452  0.00  0.00    +0.009 A 
ATOM     30  C   UNL     1       7.161  -5.757   3.111  0.00  0.00    +0.001 A 
ATOM     31  C   UNL     1       6.899  -7.126   3.179  0.00  0.00    +0.004 A 
ATOM     32  C   UNL     1       5.792  -7.646   2.579  0.00  0.00    -0.039 A 
ATOM     33  C   UNL     1       5.208  -9.031   2.451  0.00  0.00    +0.040 C 
ATOM     34  C   UNL     1       3.919  -8.855   1.619  0.00  0.00    +0.040 C 
ENDBRANCH  21  23
ENDBRANCH  20  21
ENDBRANCH   2  20
TORSDOF 7
