REMARK  Name = ZINC64061258
REMARK  10 active torsions:
REMARK  status: ('A' for Active; 'I' for Inactive)
REMARK    1  A    between atoms: C_1  and  O_2
REMARK    2  A    between atoms: O_2  and  C_3
REMARK    3  A    between atoms: C_8  and  C_9
REMARK    4  A    between atoms: C_9  and  N_10
REMARK    5  A    between atoms: C_12  and  N_21
REMARK    6  A    between atoms: C_15  and  C_17
REMARK    7  A    between atoms: C_17  and  O_19
REMARK    8  A    between atoms: O_19  and  C_20
REMARK    9  A    between atoms: C_22  and  C_24
REMARK   10  A    between atoms: C_26  and  C_35
REMARK                            x       y       z     vdW  Elec       q    Type
REMARK                         _______ _______ _______ _____ _____    ______ ____
ROOT
ATOM      1  N   UNL     1      -4.224  -1.783  -0.907  0.00  0.00    -0.309 N 
ATOM      2  C   UNL     1      -4.859  -0.607  -1.080  0.00  0.00    +0.240 C 
ATOM      3  O   UNL     1      -4.825   0.235  -0.207  0.00  0.00    -0.273 OA
ATOM      4  H   UNL     1      -4.306  -2.482  -1.575  0.00  0.00    +0.149 HD
ENDROOT
BRANCH   2   5
ATOM      5  C   UNL     1      -5.613  -0.338  -2.357  0.00  0.00    +0.198 C 
ATOM      6  C   UNL     1      -7.059  -0.756  -2.206  0.00  0.00    -0.000 C 
ATOM      7  C   UNL     1      -7.803   0.396  -2.396  0.00  0.00    +0.006 A 
ATOM      8  C   UNL     1      -9.197   0.648  -2.379  0.00  0.00    +0.030 A 
ATOM      9  C   UNL     1      -9.655   1.904  -2.603  0.00  0.00    +0.042 A 
ATOM     10  C   UNL     1      -8.782   2.971  -2.854  0.00  0.00    +0.022 A 
ATOM     11  C   UNL     1      -7.439   2.805  -2.885  0.00  0.00    +0.027 A 
ATOM     12  C   UNL     1      -6.881   1.517  -2.659  0.00  0.00    +0.044 A 
ATOM     13  N   UNL     1      -5.633   1.101  -2.638  0.00  0.00    -0.370 N 
ATOM     14 CL   UNL     1     -11.365   2.198  -2.580  0.00  0.00    -0.084 Cl
ATOM     15  H   UNL     1      -4.851   1.656  -2.784  0.00  0.00    +0.161 HD
BRANCH   6  16
ATOM     16  C   UNL     1      -7.566  -2.099  -1.920  0.00  0.00    -0.019 A 
ATOM     17  C   UNL     1      -8.828  -2.266  -1.331  0.00  0.00    +0.008 A 
ATOM     18  C   UNL     1      -9.297  -3.534  -1.066  0.00  0.00    +0.001 A 
ATOM     19  C   UNL     1      -8.527  -4.642  -1.379  0.00  0.00    +0.000 A 
ATOM     20  C   UNL     1      -7.279  -4.487  -1.961  0.00  0.00    +0.001 A 
ATOM     21  C   UNL     1      -6.796  -3.227  -2.238  0.00  0.00    +0.008 A 
ENDBRANCH   6  16
ENDBRANCH   2   5
BRANCH   1  24
ATOM     22  N   UNL     1      -1.204  -2.674  -0.373  0.00  0.00    -0.284 NA
ATOM     23  C   UNL     1      -1.974  -1.482   0.067  0.00  0.00    +0.107 C 
ATOM     24  C   UNL     1      -3.409  -2.006   0.290  0.00  0.00    +0.089 C 
ATOM     25  C   UNL     1      -3.247  -3.517   0.556  0.00  0.00    +0.054 C 
ATOM     26  C   UNL     1      -1.728  -3.779   0.472  0.00  0.00    +0.168 C 
BRANCH  26  27
ATOM     27  C   UNL     1      -1.460  -5.111  -0.180  0.00  0.00    +0.324 C 
ATOM     28  O   UNL     1      -0.889  -5.159  -1.244  0.00  0.00    -0.249 OA
BRANCH  27  29
ATOM     29  O   UNL     1      -1.854  -6.244   0.422  0.00  0.00    -0.467 OA
ATOM     30  C   UNL     1      -1.567  -7.471  -0.252  0.00  0.00    +0.280 C 
ENDBRANCH  27  29
ENDBRANCH  26  27
BRANCH  22  31
ATOM     31  C   UNL     1       0.235  -2.482  -0.154  0.00  0.00    +0.124 C 
BRANCH  31  37
ATOM     32  C   UNL     1       0.608  -0.165  -1.039  0.00  0.00    +0.124 A 
ATOM     33  C   UNL     1       1.113   0.706  -1.993  0.00  0.00    +0.046 A 
ATOM     34  C   UNL     1       1.781   0.209  -3.095  0.00  0.00    +0.004 A 
ATOM     35  C   UNL     1       1.946  -1.156  -3.248  0.00  0.00    +0.001 A 
ATOM     36  C   UNL     1       1.442  -2.026  -2.299  0.00  0.00    +0.008 A 
ATOM     37  C   UNL     1       0.779  -1.533  -1.192  0.00  0.00    +0.008 A 
BRANCH  32  39
ATOM     38  C   UNL     1      -0.188   1.741   0.138  0.00  0.00    +0.277 C 
ATOM     39  O   UNL     1      -0.050   0.322   0.046  0.00  0.00    -0.495 OA
ENDBRANCH  32  39
ENDBRANCH  31  37
ENDBRANCH  22  31
ENDBRANCH   1  24
TORSDOF 8
