REMARK  Name = ZINC35642517
REMARK  10 active torsions:
REMARK  status: ('A' for Active; 'I' for Inactive)
REMARK    1  A    between atoms: C_1  and  C_2
REMARK    2  A    between atoms: C_2  and  O_3
REMARK    3  A    between atoms: O_3  and  C_4
REMARK    4  A    between atoms: C_4  and  C_6
REMARK    5  A    between atoms: C_7  and  C_22
REMARK    6  A    between atoms: N_8  and  C_21
REMARK    7  A    between atoms: C_12  and  C_14
REMARK    8  A    between atoms: C_18  and  C_20
REMARK    9  A    between atoms: C_22  and  N_23
REMARK   10  A    between atoms: C_29  and  C_31
REMARK                            x       y       z     vdW  Elec       q    Type
REMARK                         _______ _______ _______ _____ _____    ______ ____
ROOT
ATOM      1  C   UNL     1      -2.739  -2.564   0.633  0.00  0.00    +0.080 C 
ATOM      2  C   UNL     1      -3.018  -3.794   0.150  0.00  0.00    +0.041 C 
ATOM      3  N   UNL     1      -4.253  -4.091  -0.352  0.00  0.00    -0.260 N 
ATOM      4  C   UNL     1      -5.263  -3.213  -0.406  0.00  0.00    +0.307 C 
ATOM      5  O   UNL     1      -6.328  -3.570  -0.871  0.00  0.00    -0.252 OA
ATOM      6  N   UNL     1      -5.137  -1.947   0.038  0.00  0.00    -0.288 N 
ATOM      7  C   UNL     1      -3.844  -1.528   0.605  0.00  0.00    +0.144 C 
ATOM      8  C   UNL     1      -4.486  -5.445  -0.859  0.00  0.00    +0.139 C 
ATOM      9  H   UNL     1      -5.881  -1.327  -0.011  0.00  0.00    +0.151 HD
ENDROOT
BRANCH   7  10
ATOM     10  C   UNL     1      -3.353  -0.347  -0.193  0.00  0.00    -0.022 A 
ATOM     11  C   UNL     1      -3.382  -0.387  -1.575  0.00  0.00    +0.006 A 
ATOM     12  C   UNL     1      -2.932   0.696  -2.307  0.00  0.00    +0.001 A 
ATOM     13  C   UNL     1      -2.453   1.818  -1.657  0.00  0.00    +0.003 A 
ATOM     14  C   UNL     1      -2.424   1.858  -0.276  0.00  0.00    -0.050 A 
ATOM     15  C   UNL     1      -2.878   0.776   0.456  0.00  0.00    +0.009 A 
ATOM     16  C   UNL     1      -1.901   3.081   0.432  0.00  0.00    +0.044 C 
ENDBRANCH   7  10
BRANCH   1  17
ATOM     17  C   UNL     1      -1.460  -2.256   1.153  0.00  0.00    +0.339 C 
ATOM     18  O   UNL     1      -0.614  -3.126   1.245  0.00  0.00    -0.245 OA
BRANCH  17  19
ATOM     19  O   UNL     1      -1.178  -0.997   1.548  0.00  0.00    -0.462 OA
BRANCH  19  21
ATOM     20  C   UNL     1       0.265   0.716   2.456  0.00  0.00    +0.048 C 
ATOM     21  C   UNL     1       0.133  -0.757   2.063  0.00  0.00    +0.229 C 
ENDBRANCH  19  21
ENDBRANCH  17  19
ENDBRANCH   1  17
BRANCH   2  22
ATOM     22  C   UNL     1      -1.949  -4.857   0.164  0.00  0.00    +0.136 C 
BRANCH  22  23
ATOM     23  N   UNL     1      -1.861  -5.445   1.507  0.00  0.00    -0.294 NA
ATOM     24  C   UNL     1      -3.110  -6.130   1.865  0.00  0.00    +0.104 C 
ATOM     25  C   UNL     1      -3.046  -6.570   3.331  0.00  0.00    +0.123 C 
ATOM     26  N   UNL     1      -1.823  -7.363   3.528  0.00  0.00    -0.299 N 
ATOM     27  C   UNL     1      -0.545  -6.798   3.068  0.00  0.00    +0.123 C 
ATOM     28  C   UNL     1      -0.708  -6.349   1.612  0.00  0.00    +0.104 C 
ATOM     29  C   UNL     1      -1.871  -8.576   4.115  0.00  0.00    +0.219 C 
ATOM     30  O   UNL     1      -2.933  -9.026   4.488  0.00  0.00    -0.275 OA
BRANCH  29  31
ATOM     31  C   UNL     1      -0.606  -9.371   4.306  0.00  0.00    +0.075 C 
ATOM     32  C   UNL     1       0.345  -8.648   5.292  0.00  0.00    +0.013 C 
ATOM     33  C   UNL     1       1.227  -9.804   5.826  0.00  0.00    +0.001 C 
ATOM     34  C   UNL     1       0.252 -10.992   5.962  0.00  0.00    +0.001 C 
ATOM     35  C   UNL     1      -0.913 -10.717   4.995  0.00  0.00    +0.013 C 
ENDBRANCH  29  31
ENDBRANCH  22  23
ENDBRANCH   2  22
TORSDOF 7
