REMARK  Name = ZINC00837019
REMARK  6 active torsions:
REMARK  status: ('A' for Active; 'I' for Inactive)
REMARK    1  A    between atoms: C_3  and  C_10
REMARK    2  A    between atoms: C_5  and  N_7
REMARK    3  A    between atoms: N_12  and  C_13
REMARK    4  A    between atoms: C_13  and  C_15
REMARK    5  A    between atoms: C_13  and  O_19
REMARK    6  A    between atoms: O_19  and  C_20
REMARK                            x       y       z     vdW  Elec       q    Type
REMARK                         _______ _______ _______ _____ _____    ______ ____
ROOT
ATOM      1  C   UNL     1       0.043   5.285   0.164  0.00  0.00    +0.247 C 
ATOM      2  O   UNL     1      -1.024   5.838   0.344  0.00  0.00    -0.270 OA
ATOM      3  N   UNL     1       1.162   6.019  -0.004  0.00  0.00    -0.273 N 
ATOM      4  H   UNL     1       2.024   5.580  -0.070  0.00  0.00    +0.153 HD
ENDROOT
BRANCH   1   7
ATOM      5  C   UNL     1       1.399   1.794  -0.108  0.00  0.00    +0.003 A 
ATOM      6  C   UNL     1       1.339   3.172  -0.077  0.00  0.00    +0.013 A 
ATOM      7  C   UNL     1       0.115   3.809   0.130  0.00  0.00    +0.039 A 
ATOM      8  C   UNL     1      -1.042   3.047   0.303  0.00  0.00    +0.045 A 
ATOM      9  C   UNL     1      -0.969   1.670   0.264  0.00  0.00    +0.127 A 
ATOM     10  C   UNL     1       0.249   1.044   0.064  0.00  0.00    +0.033 A 
BRANCH   9  11
ATOM     11  N   UNL     1      -2.195   0.860   0.441  0.00  0.00    +0.056 N 
ATOM     12  O   UNL     1      -2.131  -0.356   0.411  0.00  0.00    -0.126 OA
ATOM     13  O   UNL     1      -3.267   1.410   0.617  0.00  0.00    -0.126 OA
ENDBRANCH   9  11
ENDBRANCH   1   7
BRANCH   3  14
ATOM     14  C   UNL     1       1.075   7.479  -0.085  0.00  0.00    +0.314 C 
BRANCH  14  15
ATOM     15  C   UNL     1       2.085   7.993  -1.113  0.00  0.00    +0.244 C 
ATOM     16 CL   UNL     1       3.750   7.517  -0.609  0.00  0.00    -0.078 Cl
ATOM     17 CL   UNL     1       1.718   7.278  -2.727  0.00  0.00    -0.078 Cl
ATOM     18 CL   UNL     1       1.978   9.790  -1.214  0.00  0.00    -0.078 Cl
ENDBRANCH  14  15
BRANCH  14  19
ATOM     19  O   UNL     1       1.366   8.046   1.194  0.00  0.00    -0.467 OA
BRANCH  19  20
ATOM     20  C   UNL     1       0.655   9.146   1.557  0.00  0.00    +0.123 A 
ATOM     21  C   UNL     1      -0.229   9.729   0.661  0.00  0.00    +0.047 A 
ATOM     22  C   UNL     1      -0.955  10.843   1.035  0.00  0.00    +0.019 A 
ATOM     23  C   UNL     1      -0.792  11.384   2.298  0.00  0.00    +0.018 A 
ATOM     24  C   UNL     1       0.094  10.808   3.191  0.00  0.00    +0.019 A 
ATOM     25  C   UNL     1       0.817   9.690   2.823  0.00  0.00    +0.047 A 
ATOM     26 BR   UNL     1      -1.782  12.914   2.804  0.00  0.00    -0.050 Br
ENDBRANCH  19  20
ENDBRANCH  14  19
ENDBRANCH   3  14
TORSDOF 6
