REMARK  Name = ZINC38702044
REMARK  6 active torsions:
REMARK  status: ('A' for Active; 'I' for Inactive)
REMARK    1  A    between atoms: C_1  and  O_2
REMARK    2  A    between atoms: O_2  and  C_3
REMARK    3  A    between atoms: C_3  and  C_5
REMARK    4  A    between atoms: C_8  and  C_11
REMARK    5  A    between atoms: C_14  and  C_30
REMARK    6  A    between atoms: N_21  and  C_22
REMARK                            x       y       z     vdW  Elec       q    Type
REMARK                         _______ _______ _______ _____ _____    ______ ____
ROOT
ATOM      1  C   UNL     1      -1.413  -6.381  -0.019  0.00  0.00    +0.142 C 
ATOM      2  C   UNL     1      -1.725  -6.893   1.361  0.00  0.00    +0.035 A 
ATOM      3  C   UNL     1      -1.355  -6.975   2.665  0.00  0.00    +0.075 A 
ATOM      4  N   UNL     1      -2.319  -7.706   3.300  0.00  0.00    -0.276 N 
ATOM      5  N   UNL     1      -3.226  -8.058   2.460  0.00  0.00    -0.168 NA
ATOM      6  H   UNL     1      -2.318  -7.928   4.244  0.00  0.00    +0.189 HD
ATOM      7  C   UNL     1      -2.942  -7.604   1.256  0.00  0.00    +0.153 A 
ATOM      8  C   UNL     1      -3.382  -7.542  -0.150  0.00  0.00    +0.268 C 
ATOM      9  O   UNL     1      -4.397  -8.054  -0.582  0.00  0.00    -0.268 OA
ATOM     10  N   UNL     1      -2.504  -6.839  -0.887  0.00  0.00    -0.280 N 
ENDROOT
BRANCH   3  11
ATOM     11  C   UNL     1      -0.145  -6.387   3.279  0.00  0.00    +0.048 A 
ATOM     12  C   UNL     1       0.848  -7.215   3.803  0.00  0.00    +0.033 A 
ATOM     13  C   UNL     1       1.976  -6.661   4.374  0.00  0.00    +0.042 A 
ATOM     14  C   UNL     1       2.125  -5.285   4.430  0.00  0.00    +0.024 A 
ATOM     15  C   UNL     1       1.147  -4.456   3.914  0.00  0.00    +0.053 A 
ATOM     16  C   UNL     1       0.013  -4.998   3.332  0.00  0.00    +0.188 A 
ATOM     17  O   UNL     1      -0.946  -4.183   2.820  0.00  0.00    -0.287 OA
ATOM     18 CL   UNL     1       3.211  -7.692   5.026  0.00  0.00    -0.084 Cl
ENDBRANCH   3  11
BRANCH  10  19
ATOM     19  C   UNL     1      -2.618  -6.572  -2.323  0.00  0.00    +0.100 C 
ATOM     20  C   UNL     1      -3.932  -5.827  -2.610  0.00  0.00    +0.047 C 
ATOM     21  C   UNL     1      -4.216  -5.824  -4.131  0.00  0.00    +0.168 C 
ATOM     22  S   UNL     1      -3.384  -7.362  -4.700  0.00  0.00    -0.029 S 
ATOM     23  O   UNL     1      -2.340  -7.018  -5.601  0.00  0.00    -0.174 OA
ATOM     24  O   UNL     1      -4.372  -8.302  -5.101  0.00  0.00    -0.174 OA
ATOM     25  C   UNL     1      -2.642  -7.915  -3.107  0.00  0.00    +0.188 C 
ENDBRANCH  10  19
BRANCH   1  29
ATOM     26  C   UNL     1      -1.247  -2.108   0.003  0.00  0.00    +0.059 A 
ATOM     27  C   UNL     1      -0.068  -2.856  -0.007  0.00  0.00    +0.015 A 
ATOM     28  C   UNL     1      -0.129  -4.234  -0.014  0.00  0.00    +0.006 A 
ATOM     29  C   UNL     1      -1.354  -4.875  -0.011  0.00  0.00    -0.022 A 
ATOM     30  C   UNL     1      -2.527  -4.141  -0.002  0.00  0.00    +0.006 A 
ATOM     31  C   UNL     1      -2.481  -2.762   0.011  0.00  0.00    +0.015 A 
BRANCH  26  32
ATOM     32  C   UNL     1      -1.190  -0.632   0.010  0.00  0.00    +0.339 C 
ATOM     33  O   UNL     1      -2.217   0.016   0.023  0.00  0.00    -0.245 OA
BRANCH  32  35
ATOM     34  C   UNL     1      -0.017   1.425   0.010  0.00  0.00    +0.280 C 
ATOM     35  O   UNL     1       0.002  -0.004   0.002  0.00  0.00    -0.464 OA
ENDBRANCH  32  35
ENDBRANCH  26  32
ENDBRANCH   1  29
TORSDOF 5
