REMARK  Name = ZINC60362674
REMARK  9 active torsions:
REMARK  status: ('A' for Active; 'I' for Inactive)
REMARK    1  A    between atoms: C_1  and  C_2
REMARK    2  A    between atoms: C_2  and  C_3
REMARK    3  A    between atoms: C_2  and  C_4
REMARK    4  A    between atoms: C_7  and  N_10
REMARK    5  A    between atoms: C_14  and  S_15
REMARK    6  A    between atoms: S_15  and  C_16
REMARK    7  A    between atoms: C_16  and  C_17
REMARK    8  A    between atoms: N_19  and  C_20
REMARK    9  A    between atoms: C_27  and  N_29
REMARK                            x       y       z     vdW  Elec       q    Type
REMARK                         _______ _______ _______ _____ _____    ______ ____
ROOT
ATOM      1  C   UNL     1      -7.490  -0.862  -4.803  0.00  0.00    +0.224 C 
ATOM      2  O   UNL     1      -6.465  -0.337  -5.185  0.00  0.00    -0.275 OA
ATOM      3  N   UNL     1      -8.557  -0.931  -5.623  0.00  0.00    -0.312 N 
ATOM      4  H   UNL     1      -9.377  -1.351  -5.318  0.00  0.00    +0.149 HD
ENDROOT
BRANCH   3   5
ATOM      5  C   UNL     1      -8.480  -0.372  -6.975  0.00  0.00    +0.082 C 
ATOM      6  C   UNL     1      -7.830  -1.421  -7.906  0.00  0.00    +0.186 C 
ATOM      7  S   UNL     1      -9.318  -2.161  -8.709  0.00  0.00    -0.031 S 
ATOM      8  O   UNL     1      -9.882  -3.139  -7.845  0.00  0.00    -0.174 OA
ATOM      9  O   UNL     1      -9.007  -2.502 -10.053  0.00  0.00    -0.174 OA
ATOM     10  C   UNL     1     -10.375  -0.647  -8.690  0.00  0.00    +0.152 C 
ATOM     11  C   UNL     1      -9.877   0.048  -7.407  0.00  0.00    -0.025 C 
BRANCH  11  12
ATOM     12  N   UNL     1      -9.881   1.500  -7.634  0.00  0.00    +0.384 N 
ATOM     13  C   UNL     1      -9.504   2.188  -6.393  0.00  0.00    -0.078 C 
ATOM     14  C   UNL     1      -9.427   3.695  -6.645  0.00  0.00    -0.019 C 
ATOM     15  C   UNL     1     -10.795   4.199  -7.115  0.00  0.00    -0.004 C 
ATOM     16  C   UNL     1     -11.211   3.422  -8.367  0.00  0.00    -0.019 C 
ATOM     17  C   UNL     1     -11.222   1.925  -8.052  0.00  0.00    -0.078 C 
ATOM     18  H   UNL     1      -9.216   1.728  -8.357  0.00  0.00    -0.081 HD
ENDBRANCH  11  12
ENDBRANCH   3   5
BRANCH   1  19
ATOM     19  C   UNL     1      -7.569  -1.437  -3.412  0.00  0.00    +0.173 C 
BRANCH  19  20
ATOM     20  S   UNL     1      -5.985  -1.189  -2.564  0.00  0.00    -0.076 S 
BRANCH  20  25
ATOM     21  N   UNL     1      -5.323  -1.969   0.043  0.00  0.00    -0.277 N 
ATOM     22  C   UNL     1      -5.964  -2.602   1.075  0.00  0.00    +0.230 A 
ATOM     23  N   UNL     1      -7.168  -2.886   0.667  0.00  0.00    -0.137 NA
ATOM     24  N   UNL     1      -7.334  -2.481  -0.541  0.00  0.00    -0.122 NA
ATOM     25  C   UNL     1      -6.236  -1.905  -0.974  0.00  0.00    +0.196 A 
BRANCH  21  29
ATOM     26  C   UNL     1      -1.412  -0.526   0.013  0.00  0.00    -0.045 A 
ATOM     27  C   UNL     1      -2.258  -0.203   1.058  0.00  0.00    +0.006 A 
ATOM     28  C   UNL     1      -3.555  -0.680   1.070  0.00  0.00    +0.026 A 
ATOM     29  C   UNL     1      -4.007  -1.483   0.032  0.00  0.00    +0.050 A 
ATOM     30  C   UNL     1      -3.155  -1.805  -1.015  0.00  0.00    +0.026 A 
ATOM     31  C   UNL     1      -1.862  -1.321  -1.025  0.00  0.00    +0.006 A 
BRANCH  26  33
ATOM     32  C   UNL     1      -0.019   1.526   0.010  0.00  0.00    +0.012 C 
ATOM     33  C   UNL     1       0.002  -0.004   0.002  0.00  0.00    +0.013 C 
ATOM     34  C   UNL     1       0.742  -0.511   1.242  0.00  0.00    +0.012 C 
ENDBRANCH  26  33
ENDBRANCH  21  29
ENDBRANCH  20  25
ENDBRANCH  19  20
ENDBRANCH   1  19
TORSDOF 7
