REMARK  Name = ZINC14538303
REMARK  8 active torsions:
REMARK  status: ('A' for Active; 'I' for Inactive)
REMARK    1  A    between atoms: C_4  and  C_7
REMARK    2  A    between atoms: C_7  and  C_8
REMARK    3  A    between atoms: C_8  and  N_9
REMARK    4  A    between atoms: N_12  and  C_28
REMARK    5  A    between atoms: C_20  and  C_21
REMARK    6  A    between atoms: C_20  and  N_66
REMARK    7  A    between atoms: C_26  and  O_27
REMARK    8  A    between atoms: C_28  and  C_29
REMARK                            x       y       z     vdW  Elec       q    Type
REMARK                         _______ _______ _______ _____ _____    ______ ____
ROOT
ATOM      1  N   UNL     1      -3.066  -0.323   3.329  0.00  0.00    -0.271 N 
ATOM      2  C   UNL     1      -2.785  -0.379   2.013  0.00  0.00    +0.312 C 
ATOM      3  O   UNL     1      -2.270  -1.337   1.471  0.00  0.00    -0.252 OA
ATOM      4  N   UNL     1      -3.136   0.742   1.368  0.00  0.00    -0.220 N 
ATOM      5  C   UNL     1      -3.691   1.643   2.205  0.00  0.00    +0.247 C 
ATOM      6  O   UNL     1      -4.111   2.745   1.923  0.00  0.00    -0.273 OA
ATOM      7  C   UNL     1      -3.679   0.989   3.567  0.00  0.00    +0.112 C 
ATOM      8  C   UNL     1      -5.102   0.827   4.094  0.00  0.00    +0.017 C 
ATOM      9  C   UNL     1      -5.057   0.188   5.485  0.00  0.00    -0.076 C 
ATOM     10  C   UNL     1      -2.867   1.133   5.920  0.00  0.00    -0.076 C 
ATOM     11  C   UNL     1      -2.838   1.805   4.544  0.00  0.00    +0.017 C 
ATOM     12  N   UNL     1      -4.269   1.056   6.385  0.00  0.00    +0.383 N 
ATOM     13  H   UNL     1      -4.674   2.000   6.376  0.00  0.00    -0.081 HD
ENDROOT
BRANCH   1  14
ATOM     14  C   UNL     1      -2.813  -1.367   4.325  0.00  0.00    +0.115 C 
BRANCH  14  15
ATOM     15  C   UNL     1      -1.304  -1.549   4.501  0.00  0.00    +0.054 C 
BRANCH  15  19
ATOM     16  C   UNL     1      -0.563  -4.818   7.150  0.00  0.00    +0.000 A 
ATOM     17  C   UNL     1      -0.563  -5.022   5.782  0.00  0.00    +0.000 A 
ATOM     18  C   UNL     1      -0.803  -3.964   4.925  0.00  0.00    +0.004 A 
ATOM     19  C   UNL     1      -1.042  -2.702   5.436  0.00  0.00    -0.046 A 
ATOM     20  C   UNL     1      -1.037  -2.496   6.803  0.00  0.00    +0.004 A 
ATOM     21  C   UNL     1      -0.802  -3.555   7.660  0.00  0.00    +0.000 A 
ENDBRANCH  15  19
ENDBRANCH  14  15
ENDBRANCH   1  14
BRANCH  12  22
ATOM     22  C   UNL     1      -4.314   0.527   7.763  0.00  0.00    -0.039 C 
BRANCH  22  23
ATOM     23  C   UNL     1      -5.682   0.794   8.338  0.00  0.00    -0.022 A 
ATOM     24  C   UNL     1      -5.905   1.930   9.092  0.00  0.00    +0.005 A 
ATOM     25  C   UNL     1      -7.161   2.178   9.616  0.00  0.00    +0.000 A 
ATOM     26  C   UNL     1      -8.193   1.285   9.394  0.00  0.00    +0.004 A 
ATOM     27  C   UNL     1      -7.973   0.145   8.645  0.00  0.00    +0.045 A 
ATOM     28  C   UNL     1      -6.715  -0.103   8.114  0.00  0.00    +0.118 A 
BRANCH  28  29
ATOM     29  O   UNL     1      -6.497  -1.224   7.377  0.00  0.00    -0.507 OA
ATOM     30  H   UNL     1      -6.285  -2.006   7.904  0.00  0.00    +0.292 HD
ENDBRANCH  28  29
ENDBRANCH  22  23
ENDBRANCH  12  22
BRANCH   4  31
ATOM     31  C   UNL     1      -2.945   0.959  -0.068  0.00  0.00    +0.153 C 
BRANCH  31  32
ATOM     32  C   UNL     1      -1.597   1.589  -0.306  0.00  0.00    -0.030 A 
ATOM     33  C   UNL     1      -0.488   0.790  -0.515  0.00  0.00    +0.005 A 
ATOM     34  C   UNL     1       0.748   1.367  -0.739  0.00  0.00    +0.000 A 
ATOM     35  C   UNL     1       0.876   2.743  -0.749  0.00  0.00    +0.000 A 
ATOM     36  C   UNL     1      -0.232   3.542  -0.534  0.00  0.00    +0.000 A 
ATOM     37  C   UNL     1      -1.467   2.965  -0.310  0.00  0.00    +0.005 A 
ENDBRANCH  31  32
ENDBRANCH   4  31
TORSDOF 8
