REMARK  Name = ZINC59057830
REMARK  10 active torsions:
REMARK  status: ('A' for Active; 'I' for Inactive)
REMARK    1  A    between atoms: C_1  and  C_2
REMARK    2  A    between atoms: C_5  and  C_35
REMARK    3  A    between atoms: N_8  and  C_10
REMARK    4  A    between atoms: C_10  and  C_11
REMARK    5  A    between atoms: C_14  and  C_17
REMARK    6  A    between atoms: C_17  and  N_18
REMARK    7  A    between atoms: C_19  and  C_21
REMARK    8  A    between atoms: C_21  and  C_22
REMARK    9  A    between atoms: C_22  and  C_23
REMARK   10  A    between atoms: C_26  and  C_28
REMARK                            x       y       z     vdW  Elec       q    Type
REMARK                         _______ _______ _______ _____ _____    ______ ____
ROOT
ATOM      1  N   UNL     1       7.205  -0.064   0.580  0.00  0.00    -0.311 N 
ATOM      2  C   UNL     1       8.415   0.422   0.237  0.00  0.00    +0.214 C 
ATOM      3  O   UNL     1       9.372   0.229   0.956  0.00  0.00    -0.276 OA
ATOM      4  H   UNL     1       6.440   0.090   0.004  0.00  0.00    +0.149 HD
ENDROOT
BRANCH   1   5
ATOM      5  C   UNL     1       7.047  -0.825   1.821  0.00  0.00    +0.139 C 
BRANCH   5   9
ATOM      6  C   UNL     1       2.971  -2.034   2.241  0.00  0.00    -0.064 A 
ATOM      7  C   UNL     1       3.870  -2.852   1.582  0.00  0.00    +0.002 A 
ATOM      8  C   UNL     1       5.189  -2.460   1.446  0.00  0.00    +0.005 A 
ATOM      9  C   UNL     1       5.609  -1.252   1.969  0.00  0.00    -0.030 A 
ATOM     10  C   UNL     1       4.710  -0.434   2.628  0.00  0.00    +0.005 A 
ATOM     11  C   UNL     1       3.390  -0.823   2.760  0.00  0.00    +0.002 A 
BRANCH   6  12
ATOM     12  C   UNL     1       1.534  -2.461   2.390  0.00  0.00    -0.043 C 
BRANCH  12  18
ATOM     13  C   UNL     1      -0.019   1.526   0.010  0.00  0.00    +0.005 C 
ATOM     14  C   UNL     1       0.002  -0.004   0.002  0.00  0.00    -0.031 C 
ATOM     15  C   UNL     1      -1.434  -0.535   0.015  0.00  0.00    +0.003 C 
ATOM     16  C   UNL     1      -1.402  -2.064   0.086  0.00  0.00    -0.031 C 
ATOM     17  C   UNL     1      -0.613  -2.496   1.324  0.00  0.00    -0.075 C 
ATOM     18  N   UNL     1       0.758  -1.980   1.239  0.00  0.00    +0.383 N 
ATOM     19  C   UNL     1       0.740  -0.512   1.242  0.00  0.00    -0.075 C 
ATOM     20  C   UNL     1      -0.728  -2.620  -1.170  0.00  0.00    +0.005 C 
ATOM     21  H   UNL     1       1.188  -2.307   0.386  0.00  0.00    -0.081 HD
ENDBRANCH  12  18
ENDBRANCH   6  12
ENDBRANCH   5   9
ENDBRANCH   1   5
BRANCH   2  22
ATOM     22  C   UNL     1       8.578   1.205  -1.040  0.00  0.00    +0.105 C 
BRANCH  22  23
ATOM     23  C   UNL     1      10.038   1.638  -1.190  0.00  0.00    +0.105 C 
BRANCH  23  24
ATOM     24  C   UNL     1      10.201   2.421  -2.467  0.00  0.00    +0.197 A 
ATOM     25  N   UNL     1      10.076   3.713  -2.583  0.00  0.00    -0.221 NA
ATOM     26  C   UNL     1      10.291   4.058  -3.862  0.00  0.00    +0.161 A 
ATOM     27  C   UNL     1      10.558   2.919  -4.552  0.00  0.00    +0.155 A 
ATOM     28  O   UNL     1      10.504   1.902  -3.665  0.00  0.00    -0.440 OA
BRANCH  27  29
ATOM     29  C   UNL     1      10.857   2.814  -5.996  0.00  0.00    +0.019 A 
ATOM     30  C   UNL     1      11.108   1.567  -6.571  0.00  0.00    +0.014 A 
ATOM     31  C   UNL     1      11.386   1.474  -7.918  0.00  0.00    +0.039 A 
ATOM     32  C   UNL     1      11.417   2.617  -8.702  0.00  0.00    +0.123 A 
ATOM     33  C   UNL     1      11.169   3.858  -8.137  0.00  0.00    +0.039 A 
ATOM     34  C   UNL     1      10.884   3.961  -6.791  0.00  0.00    +0.014 A 
ATOM     35  F   UNL     1      11.690   2.521 -10.022  0.00  0.00    -0.205 F 
ENDBRANCH  27  29
ENDBRANCH  23  24
ENDBRANCH  22  23
ENDBRANCH   2  22
TORSDOF 8
