REMARK  Name = ZINC25160534
REMARK  6 active torsions:
REMARK  status: ('A' for Active; 'I' for Inactive)
REMARK    1  A    between atoms: C_1  and  O_2
REMARK    2  A    between atoms: O_2  and  C_3
REMARK    3  A    between atoms: C_13  and  C_28
REMARK    4  A    between atoms: C_18  and  C_20
REMARK    5  A    between atoms: C_31  and  O_34
REMARK    6  A    between atoms: O_34  and  C_35
REMARK                            x       y       z     vdW  Elec       q    Type
REMARK                         _______ _______ _______ _____ _____    ______ ____
ROOT
ATOM      1  C   UNL     1      -2.750  -1.454  -5.104  0.00  0.00    +0.121 A 
ATOM      2  C   UNL     1      -1.534  -1.077  -5.660  0.00  0.00    +0.047 A 
ATOM      3  C   UNL     1      -0.485  -0.609  -4.891  0.00  0.00    +0.030 A 
ATOM      4  C   UNL     1      -0.693  -0.526  -3.515  0.00  0.00    +0.047 A 
ATOM      5  C   UNL     1      -1.933  -0.911  -2.945  0.00  0.00    +0.007 A 
ATOM      6  C   UNL     1      -2.984  -1.382  -3.739  0.00  0.00    +0.056 A 
ATOM      7  C   UNL     1      -1.801  -0.700  -1.517  0.00  0.00    -0.015 A 
ATOM      8  C   UNL     1      -0.556  -0.221  -1.303  0.00  0.00    +0.046 A 
ATOM      9  N   UNL     1       0.115  -0.115  -2.492  0.00  0.00    -0.356 N 
ATOM     10  H   UNL     1       1.138   0.231  -2.703  0.00  0.00    +0.166 HD
ATOM     11  C   UNL     1      -0.023   0.134   0.067  0.00  0.00    +0.153 C 
ATOM     12  N   UNL     1      -0.975  -0.390   1.062  0.00  0.00    -0.285 N 
ATOM     13  C   UNL     1      -2.413  -0.185   0.825  0.00  0.00    +0.114 C 
ATOM     14  C   UNL     1      -2.823  -0.951  -0.438  0.00  0.00    +0.056 C 
ATOM     15  C   UNL     1      -0.541  -1.039   2.160  0.00  0.00    +0.247 C 
ATOM     16  O   UNL     1       0.651  -1.118   2.388  0.00  0.00    -0.270 OA
ENDROOT
BRANCH  15  17
ATOM     17  C   UNL     1      -1.513  -1.655   3.088  0.00  0.00    +0.040 A 
ATOM     18  C   UNL     1      -1.337  -1.537   4.467  0.00  0.00    +0.033 A 
ATOM     19  C   UNL     1      -2.251  -2.111   5.329  0.00  0.00    +0.043 A 
ATOM     20  C   UNL     1      -3.335  -2.810   4.827  0.00  0.00    +0.040 A 
ATOM     21  C   UNL     1      -3.513  -2.934   3.460  0.00  0.00    +0.043 A 
ATOM     22  C   UNL     1      -2.608  -2.361   2.588  0.00  0.00    +0.033 A 
ATOM     23 CL   UNL     1      -4.876  -3.813   2.840  0.00  0.00    -0.083 Cl
ATOM     24 CL   UNL     1      -2.035  -1.961   7.045  0.00  0.00    -0.083 Cl
ENDBRANCH  15  17
BRANCH  11  25
ATOM     25  C   UNL     1       0.086   1.631   0.202  0.00  0.00    -0.021 A 
ATOM     26  C   UNL     1      -1.018   2.428  -0.039  0.00  0.00    +0.009 A 
ATOM     27  C   UNL     1      -0.922   3.800   0.090  0.00  0.00    +0.046 A 
ATOM     28  C   UNL     1       0.287   4.379   0.449  0.00  0.00    +0.127 A 
ATOM     29  C   UNL     1       1.394   3.577   0.685  0.00  0.00    +0.046 A 
ATOM     30  C   UNL     1       1.292   2.205   0.561  0.00  0.00    +0.009 A 
BRANCH  28  31
ATOM     31  O   UNL     1       0.385   5.729   0.571  0.00  0.00    -0.434 OA
BRANCH  31  32
ATOM     32  C   UNL     1      -0.796   6.491   0.314  0.00  0.00    +0.541 C 
ATOM     33  F   UNL     1      -1.222   6.263  -0.999  0.00  0.00    -0.166 F 
ATOM     34  F   UNL     1      -1.803   6.106   1.205  0.00  0.00    -0.166 F 
ENDBRANCH  31  32
ENDBRANCH  28  31
ENDBRANCH  11  25
BRANCH   1  36
ATOM     35  C   UNL     1      -3.451  -1.963  -7.319  0.00  0.00    +0.277 C 
ATOM     36  O   UNL     1      -3.739  -1.907  -5.921  0.00  0.00    -0.495 OA
ENDBRANCH   1  36
TORSDOF 5
