REMARK  Name = ZINC36588619
REMARK  13 active torsions:
REMARK  status: ('A' for Active; 'I' for Inactive)
REMARK    1  A    between atoms: C_1  and  C_2
REMARK    2  A    between atoms: C_2  and  C_3
REMARK    3  A    between atoms: C_2  and  C_4
REMARK    4  A    between atoms: C_2  and  N_5
REMARK    5  A    between atoms: N_5  and  C_6
REMARK    6  A    between atoms: C_6  and  C_8
REMARK    7  A    between atoms: C_6  and  C_15
REMARK    8  A    between atoms: C_11  and  O_14
REMARK    9  A    between atoms: N_17  and  C_18
REMARK   10  A    between atoms: C_24  and  C_26
REMARK   11  A    between atoms: C_26  and  C_27
REMARK   12  A    between atoms: C_26  and  C_33
REMARK   13  A    between atoms: C_26  and  O_39
REMARK                            x       y       z     vdW  Elec       q    Type
REMARK                         _______ _______ _______ _____ _____    ______ ____
ROOT
ATOM      1  N   UNL     1       1.079  -0.860  -0.489  0.00  0.00    -0.278 N 
ATOM      2  C   UNL     1       1.220  -1.822  -1.423  0.00  0.00    +0.258 C 
ATOM      3  O   UNL     1       2.321  -2.260  -1.680  0.00  0.00    -0.272 OA
ENDROOT
BRANCH   1   5
ATOM      4  C   UNL     1      -0.595   0.750  -1.256  0.00  0.00    +0.031 C 
ATOM      5  C   UNL     1      -0.247  -0.305  -0.204  0.00  0.00    +0.030 C 
ATOM      6  C   UNL     1      -0.241   0.341   1.183  0.00  0.00    +0.031 C 
ATOM      7  C   UNL     1      -1.288  -1.425  -0.241  0.00  0.00    +0.031 C 
ENDBRANCH   1   5
BRANCH   1   8
ATOM      8  C   UNL     1       2.251  -0.369   0.240  0.00  0.00    +0.193 C 
BRANCH   8   9
ATOM      9  C   UNL     1       2.843  -1.492   1.053  0.00  0.00    -0.018 A 
ATOM     10  C   UNL     1       2.628  -2.804   0.676  0.00  0.00    +0.009 A 
ATOM     11  C   UNL     1       3.170  -3.835   1.420  0.00  0.00    +0.046 A 
ATOM     12  C   UNL     1       3.929  -3.552   2.545  0.00  0.00    +0.117 A 
ATOM     13  C   UNL     1       4.143  -2.233   2.921  0.00  0.00    +0.046 A 
ATOM     14  C   UNL     1       3.604  -1.206   2.171  0.00  0.00    +0.009 A 
BRANCH  12  15
ATOM     15  O   UNL     1       4.462  -4.564   3.279  0.00  0.00    -0.507 OA
ATOM     16  H   UNL     1       5.346  -4.833   2.994  0.00  0.00    +0.292 HD
ENDBRANCH  12  15
ENDBRANCH   8   9
BRANCH   8  17
ATOM     17  C   UNL     1       3.277   0.136  -0.741  0.00  0.00    +0.238 C 
ATOM     18  O   UNL     1       3.020   0.168  -1.926  0.00  0.00    -0.273 OA
ATOM     19  N   UNL     1       4.481   0.553  -0.302  0.00  0.00    -0.311 N 
ATOM     20  H   UNL     1       4.687   0.527   0.645  0.00  0.00    +0.149 HD
BRANCH  19  21
ATOM     21  C   UNL     1       5.479   1.044  -1.256  0.00  0.00    +0.073 C 
ATOM     22  C   UNL     1       6.261  -0.139  -1.830  0.00  0.00    +0.022 C 
ATOM     23  C   UNL     1       7.303   0.374  -2.826  0.00  0.00    +0.002 C 
ATOM     24  C   UNL     1       8.267   1.324  -2.112  0.00  0.00    +0.000 C 
ATOM     25  C   UNL     1       7.485   2.507  -1.538  0.00  0.00    +0.002 C 
ATOM     26  C   UNL     1       6.443   1.994  -0.542  0.00  0.00    +0.022 C 
ENDBRANCH  19  21
ENDBRANCH   8  17
ENDBRANCH   1   8
BRANCH   2  27
ATOM     27  C   UNL     1       0.009  -2.353  -2.146  0.00  0.00    +0.192 C 
BRANCH  27  28
ATOM     28  C   UNL     1      -0.698  -1.220  -2.842  0.00  0.00    -0.003 A 
ATOM     29  C   UNL     1       0.026  -0.307  -3.587  0.00  0.00    +0.007 A 
ATOM     30  C   UNL     1      -0.623   0.733  -4.226  0.00  0.00    +0.000 A 
ATOM     31  C   UNL     1      -1.995   0.861  -4.121  0.00  0.00    +0.000 A 
ATOM     32  C   UNL     1      -2.719  -0.052  -3.377  0.00  0.00    +0.000 A 
ATOM     33  C   UNL     1      -2.071  -1.095  -2.741  0.00  0.00    +0.007 A 
ENDBRANCH  27  28
BRANCH  27  34
ATOM     34  C   UNL     1       0.441  -3.377  -3.164  0.00  0.00    -0.003 A 
ATOM     35  C   UNL     1       1.687  -3.281  -3.755  0.00  0.00    +0.007 A 
ATOM     36  C   UNL     1       2.083  -4.220  -4.689  0.00  0.00    +0.000 A 
ATOM     37  C   UNL     1       1.234  -5.255  -5.031  0.00  0.00    +0.000 A 
ATOM     38  C   UNL     1      -0.011  -5.353  -4.439  0.00  0.00    +0.000 A 
ATOM     39  C   UNL     1      -0.406  -4.416  -3.502  0.00  0.00    +0.007 A 
ENDBRANCH  27  34
BRANCH  27  40
ATOM     40  O   UNL     1      -0.878  -2.962  -1.205  0.00  0.00    -0.371 OA
ATOM     41  H   UNL     1      -0.516  -3.749  -0.775  0.00  0.00    +0.212 HD
ENDBRANCH  27  40
ENDBRANCH   2  27
TORSDOF 10
