REMARK  Name = ZINC43771916
REMARK  12 active torsions:
REMARK  status: ('A' for Active; 'I' for Inactive)
REMARK    1  A    between atoms: C_1  and  C_2
REMARK    2  A    between atoms: C_2  and  C_3
REMARK    3  A    between atoms: C_16  and  O_35
REMARK    4  A    between atoms: N_19  and  C_34
REMARK    5  A    between atoms: C_22  and  C_29
REMARK    6  A    between atoms: C_22  and  O_33
REMARK    7  A    between atoms: C_23  and  O_25
REMARK    8  A    between atoms: O_25  and  C_26
REMARK    9  A    between atoms: C_26  and  C_28
REMARK   10  A    between atoms: C_29  and  O_31
REMARK   11  A    between atoms: O_31  and  C_32
REMARK   12  A    between atoms: O_35  and  C_36
REMARK                            x       y       z     vdW  Elec       q    Type
REMARK                         _______ _______ _______ _____ _____    ______ ____
ROOT
ATOM      1  C   UNL     1      -1.391  -0.308  -0.171  0.00  0.00    +0.018 C 
ATOM      2  C   UNL     1      -2.188   0.100  -1.373  0.00  0.00    -0.024 C 
ATOM      3  C   UNL     1      -2.709  -0.764  -2.191  0.00  0.00    -0.049 C 
ATOM      4  C   UNL     1      -2.567  -2.241  -1.979  0.00  0.00    -0.051 C 
ATOM      5  N   UNL     1      -1.314  -2.556  -1.287  0.00  0.00    +0.385 N 
ATOM      6  C   UNL     1      -1.171  -1.772  -0.058  0.00  0.00    -0.042 C 
ATOM      7  C   UNL     1      -1.676  -2.548   1.122  0.00  0.00    +0.007 C 
ATOM      8  C   UNL     1      -2.177  -3.892   0.519  0.00  0.00    -0.007 C 
ATOM      9  C   UNL     1      -1.397  -3.975  -0.840  0.00  0.00    -0.077 C 
ATOM     10  C   UNL     1      -0.592  -2.856   2.117  0.00  0.00    -0.020 A 
ATOM     11  C   UNL     1       0.630  -3.474   1.929  0.00  0.00    +0.009 A 
ATOM     12  C   UNL     1       1.422  -3.666   3.053  0.00  0.00    +0.046 A 
ATOM     13  C   UNL     1       1.004  -3.257   4.308  0.00  0.00    +0.122 A 
ATOM     14  C   UNL     1      -0.217  -2.620   4.502  0.00  0.00    +0.069 A 
ATOM     15  C   UNL     1      -1.011  -2.407   3.373  0.00  0.00    +0.037 A 
ATOM     16  N   UNL     1      -2.204  -1.708   3.283  0.00  0.00    -0.325 N 
ATOM     17  C   UNL     1      -2.799  -1.935   1.948  0.00  0.00    +0.128 C 
ATOM     18  C   UNL     1      -3.271  -0.592   1.407  0.00  0.00    +0.219 C 
ATOM     19  C   UNL     1      -2.052   0.274   1.081  0.00  0.00    +0.229 C 
ATOM     20  C   UNL     1      -2.784  -0.878   4.342  0.00  0.00    +0.129 C 
ATOM     21  H   UNL     1      -0.527  -2.425  -1.905  0.00  0.00    -0.081 HD
ENDROOT
BRANCH   1  23
ATOM     22  C   UNL     1      -0.181   1.864  -0.419  0.00  0.00    +0.005 C 
ATOM     23  C   UNL     1      -0.014   0.348  -0.299  0.00  0.00    +0.010 C 
ENDBRANCH   1  23
BRANCH  18  24
ATOM     24  C   UNL     1      -4.117   0.100   2.446  0.00  0.00    +0.345 C 
ATOM     25  O   UNL     1      -4.049   1.299   2.579  0.00  0.00    -0.247 OA
BRANCH  24  26
ATOM     26  O   UNL     1      -4.945  -0.616   3.222  0.00  0.00    -0.466 OA
ATOM     27  C   UNL     1      -5.717   0.104   4.185  0.00  0.00    +0.280 C 
ENDBRANCH  24  26
ENDBRANCH  18  24
BRANCH  18  28
ATOM     28  O   UNL     1      -4.042  -0.798   0.222  0.00  0.00    -0.373 OA
ATOM     29  H   UNL     1      -4.376   0.017  -0.177  0.00  0.00    +0.211 HD
ENDBRANCH  18  28
BRANCH  13  30
ATOM     30  O   UNL     1       1.808  -3.485   5.380  0.00  0.00    -0.495 OA
ATOM     31  C   UNL     1       3.052  -4.143   5.129  0.00  0.00    +0.277 C 
ENDBRANCH  13  30
BRANCH  19  32
ATOM     32  O   UNL     1      -1.127   0.257   2.170  0.00  0.00    -0.457 OA
BRANCH  32  33
ATOM     33  C   UNL     1      -1.259   1.218   3.098  0.00  0.00    +0.304 C 
ATOM     34  O   UNL     1      -2.131   2.047   2.989  0.00  0.00    -0.251 OA
ATOM     35  C   UNL     1      -0.319   1.263   4.275  0.00  0.00    +0.136 C 
ENDBRANCH  32  33
ENDBRANCH  19  32
TORSDOF 7
