REMARK  Name = ZINC01784818
REMARK  4 active torsions:
REMARK  status: ('A' for Active; 'I' for Inactive)
REMARK    1  A    between atoms: C_1  and  C_2
REMARK    2  A    between atoms: N_13  and  C_16
REMARK    3  A    between atoms: C_16  and  C_17
REMARK    4  A    between atoms: N_19  and  N_20
REMARK                            x       y       z     vdW  Elec       q    Type
REMARK                         _______ _______ _______ _____ _____    ______ ____
ROOT
ATOM      1  C   UNL     1       5.279   3.714   0.059  0.00  0.00    +0.008 C 
ATOM      2  C   UNL     1       3.881   3.170   0.359  0.00  0.00    -0.009 C 
ATOM      3  C   UNL     1       2.843   3.938  -0.464  0.00  0.00    +0.008 C 
ATOM      4  C   UNL     1       1.434   3.577   0.007  0.00  0.00    +0.037 C 
ATOM      5  C   UNL     1       1.287   2.058   0.001  0.00  0.00    -0.023 A 
ATOM      6  C   UNL     1       2.377   1.259  -0.014  0.00  0.00    -0.004 A 
ATOM      7  S   UNL     1       1.735  -0.393  -0.017  0.00  0.00    -0.071 S 
ATOM      8  C   UNL     1       0.002  -0.004   0.002  0.00  0.00    +0.138 A 
ATOM      9  C   UNL     1      -0.017   1.399   0.010  0.00  0.00    +0.079 A 
ATOM     10  C   UNL     1      -1.317   2.008   0.020  0.00  0.00    +0.279 A 
ATOM     11  O   UNL     1      -1.434   3.221   0.027  0.00  0.00    -0.265 OA
ATOM     12  N   UNL     1      -2.405   1.214   0.032  0.00  0.00    -0.201 N 
ATOM     13  N   UNL     1      -2.273  -0.178   0.024  0.00  0.00    -0.061 NA
ATOM     14  N   UNL     1      -1.110  -0.733   0.009  0.00  0.00    -0.123 NA
ATOM     15  C   UNL     1       3.813   1.685  -0.024  0.00  0.00    +0.046 C 
ENDROOT
BRANCH  12  16
ATOM     16  C   UNL     1      -3.740   1.816   0.047  0.00  0.00    +0.246 C 
BRANCH  16  17
ATOM     17  C   UNL     1      -4.212   2.029  -1.369  0.00  0.00    +0.248 C 
ATOM     18  O   UNL     1      -3.502   1.710  -2.299  0.00  0.00    -0.272 OA
ATOM     19  N   UNL     1      -5.422   2.574  -1.601  0.00  0.00    -0.252 N 
ATOM     20  H   UNL     1      -5.990   2.829  -0.857  0.00  0.00    +0.169 HD
BRANCH  19  21
ATOM     21  N   UNL     1      -5.849   2.768  -2.884  0.00  0.00    -0.254 NA
ATOM     22  H   UNL     1      -5.832   1.903  -3.405  0.00  0.00    +0.140 HD
ATOM     23  H   UNL     1      -6.769   3.182  -2.900  0.00  0.00    +0.140 HD
ENDBRANCH  19  21
ENDBRANCH  16  17
ENDBRANCH  12  16
TORSDOF 3
