REMARK  Name = ZINC45540998
REMARK  9 active torsions:
REMARK  status: ('A' for Active; 'I' for Inactive)
REMARK    1  A    between atoms: C_1  and  C_2
REMARK    2  A    between atoms: C_5  and  N_8
REMARK    3  A    between atoms: C_9  and  C_30
REMARK    4  A    between atoms: C_12  and  S_13
REMARK    5  A    between atoms: S_13  and  C_14
REMARK    6  A    between atoms: C_14  and  C_15
REMARK    7  A    between atoms: C_15  and  C_17
REMARK    8  A    between atoms: C_18  and  N_29
REMARK    9  A    between atoms: N_19  and  C_26
REMARK                            x       y       z     vdW  Elec       q    Type
REMARK                         _______ _______ _______ _____ _____    ______ ____
ROOT
ATOM      1  S   UNL     1       2.106  -4.489  -2.749  0.00  0.00    -0.079 S 
ENDROOT
BRANCH   1   6
ATOM      2  N   UNL     1      -0.668  -4.302  -2.551  0.00  0.00    -0.287 N 
ATOM      3  C   UNL     1      -1.751  -5.164  -2.482  0.00  0.00    +0.074 A 
ATOM      4  C   UNL     1      -1.246  -6.426  -2.516  0.00  0.00    +0.140 A 
ATOM      5  N   UNL     1       0.087  -6.342  -2.603  0.00  0.00    -0.229 NA
ATOM      6  C   UNL     1       0.450  -5.079  -2.632  0.00  0.00    +0.174 A 
BRANCH   2  11
ATOM      7  C   UNL     1      -0.853   1.370  -2.532  0.00  0.00    +0.044 C 
ATOM      8  C   UNL     1      -0.804  -0.136  -2.537  0.00  0.00    -0.050 A 
ATOM      9  C   UNL     1      -0.352  -0.808  -3.658  0.00  0.00    +0.005 A 
ATOM     10  C   UNL     1      -0.306  -2.188  -3.666  0.00  0.00    +0.026 A 
ATOM     11  C   UNL     1      -0.713  -2.901  -2.546  0.00  0.00    +0.049 A 
ATOM     12  C   UNL     1      -1.166  -2.224  -1.422  0.00  0.00    +0.026 A 
ATOM     13  C   UNL     1      -1.204  -0.844  -1.419  0.00  0.00    +0.005 A 
ENDBRANCH   2  11
BRANCH   3  14
ATOM     14  C   UNL     1      -3.176  -4.786  -2.387  0.00  0.00    +0.000 A 
ATOM     15  C   UNL     1      -3.552  -3.444  -2.472  0.00  0.00    +0.010 A 
ATOM     16  C   UNL     1      -4.885  -3.097  -2.383  0.00  0.00    +0.001 A 
ATOM     17  C   UNL     1      -5.847  -4.076  -2.211  0.00  0.00    +0.000 A 
ATOM     18  C   UNL     1      -5.481  -5.408  -2.126  0.00  0.00    +0.001 A 
ATOM     19  C   UNL     1      -4.153  -5.769  -2.219  0.00  0.00    +0.010 A 
ENDBRANCH   3  14
ENDBRANCH   1   6
BRANCH   1  20
ATOM     20  C   UNL     1       3.107  -6.000  -2.822  0.00  0.00    +0.157 C 
BRANCH  20  21
ATOM     21  C   UNL     1       4.565  -5.632  -2.925  0.00  0.00    +0.182 C 
ATOM     22  O   UNL     1       4.896  -4.464  -2.948  0.00  0.00    -0.291 OA
BRANCH  21  23
ATOM     23  C   UNL     1       5.545  -6.645  -2.996  0.00  0.00    +0.120 A 
ATOM     24  C   UNL     1       6.896  -6.333  -3.228  0.00  0.00    +0.116 A 
ATOM     25  N   UNL     1       7.807  -7.348  -3.288  0.00  0.00    -0.278 N 
ATOM     26  C   UNL     1       7.437  -8.628  -3.130  0.00  0.00    +0.331 A 
ATOM     27  O   UNL     1       8.287  -9.495  -3.191  0.00  0.00    -0.246 OA
ATOM     28  N   UNL     1       6.163  -8.987  -2.905  0.00  0.00    -0.274 N 
ATOM     29  H   UNL     1       5.941  -9.925  -2.797  0.00  0.00    +0.173 HD
ATOM     30  C   UNL     1       5.187  -8.059  -2.823  0.00  0.00    +0.266 A 
ATOM     31  O   UNL     1       4.034  -8.387  -2.614  0.00  0.00    -0.267 OA
BRANCH  25  32
ATOM     32  C   UNL     1       9.217  -7.033  -3.530  0.00  0.00    +0.094 C 
ATOM     33  C   UNL     1      10.255  -7.694  -2.620  0.00  0.00    +0.027 C 
ATOM     34  C   UNL     1       9.947  -6.203  -2.472  0.00  0.00    +0.027 C 
ENDBRANCH  25  32
BRANCH  24  35
ATOM     35  N   UNL     1       7.288  -5.040  -3.392  0.00  0.00    -0.344 N 
ATOM     36  H   UNL     1       6.782  -4.324  -2.978  0.00  0.00    +0.144 HD
ATOM     37  H   UNL     1       8.074  -4.836  -3.923  0.00  0.00    +0.144 HD
ENDBRANCH  24  35
ENDBRANCH  21  23
ENDBRANCH  20  21
ENDBRANCH   1  20
TORSDOF 8
