REMARK  Name = ZINC09673402
REMARK  6 active torsions:
REMARK  status: ('A' for Active; 'I' for Inactive)
REMARK    1  A    between atoms: C_1  and  C_2
REMARK    2  A    between atoms: C_5  and  C_8
REMARK    3  A    between atoms: C_15  and  C_18
REMARK    4  A    between atoms: N_27  and  C_30
REMARK    5  A    between atoms: C_35  and  O_36
REMARK    6  A    between atoms: O_36  and  C_37
REMARK                            x       y       z     vdW  Elec       q    Type
REMARK                         _______ _______ _______ _____ _____    ______ ____
ROOT
ATOM      1  C   UNL     1       0.059  -4.251  -0.021  0.00  0.00    +0.261 C 
ATOM      2  O   UNL     1      -0.011  -4.854  -1.075  0.00  0.00    -0.269 OA
ATOM      3  N   UNL     1       0.176  -4.930   1.137  0.00  0.00    -0.220 N 
ATOM      4  C   UNL     1       0.317  -6.368   1.275  0.00  0.00    +0.194 C 
ATOM      5  C   UNL     1      -0.517  -6.560   2.603  0.00  0.00    +0.130 C 
ATOM      6  C   UNL     1       0.058  -5.482   3.425  0.00  0.00    +0.117 C 
ATOM      7  N   UNL     1       0.188  -4.378   2.412  0.00  0.00    -0.229 NA
ATOM      8  C   UNL     1      -0.730  -7.982   2.610  0.00  0.00    +0.234 C 
ATOM      9  O   UNL     1      -0.790  -8.712   3.575  0.00  0.00    -0.274 OA
ATOM     10  N   UNL     1      -0.851  -8.336   1.289  0.00  0.00    -0.205 N 
ATOM     11  C   UNL     1      -0.457  -7.329   0.426  0.00  0.00    +0.249 C 
ATOM     12  O   UNL     1      -0.678  -7.239  -0.763  0.00  0.00    -0.273 OA
ATOM     13  H   UNL     1       1.028  -3.840   2.565  0.00  0.00    +0.145 HD
ENDROOT
BRANCH   1  18
ATOM     14  C   UNL     1      -0.102   1.501   0.018  0.00  0.00    +0.044 C 
ATOM     15  C   UNL     1      -0.060  -0.005   0.008  0.00  0.00    -0.050 A 
ATOM     16  C   UNL     1      -0.086  -0.703   1.202  0.00  0.00    +0.004 A 
ATOM     17  C   UNL     1      -0.048  -2.082   1.200  0.00  0.00    +0.013 A 
ATOM     18  C   UNL     1       0.017  -2.773  -0.011  0.00  0.00    +0.038 A 
ATOM     19  C   UNL     1       0.043  -2.063  -1.213  0.00  0.00    +0.013 A 
ATOM     20  C   UNL     1      -0.001  -0.684  -1.196  0.00  0.00    +0.004 A 
ENDBRANCH   1  18
BRANCH   6  21
ATOM     21  C   UNL     1      -0.879  -5.093   4.540  0.00  0.00    -0.028 A 
ATOM     22  C   UNL     1      -1.950  -4.258   4.283  0.00  0.00    +0.008 A 
ATOM     23  C   UNL     1      -2.810  -3.901   5.304  0.00  0.00    +0.038 A 
ATOM     24  C   UNL     1      -2.598  -4.379   6.586  0.00  0.00    +0.123 A 
ATOM     25  C   UNL     1      -1.524  -5.215   6.843  0.00  0.00    +0.038 A 
ATOM     26  C   UNL     1      -0.669  -5.575   5.819  0.00  0.00    +0.008 A 
ATOM     27  F   UNL     1      -3.437  -4.030   7.585  0.00  0.00    -0.205 F 
ENDBRANCH   6  21
BRANCH  10  28
ATOM     28  C   UNL     1      -1.325  -9.585   0.858  0.00  0.00    +0.085 A 
ATOM     29  C   UNL     1      -2.679  -9.773   0.627  0.00  0.00    +0.027 A 
ATOM     30  C   UNL     1      -3.143 -11.003   0.202  0.00  0.00    +0.002 A 
ATOM     31  C   UNL     1      -2.260 -12.049   0.007  0.00  0.00    +0.004 A 
ATOM     32  C   UNL     1      -0.909 -11.870   0.235  0.00  0.00    +0.047 A 
ATOM     33  C   UNL     1      -0.435 -10.637   0.656  0.00  0.00    +0.142 A 
BRANCH  33  34
ATOM     34  O   UNL     1       0.895 -10.457   0.876  0.00  0.00    -0.493 OA
ATOM     35  C   UNL     1       1.748 -11.580   0.648  0.00  0.00    +0.277 C 
ENDBRANCH  33  34
ENDBRANCH  10  28
TORSDOF 4
