REMARK  Name = ZINC36347480
REMARK  5 active torsions:
REMARK  status: ('A' for Active; 'I' for Inactive)
REMARK    1  A    between atoms: C_4  and  O_7
REMARK    2  A    between atoms: O_7  and  C_8
REMARK    3  A    between atoms: C_12  and  C_14
REMARK    4  A    between atoms: C_14  and  N_15
REMARK    5  A    between atoms: C_24  and  C_26
REMARK                            x       y       z     vdW  Elec       q    Type
REMARK                         _______ _______ _______ _____ _____    ______ ____
ROOT
ATOM      1  N   UNL     1       6.844  -4.865  -1.165  0.00  0.00    +0.391 N 
ATOM      2  C   UNL     1       7.237  -3.606  -1.801  0.00  0.00    -0.075 C 
ATOM      3  C   UNL     1       7.620  -3.825  -3.260  0.00  0.00    +0.003 C 
ATOM      4  C   UNL     1       6.761  -4.943  -3.858  0.00  0.00    +0.119 C 
ATOM      5  N   UNL     1       7.422  -6.231  -3.617  0.00  0.00    -0.352 N 
ATOM      6  C   UNL     1       7.606  -7.228  -4.526  0.00  0.00    +0.086 A 
ATOM      7  C   UNL     1       8.235  -8.250  -3.910  0.00  0.00    +0.019 A 
ATOM      8  C   UNL     1       8.452  -7.867  -2.571  0.00  0.00    +0.021 A 
ATOM      9  C   UNL     1       7.951  -6.625  -2.421  0.00  0.00    +0.009 A 
ATOM     10  C   UNL     1       7.977  -5.800  -1.157  0.00  0.00    +0.011 C 
ATOM     11  H   UNL     1       6.077  -5.273  -1.678  0.00  0.00    -0.080 HD
ENDROOT
BRANCH  10  12
ATOM     12  C   UNL     1       7.871  -6.710   0.040  0.00  0.00    -0.054 A 
ATOM     13  C   UNL     1       6.756  -7.512   0.201  0.00  0.00    +0.004 A 
ATOM     14  C   UNL     1       6.657  -8.347   1.298  0.00  0.00    +0.021 A 
ATOM     15  C   UNL     1       7.673  -8.380   2.236  0.00  0.00    +0.059 A 
ATOM     16  C   UNL     1       8.789  -7.577   2.075  0.00  0.00    +0.059 A 
ATOM     17  C   UNL     1       8.889  -6.746   0.973  0.00  0.00    +0.023 A 
ATOM     18 CL   UNL     1      10.065  -7.617   3.251  0.00  0.00    -0.082 Cl
ATOM     19 CL   UNL     1       7.549  -9.427   3.615  0.00  0.00    -0.082 Cl
ENDBRANCH  10  12
BRANCH   1  20
ATOM     20  C   UNL     1       6.420  -4.601   0.217  0.00  0.00    -0.042 C 
BRANCH  20  25
ATOM     21  C   UNL     1       4.224  -1.526   0.227  0.00  0.00    +0.129 A 
ATOM     22  C   UNL     1       2.958  -2.094   0.193  0.00  0.00    +0.046 A 
ATOM     23  C   UNL     1       2.818  -3.468   0.165  0.00  0.00    +0.004 A 
ATOM     24  C   UNL     1       3.939  -4.278   0.173  0.00  0.00    +0.002 A 
ATOM     25  C   UNL     1       5.201  -3.715   0.208  0.00  0.00    -0.060 A 
ATOM     26  C   UNL     1       5.346  -2.341   0.229  0.00  0.00    +0.048 A 
BRANCH  21  27
ATOM     27  O   UNL     1       4.364  -0.175   0.254  0.00  0.00    -0.456 OA
BRANCH  27  31
ATOM     28  C   UNL     1       3.717   1.769   3.834  0.00  0.00    +0.000 A 
ATOM     29  C   UNL     1       3.502   0.407   3.740  0.00  0.00    +0.004 A 
ATOM     30  C   UNL     1       3.718  -0.247   2.542  0.00  0.00    +0.046 A 
ATOM     31  C   UNL     1       4.150   0.465   1.433  0.00  0.00    +0.128 A 
ATOM     32  C   UNL     1       4.365   1.833   1.530  0.00  0.00    +0.046 A 
ATOM     33  C   UNL     1       4.148   2.482   2.730  0.00  0.00    +0.004 A 
ENDBRANCH  27  31
ENDBRANCH  21  27
ENDBRANCH  20  25
ENDBRANCH   1  20
TORSDOF 5
