REMARK  Name = ZINC09092080
REMARK  8 active torsions:
REMARK  status: ('A' for Active; 'I' for Inactive)
REMARK    1  A    between atoms: C_1  and  C_2
REMARK    2  A    between atoms: C_2  and  C_3
REMARK    3  A    between atoms: C_3  and  C_5
REMARK    4  A    between atoms: C_3  and  C_6
REMARK    5  A    between atoms: C_9  and  N_12
REMARK    6  A    between atoms: C_22  and  S_23
REMARK    7  A    between atoms: S_23  and  C_24
REMARK    8  A    between atoms: C_24  and  C_25
REMARK                            x       y       z     vdW  Elec       q    Type
REMARK                         _______ _______ _______ _____ _____    ______ ____
ROOT
ATOM      1  N   UNL     1       2.357   3.889  -0.001  0.00  0.00    -0.255 N 
ATOM      2  C   UNL     1       3.535   3.229   0.093  0.00  0.00    +0.267 A 
ATOM      3  O   UNL     1       3.572   2.016   0.184  0.00  0.00    -0.267 OA
ATOM      4  C   UNL     1       4.766   4.030   0.075  0.00  0.00    +0.067 A 
ATOM      5  C   UNL     1       6.027   3.442   0.162  0.00  0.00    +0.035 A 
ATOM      6  C   UNL     1       7.149   4.243   0.146  0.00  0.00    +0.042 A 
ATOM      7  C   UNL     1       7.031   5.624   0.046  0.00  0.00    +0.022 A 
ATOM      8  C   UNL     1       5.805   6.220  -0.040  0.00  0.00    +0.030 A 
ATOM      9  C   UNL     1       4.648   5.435  -0.027  0.00  0.00    +0.079 A 
ATOM     10  N   UNL     1       3.415   5.989  -0.109  0.00  0.00    -0.223 NA
ATOM     11  C   UNL     1       2.331   5.253  -0.097  0.00  0.00    +0.177 A 
ATOM     12 CL   UNL     1       8.724   3.519   0.254  0.00  0.00    -0.084 Cl
ENDROOT
BRANCH   1  16
ATOM     13  C   UNL     1      -1.223   1.756   0.023  0.00  0.00    -0.044 A 
ATOM     14  C   UNL     1      -0.585   2.019  -1.175  0.00  0.00    +0.006 A 
ATOM     15  C   UNL     1       0.601   2.728  -1.186  0.00  0.00    +0.026 A 
ATOM     16  C   UNL     1       1.155   3.170   0.008  0.00  0.00    +0.052 A 
ATOM     17  C   UNL     1       0.514   2.899   1.209  0.00  0.00    +0.026 A 
ATOM     18  C   UNL     1      -0.671   2.190   1.214  0.00  0.00    +0.006 A 
BRANCH  13  19
ATOM     19  C   UNL     1      -2.520   0.988   0.031  0.00  0.00    +0.016 C 
ATOM     20  C   UNL     1      -2.350  -0.290   0.855  0.00  0.00    +0.012 C 
BRANCH  19  22
ATOM     21  C   UNL     1      -4.961   1.122   0.546  0.00  0.00    +0.004 C 
ATOM     22  C   UNL     1      -3.620   1.852   0.651  0.00  0.00    +0.004 C 
ENDBRANCH  19  22
ENDBRANCH  13  19
ENDBRANCH   1  16
BRANCH  11  23
ATOM     23  S   UNL     1       0.768   6.059  -0.209  0.00  0.00    -0.078 S 
BRANCH  23  24
ATOM     24  C   UNL     1       1.309   7.783  -0.310  0.00  0.00    +0.173 C 
BRANCH  24  25
ATOM     25  C   UNL     1       0.104   8.682  -0.416  0.00  0.00    +0.231 C 
ATOM     26  O   UNL     1      -1.010   8.204  -0.422  0.00  0.00    -0.274 OA
ATOM     27  N   UNL     1       0.266  10.017  -0.504  0.00  0.00    -0.240 N 
ATOM     28  C   UNL     1      -0.812  10.821  -0.598  0.00  0.00    +0.303 C 
ATOM     29  O   UNL     1      -1.929  10.343  -0.604  0.00  0.00    -0.253 OA
ATOM     30  N   UNL     1      -0.650  12.157  -0.686  0.00  0.00    -0.313 N 
ATOM     31  H   UNL     1       1.157  10.399  -0.499  0.00  0.00    +0.159 HD
ATOM     32  H   UNL     1       0.241  12.539  -0.681  0.00  0.00    +0.146 HD
ATOM     33  H   UNL     1      -1.426  12.735  -0.754  0.00  0.00    +0.146 HD
ENDBRANCH  24  25
ENDBRANCH  23  24
ENDBRANCH  11  23
TORSDOF 6
