REMARK  Name = ZINC40323045
REMARK  8 active torsions:
REMARK  status: ('A' for Active; 'I' for Inactive)
REMARK    1  A    between atoms: C_1  and  C_2
REMARK    2  A    between atoms: C_5  and  C_8
REMARK    3  A    between atoms: C_8  and  C_10
REMARK    4  A    between atoms: C_8  and  N_29
REMARK    5  A    between atoms: C_10  and  N_11
REMARK    6  A    between atoms: C_12  and  C_14
REMARK    7  A    between atoms: C_17  and  S_19
REMARK    8  A    between atoms: S_19  and  C_22
REMARK                            x       y       z     vdW  Elec       q    Type
REMARK                         _______ _______ _______ _____ _____    ______ ____
ROOT
ATOM      1  N   UNL     1       2.335  -4.280  -0.895  0.00  0.00    -0.310 N 
ATOM      2  C   UNL     1       3.651  -4.571  -0.890  0.00  0.00    +0.279 C 
ATOM      3  O   UNL     1       4.157  -5.085   0.090  0.00  0.00    -0.267 OA
ATOM      4  H   UNL     1       1.932  -3.871  -1.677  0.00  0.00    +0.149 HD
ENDROOT
BRANCH   2   5
ATOM      5  C   UNL     1       4.473  -4.268  -2.067  0.00  0.00    +0.192 A 
ATOM      6  C   UNL     1       5.810  -4.514  -2.196  0.00  0.00    +0.056 A 
ATOM      7  C   UNL     1       6.180  -4.069  -3.475  0.00  0.00    +0.070 A 
ATOM      8  C   UNL     1       5.067  -3.577  -4.062  0.00  0.00    +0.246 A 
ATOM      9  O   UNL     1       4.040  -3.703  -3.213  0.00  0.00    -0.433 OA
BRANCH   8  10
ATOM     10  S   UNL     1       4.981  -2.888  -5.681  0.00  0.00    +0.058 S 
ATOM     11  O   UNL     1       3.855  -2.021  -5.695  0.00  0.00    -0.161 OA
ATOM     12  O   UNL     1       6.291  -2.439  -6.002  0.00  0.00    -0.161 OA
BRANCH  10  13
ATOM     13  C   UNL     1       4.615  -4.207  -6.791  0.00  0.00    +0.097 A 
ATOM     14  C   UNL     1       5.642  -4.929  -7.369  0.00  0.00    +0.028 A 
ATOM     15  C   UNL     1       5.355  -5.964  -8.239  0.00  0.00    +0.017 A 
ATOM     16  C   UNL     1       4.040  -6.277  -8.530  0.00  0.00    +0.018 A 
ATOM     17  C   UNL     1       3.012  -5.555  -7.951  0.00  0.00    +0.017 A 
ATOM     18  C   UNL     1       3.300  -4.523  -7.078  0.00  0.00    +0.028 A 
ATOM     19 BR   UNL     1       3.647  -7.693  -9.721  0.00  0.00    -0.050 Br
ENDBRANCH  10  13
ENDBRANCH   8  10
ENDBRANCH   2   5
BRANCH   1  20
ATOM     20  C   UNL     1       1.514  -4.583   0.280  0.00  0.00    +0.094 C 
BRANCH  20  21
ATOM     21  C   UNL     1       0.100  -4.040   0.067  0.00  0.00    -0.020 C 
BRANCH  21  26
ATOM     22  C   UNL     1       0.268   1.731  -0.192  0.00  0.00    +0.044 C 
ATOM     23  C   UNL     1       0.224   0.226  -0.125  0.00  0.00    -0.050 A 
ATOM     24  C   UNL     1       0.152  -0.516  -1.289  0.00  0.00    +0.003 A 
ATOM     25  C   UNL     1       0.112  -1.897  -1.227  0.00  0.00    +0.002 A 
ATOM     26  C   UNL     1       0.144  -2.535  -0.001  0.00  0.00    -0.059 A 
ATOM     27  C   UNL     1       0.216  -1.792   1.163  0.00  0.00    +0.002 A 
ATOM     28  C   UNL     1       0.261  -0.412   1.101  0.00  0.00    +0.003 A 
ENDBRANCH  21  26
BRANCH  21  29
ATOM     29  N   UNL     1      -0.758  -4.454   1.185  0.00  0.00    +0.385 N 
ATOM     30  C   UNL     1      -2.139  -3.946   0.987  0.00  0.00    -0.078 C 
ATOM     31  C   UNL     1      -2.994  -4.890   1.871  0.00  0.00    -0.020 C 
ATOM     32  C   UNL     1      -2.303  -6.260   1.682  0.00  0.00    -0.020 C 
ATOM     33  C   UNL     1      -0.871  -5.928   1.222  0.00  0.00    -0.078 C 
ATOM     34  H   UNL     1      -0.382  -4.113   2.057  0.00  0.00    -0.081 HD
ENDBRANCH  21  29
ENDBRANCH  20  21
ENDBRANCH   1  20
TORSDOF 7
