REMARK  Name = ZINC33435857
REMARK  5 active torsions:
REMARK  status: ('A' for Active; 'I' for Inactive)
REMARK    1  A    between atoms: C_1  and  C_2
REMARK    2  A    between atoms: C_5  and  N_8
REMARK    3  A    between atoms: N_10  and  C_11
REMARK    4  A    between atoms: C_21  and  N_31
REMARK    5  A    between atoms: N_34  and  C_37
REMARK                            x       y       z     vdW  Elec       q    Type
REMARK                         _______ _______ _______ _____ _____    ______ ____
ROOT
ATOM      1  N   UNL     1      -0.586  -0.526  -1.357  0.00  0.00    -0.226 N 
ATOM      2  C   UNL     1      -1.750  -0.926  -0.751  0.00  0.00    +0.122 C 
ATOM      3  N   UNL     1      -2.337  -0.318   0.225  0.00  0.00    -0.264 NA
ATOM      4  C   UNL     1      -2.232  -2.198  -1.416  0.00  0.00    +0.136 C 
ATOM      5  C   UNL     1      -1.170  -2.468  -2.494  0.00  0.00    +0.070 C 
ATOM      6  C   UNL     1      -0.189  -1.332  -2.352  0.00  0.00    +0.233 C 
ATOM      7  O   UNL     1       0.804  -1.173  -3.029  0.00  0.00    -0.274 OA
ATOM      8  C   UNL     1      -1.810  -2.448  -3.878  0.00  0.00    +0.018 C 
ATOM      9  C   UNL     1      -0.738  -2.700  -4.942  0.00  0.00    +0.001 C 
ATOM     10  C   UNL     1      -0.078  -4.057  -4.688  0.00  0.00    +0.000 C 
ATOM     11  C   UNL     1       0.579  -4.054  -3.307  0.00  0.00    +0.001 C 
ATOM     12  C   UNL     1      -0.487  -3.808  -2.236  0.00  0.00    +0.018 C 
ENDROOT
BRANCH   3  13
ATOM     13  C   UNL     1      -2.592   1.122   0.144  0.00  0.00    +0.064 C 
ATOM     14  C   UNL     1      -4.068   1.396   0.438  0.00  0.00    +0.033 C 
ATOM     15  C   UNL     1      -4.335   2.901   0.352  0.00  0.00    -0.008 C 
ATOM     16  C   UNL     1      -3.993   3.400  -1.053  0.00  0.00    +0.007 C 
ATOM     17  C   UNL     1      -2.516   3.126  -1.346  0.00  0.00    -0.008 C 
ATOM     18  C   UNL     1      -2.250   1.622  -1.261  0.00  0.00    +0.033 C 
ATOM     19  C   UNL     1      -1.648   3.856  -0.320  0.00  0.00    +0.007 C 
ATOM     20  C   UNL     1      -1.990   3.357   1.085  0.00  0.00    -0.008 C 
ATOM     21  C   UNL     1      -3.466   3.631   1.379  0.00  0.00    +0.007 C 
ATOM     22  C   UNL     1      -1.724   1.852   1.170  0.00  0.00    +0.033 C 
ENDBRANCH   3  13
BRANCH   4  23
ATOM     23  N   UNL     1      -3.550  -1.993  -2.029  0.00  0.00    -0.296 NA
ATOM     24  C   UNL     1      -4.333  -1.003  -1.276  0.00  0.00    +0.066 C 
ATOM     25  C   UNL     1      -5.665  -0.759  -1.990  0.00  0.00    -0.064 C 
ATOM     26  N   UNL     1      -6.396  -2.029  -2.104  0.00  0.00    +0.379 N 
ATOM     27  C   UNL     1      -5.614  -3.019  -2.857  0.00  0.00    -0.064 C 
ATOM     28  C   UNL     1      -4.282  -3.262  -2.143  0.00  0.00    +0.066 C 
ATOM     29  C   UNL     1      -7.715  -1.823  -2.717  0.00  0.00    -0.096 C 
ATOM     30  H   UNL     1      -6.554  -2.422  -1.088  0.00  0.00    -0.082 HD
ENDBRANCH   4  23
BRANCH   1  35
ATOM     31  C   UNL     1       2.274   4.125   0.191  0.00  0.00    +0.044 C 
ATOM     32  C   UNL     1       1.515   2.890  -0.220  0.00  0.00    -0.050 A 
ATOM     33  C   UNL     1       0.147   2.824  -0.025  0.00  0.00    +0.005 A 
ATOM     34  C   UNL     1      -0.551   1.694  -0.400  0.00  0.00    +0.024 A 
ATOM     35  C   UNL     1       0.121   0.623  -0.974  0.00  0.00    +0.042 A 
ATOM     36  C   UNL     1       1.494   0.690  -1.164  0.00  0.00    +0.024 A 
ATOM     37  C   UNL     1       2.187   1.825  -0.791  0.00  0.00    +0.005 A 
ENDBRANCH   1  35
TORSDOF 3
