REMARK  Name = ZINC57304229
REMARK  4 active torsions:
REMARK  status: ('A' for Active; 'I' for Inactive)
REMARK    1  A    between atoms: C_9  and  C_11
REMARK    2  A    between atoms: C_11  and  C_12
REMARK    3  A    between atoms: C_12  and  C_13
REMARK    4  A    between atoms: C_19  and  C_21
REMARK                            x       y       z     vdW  Elec       q    Type
REMARK                         _______ _______ _______ _____ _____    ______ ____
ROOT
ATOM      1  C   UNL     1       5.535  -4.561  -1.258  0.00  0.00    +0.216 C 
ATOM      2  O   UNL     1       5.367  -5.401  -0.400  0.00  0.00    -0.276 OA
ATOM      3  N   UNL     1       6.454  -4.758  -2.224  0.00  0.00    -0.294 N 
ATOM      4  C   UNL     1       6.764  -3.821  -3.319  0.00  0.00    +0.108 C 
ATOM      5  C   UNL     1       7.363  -4.707  -4.441  0.00  0.00    +0.021 C 
ATOM      6  C   UNL     1       8.180  -5.739  -3.620  0.00  0.00    +0.029 C 
ATOM      7  C   UNL     1       7.316  -5.942  -2.357  0.00  0.00    +0.106 C 
ENDROOT
BRANCH   7   8
ATOM      8  C   UNL     1       8.200  -6.071  -1.143  0.00  0.00    -0.026 A 
ATOM      9  C   UNL     1       8.760  -4.942  -0.573  0.00  0.00    +0.007 A 
ATOM     10  C   UNL     1       9.571  -5.059   0.539  0.00  0.00    +0.022 A 
ATOM     11  C   UNL     1       9.823  -6.306   1.084  0.00  0.00    +0.059 A 
ATOM     12  C   UNL     1       9.262  -7.435   0.513  0.00  0.00    +0.060 A 
ATOM     13  C   UNL     1       8.446  -7.316  -0.598  0.00  0.00    +0.027 A 
ATOM     14 CL   UNL     1       9.578  -9.000   1.195  0.00  0.00    -0.082 Cl
ATOM     15 CL   UNL     1      10.842  -6.453   2.482  0.00  0.00    -0.082 Cl
ENDBRANCH   7   8
BRANCH   1  16
ATOM     16  C   UNL     1       4.717  -3.295  -1.243  0.00  0.00    +0.103 C 
BRANCH  16  17
ATOM     17  C   UNL     1       3.757  -3.322  -0.052  0.00  0.00    +0.083 C 
BRANCH  17  26
ATOM     18  C   UNL     1      -0.017   1.374   0.010  0.00  0.00    +0.002 A 
ATOM     19  C   UNL     1       1.170   2.094   0.002  0.00  0.00    +0.002 A 
ATOM     20  C   UNL     1       2.375   1.450  -0.013  0.00  0.00    +0.030 A 
ATOM     21  C   UNL     1       2.418   0.054  -0.021  0.00  0.00    +0.089 A 
ATOM     22  C   UNL     1       1.217  -0.675  -0.013  0.00  0.00    +0.066 A 
ATOM     23  C   UNL     1       0.002  -0.004   0.002  0.00  0.00    +0.028 A 
ATOM     24  N   UNL     1       1.580  -2.007  -0.024  0.00  0.00    -0.342 N 
ATOM     25  H   UNL     1       0.977  -2.767  -0.022  0.00  0.00    +0.167 HD
ATOM     26  C   UNL     1       2.939  -2.056  -0.038  0.00  0.00    +0.109 A 
ATOM     27  N   UNL     1       3.430  -0.852  -0.036  0.00  0.00    -0.232 NA
ENDBRANCH  17  26
ENDBRANCH  16  17
ENDBRANCH   1  16
TORSDOF 4
