REMARK  Name = ZINC38596134
REMARK  11 active torsions:
REMARK  status: ('A' for Active; 'I' for Inactive)
REMARK    1  A    between atoms: C_1  and  C_2
REMARK    2  A    between atoms: C_2  and  C_4
REMARK    3  A    between atoms: C_2  and  N_24
REMARK    4  A    between atoms: C_4  and  C_6
REMARK    5  A    between atoms: C_4  and  N_11
REMARK    6  A    between atoms: N_14  and  C_17
REMARK    7  A    between atoms: C_17  and  C_18
REMARK    8  A    between atoms: N_24  and  S_25
REMARK    9  A    between atoms: S_25  and  C_28
REMARK   10  A    between atoms: C_32  and  C_34
REMARK   11  A    between atoms: C_34  and  C_36
REMARK                            x       y       z     vdW  Elec       q    Type
REMARK                         _______ _______ _______ _____ _____    ______ ____
ROOT
ATOM      1  C   UNL     1       0.718  -0.497  -1.257  0.00  0.00    +0.112 C 
ENDROOT
BRANCH   1   2
ATOM      2  N   UNL     1       2.055   0.107  -1.328  0.00  0.00    -0.297 NA
ATOM      3  C   UNL     1       2.830  -0.184  -0.114  0.00  0.00    +0.066 C 
ATOM      4  C   UNL     1       4.191   0.511  -0.202  0.00  0.00    -0.063 C 
ATOM      5  N   UNL     1       4.910   0.031  -1.390  0.00  0.00    +0.384 N 
ATOM      6  C   UNL     1       4.135   0.351  -2.596  0.00  0.00    -0.063 C 
ATOM      7  C   UNL     1       2.774  -0.345  -2.528  0.00  0.00    +0.066 C 
ATOM      8  H   UNL     1       5.035  -0.968  -1.326  0.00  0.00    -0.081 HD
BRANCH   5   9
ATOM      9  C   UNL     1       6.223   0.685  -1.464  0.00  0.00    -0.043 C 
BRANCH   9  10
ATOM     10  C   UNL     1       7.010   0.104  -2.611  0.00  0.00    -0.064 A 
ATOM     11  C   UNL     1       7.821  -0.996  -2.405  0.00  0.00    +0.002 A 
ATOM     12  C   UNL     1       8.542  -1.529  -3.457  0.00  0.00    +0.000 A 
ATOM     13  C   UNL     1       8.452  -0.962  -4.715  0.00  0.00    +0.000 A 
ATOM     14  C   UNL     1       7.640   0.138  -4.920  0.00  0.00    +0.000 A 
ATOM     15  C   UNL     1       6.915   0.668  -3.869  0.00  0.00    +0.002 A 
ENDBRANCH   9  10
ENDBRANCH   5   9
ENDBRANCH   1   2
BRANCH   1  16
ATOM     16  C   UNL     1      -0.077  -0.103  -2.474  0.00  0.00    +0.008 A 
ATOM     17  C   UNL     1      -0.930  -0.851  -3.216  0.00  0.00    +0.013 A 
ATOM     18  C   UNL     1      -1.557  -0.272  -4.303  0.00  0.00    +0.008 A 
ATOM     19  C   UNL     1      -1.300   1.026  -4.596  0.00  0.00    +0.045 A 
ATOM     20  S   UNL     1      -0.146   1.473  -3.310  0.00  0.00    -0.100 S 
ENDBRANCH   1  16
BRANCH   1  22
ATOM     21  C   UNL     1      -0.019   1.526   0.010  0.00  0.00    +0.027 C 
ATOM     22  C   UNL     1       0.002  -0.004   0.002  0.00  0.00    +0.095 C 
BRANCH  22  23
ATOM     23  N   UNL     1      -1.372  -0.511   0.012  0.00  0.00    -0.185 NA
ATOM     24  H   UNL     1      -1.861  -0.606  -0.820  0.00  0.00    +0.148 HD
BRANCH  23  25
ATOM     25  S   UNL     1      -2.092  -0.923   1.446  0.00  0.00    +0.059 S 
ATOM     26  O   UNL     1      -3.411  -1.347   1.131  0.00  0.00    -0.153 OA
ATOM     27  O   UNL     1      -1.170  -1.752   2.140  0.00  0.00    -0.153 OA
BRANCH  25  28
ATOM     28  C   UNL     1      -2.251   0.555   2.392  0.00  0.00    +0.106 A 
ATOM     29  C   UNL     1      -1.232   0.942   3.245  0.00  0.00    +0.028 A 
ATOM     30  C   UNL     1      -1.347   2.101   3.992  0.00  0.00    +0.003 A 
ATOM     31  C   UNL     1      -2.481   2.880   3.893  0.00  0.00    +0.011 A 
ATOM     32  C   UNL     1      -3.515   2.496   3.034  0.00  0.00    +0.019 A 
ATOM     33  C   UNL     1      -3.389   1.326   2.277  0.00  0.00    +0.040 A 
BRANCH  32  34
ATOM     34  C   UNL     1      -4.729   3.321   2.922  0.00  0.00    +0.160 C 
ATOM     35  O   UNL     1      -5.624   2.985   2.176  0.00  0.00    -0.292 OA
ATOM     36  C   UNL     1      -4.859   4.583   3.735  0.00  0.00    +0.091 C 
ENDBRANCH  32  34
ENDBRANCH  25  28
ENDBRANCH  23  25
ENDBRANCH  22  23
ENDBRANCH   1  22
TORSDOF 9
