REMARK  Name = ZINC04747479
REMARK  10 active torsions:
REMARK  status: ('A' for Active; 'I' for Inactive)
REMARK    1  A    between atoms: C_1  and  C_2
REMARK    2  A    between atoms: C_2  and  C_3
REMARK    3  A    between atoms: C_3  and  C_4
REMARK    4  A    between atoms: C_11  and  O_16
REMARK    5  A    between atoms: C_13  and  C_15
REMARK    6  A    between atoms: O_16  and  C_17
REMARK    7  A    between atoms: C_17  and  C_19
REMARK    8  A    between atoms: C_17  and  C_25
REMARK    9  A    between atoms: C_25  and  O_27
REMARK   10  A    between atoms: O_27  and  C_28
REMARK                            x       y       z     vdW  Elec       q    Type
REMARK                         _______ _______ _______ _____ _____    ______ ____
ROOT
ATOM      1  C   UNL     1      -3.137   1.700   2.358  0.00  0.00    -0.026 A 
ATOM      2  C   UNL     1      -3.304   1.002   3.512  0.00  0.00    +0.096 A 
ATOM      3  C   UNL     1      -4.122   1.524   4.535  0.00  0.00    +0.337 A 
ATOM      4  O   UNL     1      -4.263   0.888   5.564  0.00  0.00    -0.245 OA
ATOM      5  O   UNL     1      -4.749   2.703   4.404  0.00  0.00    -0.422 OA
ATOM      6  C   UNL     1      -4.625   3.447   3.283  0.00  0.00    +0.143 A 
ATOM      7  C   UNL     1      -3.819   2.988   2.225  0.00  0.00    +0.062 A 
ATOM      8  C   UNL     1      -3.694   3.756   1.058  0.00  0.00    +0.133 A 
ATOM      9  C   UNL     1      -4.358   4.967   0.965  0.00  0.00    +0.050 A 
ATOM     10  C   UNL     1      -5.145   5.413   2.013  0.00  0.00    -0.043 A 
ATOM     11  C   UNL     1      -5.280   4.664   3.164  0.00  0.00    +0.050 A 
ATOM     12  C   UNL     1      -5.862   6.734   1.895  0.00  0.00    +0.044 C 
ENDROOT
BRANCH   1  13
ATOM     13  C   UNL     1      -2.269   1.166   1.248  0.00  0.00    +0.036 C 
BRANCH  13  15
ATOM     14  C   UNL     1       0.043   1.153   0.301  0.00  0.00    +0.004 C 
ATOM     15  C   UNL     1      -0.878   1.796   1.341  0.00  0.00    +0.001 C 
ENDBRANCH  13  15
ENDBRANCH   1  13
BRANCH   8  16
ATOM     16  O   UNL     1      -2.923   3.318   0.030  0.00  0.00    -0.472 OA
BRANCH  16  17
ATOM     17  C   UNL     1      -2.950   4.087  -1.175  0.00  0.00    +0.311 C 
BRANCH  17  18
ATOM     18  C   UNL     1      -2.990   3.159  -2.361  0.00  0.00    +0.004 A 
ATOM     19  C   UNL     1      -2.353   1.933  -2.303  0.00  0.00    +0.008 A 
ATOM     20  C   UNL     1      -2.394   1.081  -3.390  0.00  0.00    +0.000 A 
ATOM     21  C   UNL     1      -3.064   1.457  -4.539  0.00  0.00    +0.000 A 
ATOM     22  C   UNL     1      -3.697   2.684  -4.599  0.00  0.00    +0.000 A 
ATOM     23  C   UNL     1      -3.660   3.535  -3.510  0.00  0.00    +0.008 A 
ENDBRANCH  17  18
BRANCH  17  24
ATOM     24  C   UNL     1      -1.714   4.946  -1.250  0.00  0.00    +0.353 C 
ATOM     25  O   UNL     1      -0.851   4.838  -0.411  0.00  0.00    -0.246 OA
BRANCH  24  26
ATOM     26  O   UNL     1      -1.571   5.830  -2.250  0.00  0.00    -0.465 OA
ATOM     27  C   UNL     1      -0.355   6.623  -2.260  0.00  0.00    +0.280 C 
ENDBRANCH  24  26
ENDBRANCH  17  24
ENDBRANCH  16  17
ENDBRANCH   8  16
TORSDOF 7
