REMARK  Name = ZINC44940815
REMARK  11 active torsions:
REMARK  status: ('A' for Active; 'I' for Inactive)
REMARK    1  A    between atoms: C_1  and  N_2
REMARK    2  A    between atoms: N_2  and  C_3
REMARK    3  A    between atoms: N_2  and  C_4
REMARK    4  A    between atoms: C_4  and  C_5
REMARK    5  A    between atoms: C_5  and  N_6
REMARK    6  A    between atoms: N_6  and  C_7
REMARK    7  A    between atoms: C_7  and  C_8
REMARK    8  A    between atoms: C_14  and  C_16
REMARK    9  A    between atoms: C_22  and  C_24
REMARK   10  A    between atoms: C_29  and  C_32
REMARK   11  A    between atoms: C_29  and  C_34
REMARK                            x       y       z     vdW  Elec       q    Type
REMARK                         _______ _______ _______ _____ _____    ______ ____
ROOT
ATOM      1  C   UNL     1      -2.465  -2.808   2.355  0.00  0.00    +0.091 C 
ATOM      2  C   UNL     1      -1.104  -3.500   2.247  0.00  0.00    +0.040 C 
ATOM      3  C   UNL     1      -1.287  -4.987   2.158  0.00  0.00    -0.030 C 
ATOM      4  C   UNL     1      -2.376  -5.605   2.486  0.00  0.00    -0.030 C 
ATOM      5  C   UNL     1      -3.612  -4.919   2.990  0.00  0.00    +0.040 C 
ATOM      6  C   UNL     1      -3.278  -3.497   3.457  0.00  0.00    +0.091 C 
ENDROOT
BRANCH   6   7
ATOM      7  C   UNL     1      -4.549  -2.726   3.706  0.00  0.00    +0.220 C 
ATOM      8  O   UNL     1      -5.533  -2.945   3.032  0.00  0.00    -0.275 OA
ATOM      9  N   UNL     1      -4.592  -1.793   4.678  0.00  0.00    -0.301 N 
ATOM     10  C   UNL     1      -3.374  -1.419   5.411  0.00  0.00    +0.109 C 
ATOM     11  C   UNL     1      -3.640  -1.563   6.913  0.00  0.00    +0.045 C 
ATOM     12  C   UNL     1      -4.877  -0.743   7.289  0.00  0.00    +0.085 C 
ATOM     13  C   UNL     1      -6.094  -1.276   6.530  0.00  0.00    +0.045 C 
ATOM     14  C   UNL     1      -5.855  -1.126   5.020  0.00  0.00    +0.109 C 
BRANCH  12  15
ATOM     15  C   UNL     1      -5.121  -0.854   8.772  0.00  0.00    -0.027 A 
ATOM     16  C   UNL     1      -4.272  -1.612   9.557  0.00  0.00    +0.005 A 
ATOM     17  C   UNL     1      -4.496  -1.714  10.917  0.00  0.00    +0.000 A 
ATOM     18  C   UNL     1      -5.569  -1.058  11.492  0.00  0.00    +0.000 A 
ATOM     19  C   UNL     1      -6.417  -0.300  10.707  0.00  0.00    +0.000 A 
ATOM     20  C   UNL     1      -6.190  -0.194   9.348  0.00  0.00    +0.005 A 
ENDBRANCH  12  15
BRANCH  12  21
ATOM     21  C   UNL     1      -4.656   0.668   6.933  0.00  0.00    +0.074 C 
ATOM     22  N   UNL     1      -4.486   1.757   6.658  0.00  0.00    -0.196 NA
ENDBRANCH  12  21
ENDBRANCH   6   7
BRANCH   1  24
ATOM     23  N   UNL     1      -2.994  -1.997   0.079  0.00  0.00    -0.299 N 
ATOM     24  C   UNL     1      -3.195  -2.918   1.042  0.00  0.00    +0.220 C 
ATOM     25  O   UNL     1      -3.965  -3.836   0.851  0.00  0.00    -0.275 OA
BRANCH  23  26
ATOM     26  C   UNL     1      -1.988  -0.948   0.267  0.00  0.00    +0.089 C 
BRANCH  26  27
ATOM     27  C   UNL     1      -2.660   0.310   0.821  0.00  0.00    -0.060 C 
BRANCH  27  29
ATOM     28  C   UNL     1      -2.313   2.605   1.427  0.00  0.00    -0.097 C 
ATOM     29  N   UNL     1      -1.652   1.361   1.010  0.00  0.00    +0.377 N 
ATOM     30  C   UNL     1      -0.697   0.943   2.045  0.00  0.00    -0.097 C 
ATOM     31  H   UNL     1      -1.161   1.516   0.142  0.00  0.00    -0.083 HD
ENDBRANCH  27  29
ENDBRANCH  26  27
ENDBRANCH  23  26
BRANCH  23  32
ATOM     32  C   UNL     1      -3.780  -2.044  -1.156  0.00  0.00    +0.142 C 
BRANCH  32  33
ATOM     33  C   UNL     1      -3.067  -2.896  -2.174  0.00  0.00    -0.030 A 
ATOM     34  C   UNL     1      -2.158  -2.321  -3.042  0.00  0.00    +0.005 A 
ATOM     35  C   UNL     1      -1.504  -3.103  -3.976  0.00  0.00    +0.000 A 
ATOM     36  C   UNL     1      -1.758  -4.460  -4.041  0.00  0.00    +0.000 A 
ATOM     37  C   UNL     1      -2.667  -5.035  -3.172  0.00  0.00    +0.000 A 
ATOM     38  C   UNL     1      -3.318  -4.254  -2.236  0.00  0.00    +0.005 A 
ENDBRANCH  32  33
ENDBRANCH  23  32
ENDBRANCH   1  24
TORSDOF 9
