REMARK  Name = ZINC13476866
REMARK  7 active torsions:
REMARK  status: ('A' for Active; 'I' for Inactive)
REMARK    1  A    between atoms: C_1  and  C_2
REMARK    2  A    between atoms: C_2  and  C_17
REMARK    3  A    between atoms: N_3  and  N_4
REMARK    4  A    between atoms: C_5  and  C_7
REMARK    5  A    between atoms: C_7  and  O_8
REMARK    6  A    between atoms: O_8  and  C_9
REMARK    7  A    between atoms: C_20  and  N_23
REMARK                            x       y       z     vdW  Elec       q    Type
REMARK                         _______ _______ _______ _____ _____    ______ ____
ROOT
ATOM      1  N   UNL     1       3.909  -2.193  -0.047  0.00  0.00    -0.204 N 
ATOM      2  C   UNL     1       3.713  -0.860  -0.038  0.00  0.00    +0.270 C 
ATOM      3  O   UNL     1       4.664  -0.107  -0.043  0.00  0.00    -0.270 OA
ATOM      4  H   UNL     1       3.149  -2.795  -0.043  0.00  0.00    +0.177 HD
ENDROOT
BRANCH   1   7
ATOM      5  C   UNL     1       4.219  -4.928  -0.065  0.00  0.00    +0.068 C 
ATOM      6  C   UNL     1       5.400  -3.993  -0.071  0.00  0.00    +0.063 C 
ATOM      7  N   UNL     1       5.211  -2.709  -0.062  0.00  0.00    -0.184 NA
BRANCH   6   8
ATOM      8  C   UNL     1       6.771  -4.537  -0.087  0.00  0.00    -0.002 A 
ATOM      9  C   UNL     1       6.978  -5.918  -0.090  0.00  0.00    +0.012 A 
ATOM     10  C   UNL     1       8.263  -6.419  -0.112  0.00  0.00    +0.033 A 
ATOM     11  C   UNL     1       9.345  -5.558  -0.117  0.00  0.00    +0.126 A 
ATOM     12  C   UNL     1       9.148  -4.188  -0.108  0.00  0.00    +0.033 A 
ATOM     13  C   UNL     1       7.869  -3.673  -0.093  0.00  0.00    +0.012 A 
BRANCH  11  14
ATOM     14  N   UNL     1      10.721  -6.103  -0.135  0.00  0.00    +0.056 N 
ATOM     15  O   UNL     1      11.676  -5.347  -0.140  0.00  0.00    -0.126 OA
ATOM     16  O   UNL     1      10.899  -7.308  -0.143  0.00  0.00    -0.126 OA
ENDBRANCH  11  14
ENDBRANCH   6   8
ENDBRANCH   1   7
BRANCH   2  17
ATOM     17  C   UNL     1       2.312  -0.304  -0.022  0.00  0.00    +0.326 C 
BRANCH  17  18
ATOM     18  O   UNL     1       2.366   1.124  -0.015  0.00  0.00    -0.482 OA
BRANCH  18  19
ATOM     19  C   UNL     1       1.179   1.786   0.000  0.00  0.00    +0.134 A 
ATOM     20  C   UNL     1      -0.013   1.076   0.008  0.00  0.00    +0.048 A 
ATOM     21  C   UNL     1      -1.218   1.751   0.017  0.00  0.00    +0.023 A 
ATOM     22  C   UNL     1      -1.238   3.134   0.029  0.00  0.00    +0.042 A 
ATOM     23  C   UNL     1      -0.051   3.845   0.022  0.00  0.00    +0.038 A 
ATOM     24  C   UNL     1       1.158   3.173   0.008  0.00  0.00    +0.056 A 
ATOM     25  I   UNL     1       2.955   4.250  -0.004  0.00  0.00    -0.040 I 
ATOM     26 CL   UNL     1      -2.754   3.980   0.046  0.00  0.00    -0.084 Cl
ENDBRANCH  18  19
ENDBRANCH  17  18
ENDBRANCH   2  17
TORSDOF 6
