REMARK  Name = ZINC42459443
REMARK  7 active torsions:
REMARK  status: ('A' for Active; 'I' for Inactive)
REMARK    1  A    between atoms: C_1  and  C_2
REMARK    2  A    between atoms: C_2  and  C_4
REMARK    3  A    between atoms: C_2  and  C_18
REMARK    4  A    between atoms: C_4  and  N_5
REMARK    5  A    between atoms: N_5  and  C_6
REMARK    6  A    between atoms: N_9  and  C_10
REMARK    7  A    between atoms: N_19  and  O_20
REMARK                            x       y       z     vdW  Elec       q    Type
REMARK                         _______ _______ _______ _____ _____    ______ ____
ROOT
ATOM      1  N   UNL     1      -0.067  -0.107  -2.430  0.00  0.00    -0.288 N 
ATOM      2  C   UNL     1       0.184   1.180  -3.083  0.00  0.00    +0.133 C 
ATOM      3  C   UNL     1      -1.004  -0.941  -2.923  0.00  0.00    +0.306 C 
ATOM      4  O   UNL     1      -1.212  -2.010  -2.381  0.00  0.00    -0.252 OA
ATOM      5  N   UNL     1      -1.711  -0.590  -4.015  0.00  0.00    -0.268 N 
ATOM      6  H   UNL     1      -1.591   0.288  -4.409  0.00  0.00    +0.156 HD
ENDROOT
BRANCH   5   7
ATOM      7  C   UNL     1      -2.618  -1.494  -4.582  0.00  0.00    +0.055 A 
ATOM      8  C   UNL     1      -3.337  -2.360  -3.769  0.00  0.00    +0.044 A 
ATOM      9  C   UNL     1      -4.231  -3.251  -4.332  0.00  0.00    +0.043 A 
ATOM     10  C   UNL     1      -4.411  -3.280  -5.704  0.00  0.00    +0.021 A 
ATOM     11  C   UNL     1      -3.697  -2.418  -6.515  0.00  0.00    +0.023 A 
ATOM     12  C   UNL     1      -2.806  -1.521  -5.958  0.00  0.00    +0.062 A 
ATOM     13 CL   UNL     1      -1.915  -0.434  -6.978  0.00  0.00    -0.082 Cl
ATOM     14 CL   UNL     1      -5.130  -4.335  -3.316  0.00  0.00    -0.083 Cl
ENDBRANCH   5   7
BRANCH   1  15
ATOM     15  C   UNL     1       0.702  -0.489  -1.243  0.00  0.00    +0.119 C 
BRANCH  15  17
ATOM     16  C   UNL     1      -0.054   1.528   0.024  0.00  0.00    +0.017 C 
ATOM     17  C   UNL     1      -0.024  -0.001   0.013  0.00  0.00    +0.070 C 
BRANCH  17  18
ATOM     18  C   UNL     1       0.700  -0.498   1.237  0.00  0.00    +0.136 C 
ATOM     19  N   UNL     1       1.571   0.255   1.823  0.00  0.00    -0.076 NA
ATOM     20  N   UNL     1       0.434  -1.756   1.732  0.00  0.00    -0.344 N 
ATOM     21  H   UNL     1      -0.220  -2.321   1.292  0.00  0.00    +0.144 HD
ATOM     22  H   UNL     1       0.900  -2.076   2.520  0.00  0.00    +0.144 HD
BRANCH  19  23
ATOM     23  O   UNL     1       2.252  -0.212   2.973  0.00  0.00    -0.408 OA
ATOM     24  H   UNL     1       2.883   0.421   3.341  0.00  0.00    +0.328 HD
ENDBRANCH  19  23
ENDBRANCH  17  18
ENDBRANCH  15  17
ENDBRANCH   1  15
TORSDOF 5
