REMARK  Name = ZINC63374870
REMARK  6 active torsions:
REMARK  status: ('A' for Active; 'I' for Inactive)
REMARK    1  A    between atoms: C_1  and  C_2
REMARK    2  A    between atoms: C_5  and  C_8
REMARK    3  A    between atoms: N_15  and  C_30
REMARK    4  A    between atoms: C_18  and  C_29
REMARK    5  A    between atoms: C_30  and  C_31
REMARK    6  A    between atoms: C_31  and  C_32
REMARK                            x       y       z     vdW  Elec       q    Type
REMARK                         _______ _______ _______ _____ _____    ______ ____
ROOT
ATOM      1  C   UNL     1       0.003  -4.275  -0.012  0.00  0.00    +0.065 C 
ATOM      2  C   UNL     1      -1.190  -4.838   0.765  0.00  0.00    +0.121 C 
ATOM      3  N   UNL     1      -0.990  -6.201   1.226  0.00  0.00    -0.283 N 
ATOM      4  C   UNL     1      -2.104  -6.885   1.652  0.00  0.00    +0.234 C 
ATOM      5  O   UNL     1      -3.220  -6.429   1.517  0.00  0.00    -0.274 OA
ATOM      6  C   UNL     1      -1.872  -8.235   2.296  0.00  0.00    +0.203 C 
ATOM      7  N   UNL     1      -0.732  -8.122   3.225  0.00  0.00    -0.291 N 
ATOM      8  C   UNL     1       0.378  -7.479   2.752  0.00  0.00    +0.242 C 
ATOM      9  O   UNL     1       1.389  -7.359   3.412  0.00  0.00    -0.273 OA
ATOM     10  C   UNL     1       0.259  -6.931   1.354  0.00  0.00    +0.135 C 
ATOM     11  C   UNL     1       1.500  -6.259   0.855  0.00  0.00    +0.139 C 
ATOM     12  C   UNL     1       1.238  -4.769   0.699  0.00  0.00    -0.027 C 
ATOM     13  C   UNL     1       2.241  -4.146   1.299  0.00  0.00    -0.000 A 
ATOM     14  C   UNL     1       2.597  -2.721   1.398  0.00  0.00    +0.010 A 
ATOM     15  C   UNL     1       3.707  -2.429   2.126  0.00  0.00    +0.001 A 
ATOM     16  C   UNL     1       4.490  -3.400   2.759  0.00  0.00    +0.002 A 
ATOM     17  C   UNL     1       4.243  -4.733   2.712  0.00  0.00    +0.026 A 
ATOM     18  C   UNL     1       3.107  -5.165   1.969  0.00  0.00    +0.043 A 
ATOM     19  N   UNL     1       2.649  -6.351   1.754  0.00  0.00    -0.375 N 
ATOM     20  C   UNL     1       0.098  -8.161   0.459  0.00  0.00    +0.044 C 
ATOM     21  H   UNL     1       3.017  -7.169   2.124  0.00  0.00    +0.160 HD
ENDROOT
BRANCH   1  26
ATOM     22  C   UNL     1      -0.145   1.502   0.035  0.00  0.00    +0.044 C 
ATOM     23  C   UNL     1      -0.106  -0.005   0.023  0.00  0.00    -0.050 A 
ATOM     24  C   UNL     1      -0.115  -0.687  -1.180  0.00  0.00    +0.003 A 
ATOM     25  C   UNL     1      -0.079  -2.069  -1.191  0.00  0.00    +0.004 A 
ATOM     26  C   UNL     1      -0.035  -2.769   0.000  0.00  0.00    -0.039 A 
ATOM     27  C   UNL     1      -0.025  -2.087   1.203  0.00  0.00    +0.004 A 
ATOM     28  C   UNL     1      -0.057  -0.705   1.214  0.00  0.00    +0.003 A 
ENDBRANCH   1  26
BRANCH   7  29
ATOM     29  C   UNL     1      -0.786  -8.669   4.583  0.00  0.00    +0.113 C 
BRANCH  29  30
ATOM     30  C   UNL     1      -0.286 -10.115   4.571  0.00  0.00    +0.054 C 
BRANCH  30  31
ATOM     31  C   UNL     1      -0.342 -10.678   5.968  0.00  0.00    -0.046 A 
ATOM     32  C   UNL     1       0.746 -10.546   6.810  0.00  0.00    +0.005 A 
ATOM     33  C   UNL     1       0.696 -11.062   8.091  0.00  0.00    +0.020 A 
ATOM     34  C   UNL     1      -0.445 -11.711   8.530  0.00  0.00    +0.041 A 
ATOM     35  C   UNL     1      -1.534 -11.842   7.687  0.00  0.00    +0.020 A 
ATOM     36  C   UNL     1      -1.484 -11.321   6.408  0.00  0.00    +0.005 A 
ATOM     37 CL   UNL     1      -0.509 -12.360  10.139  0.00  0.00    -0.084 Cl
ENDBRANCH  30  31
ENDBRANCH  29  30
ENDBRANCH   7  29
TORSDOF 4
