REMARK  Name = ZINC59260140
REMARK  6 active torsions:
REMARK  status: ('A' for Active; 'I' for Inactive)
REMARK    1  A    between atoms: C_1  and  C_2
REMARK    2  A    between atoms: C_7  and  C_8
REMARK    3  A    between atoms: C_8  and  C_10
REMARK    4  A    between atoms: C_8  and  N_11
REMARK    5  A    between atoms: N_14  and  C_15
REMARK    6  A    between atoms: C_15  and  C_16
REMARK                            x       y       z     vdW  Elec       q    Type
REMARK                         _______ _______ _______ _____ _____    ______ ____
ROOT
ATOM      1  C   UNL     1       2.918  -1.443   7.661  0.00  0.00    -0.014 A 
ATOM      2  C   UNL     1       2.111  -2.009   8.639  0.00  0.00    +0.010 A 
ATOM      3  C   UNL     1       2.648  -2.991   9.451  0.00  0.00    +0.042 A 
ATOM      4  C   UNL     1       3.971  -3.377   9.261  0.00  0.00    +0.099 A 
ATOM      5  N   UNL     1       4.709  -2.813   8.317  0.00  0.00    -0.349 N 
ATOM      6  C   UNL     1       4.221  -1.878   7.524  0.00  0.00    +0.089 A 
ATOM      7  N   UNL     1       4.524  -4.363  10.070  0.00  0.00    -0.312 N 
ATOM      8  C   UNL     1       3.781  -4.921  11.213  0.00  0.00    +0.111 C 
ATOM      9  C   UNL     1       3.528  -6.401  10.930  0.00  0.00    +0.054 C 
ATOM     10  C   UNL     1       4.787  -7.081  10.463  0.00  0.00    -0.041 A 
ATOM     11  C   UNL     1       4.851  -8.466  10.572  0.00  0.00    +0.004 A 
ATOM     12  C   UNL     1       5.971  -9.152  10.153  0.00  0.00    +0.000 A 
ATOM     13  C   UNL     1       7.042  -8.459   9.619  0.00  0.00    +0.000 A 
ATOM     14  C   UNL     1       6.984  -7.085   9.513  0.00  0.00    +0.005 A 
ATOM     15  C   UNL     1       5.858  -6.393   9.940  0.00  0.00    -0.027 A 
ATOM     16  C   UNL     1       5.868  -4.894   9.816  0.00  0.00    +0.141 C 
ATOM     17  H   UNL     1       5.629  -3.098   8.203  0.00  0.00    +0.167 HD
ENDROOT
BRANCH   1  18
ATOM     18  C   UNL     1       2.375  -0.369   6.753  0.00  0.00    +0.142 C 
BRANCH  18  22
ATOM     19  N   UNL     1       0.686  -0.785   3.514  0.00  0.00    -0.293 N 
ATOM     20  C   UNL     1       1.231  -0.216   4.607  0.00  0.00    +0.300 C 
ATOM     21  O   UNL     1       1.225   0.994   4.730  0.00  0.00    -0.253 OA
ATOM     22  N   UNL     1       1.783  -0.988   5.565  0.00  0.00    -0.295 N 
ATOM     23  H   UNL     1       0.691  -1.750   3.416  0.00  0.00    +0.151 HD
ATOM     24  H   UNL     1       1.788  -1.953   5.467  0.00  0.00    +0.151 HD
BRANCH  19  25
ATOM     25  C   UNL     1       0.087   0.054   2.473  0.00  0.00    +0.102 C 
ATOM     26  C   UNL     1      -1.361   0.375   2.848  0.00  0.00    +0.033 C 
BRANCH  25  33
ATOM     27  C   UNL     1       0.063   1.533  -0.008  0.00  0.00    +0.044 C 
ATOM     28  C   UNL     1       0.103   0.027  -0.029  0.00  0.00    -0.046 A 
ATOM     29  C   UNL     1       0.134  -0.647  -1.236  0.00  0.00    +0.004 A 
ATOM     30  C   UNL     1       0.171  -2.029  -1.255  0.00  0.00    +0.000 A 
ATOM     31  C   UNL     1       0.177  -2.737  -0.068  0.00  0.00    +0.000 A 
ATOM     32  C   UNL     1       0.147  -2.063   1.139  0.00  0.00    +0.006 A 
ATOM     33  C   UNL     1       0.114  -0.681   1.158  0.00  0.00    -0.025 A 
ENDBRANCH  25  33
ENDBRANCH  19  25
ENDBRANCH  18  22
ENDBRANCH   1  18
TORSDOF 4
