REMARK  Name = ZINC12496678
REMARK  8 active torsions:
REMARK  status: ('A' for Active; 'I' for Inactive)
REMARK    1  A    between atoms: C_1  and  C_2
REMARK    2  A    between atoms: C_2  and  C_3
REMARK    3  A    between atoms: C_3  and  C_4
REMARK    4  A    between atoms: C_4  and  C_28
REMARK    5  A    between atoms: C_9  and  C_11
REMARK    6  A    between atoms: N_18  and  C_21
REMARK    7  A    between atoms: C_28  and  O_30
REMARK    8  A    between atoms: O_30  and  C_31
REMARK                            x       y       z     vdW  Elec       q    Type
REMARK                         _______ _______ _______ _____ _____    ______ ____
ROOT
ATOM      1  C   UNL     1       7.174  -1.176  -0.426  0.00  0.00    +0.044 C 
ATOM      2  C   UNL     1       5.849  -1.073   0.309  0.00  0.00    +0.086 C 
ATOM      3  C   UNL     1       5.109  -2.292  -0.353  0.00  0.00    +0.078 C 
ATOM      4  C   UNL     1       6.122  -3.354  -0.297  0.00  0.00    -0.020 C 
ATOM      5  C   UNL     1       3.730  -2.022  -0.040  0.00  0.00    +0.229 C 
ATOM      6  O   UNL     1       2.851  -2.828   0.174  0.00  0.00    -0.275 OA
ATOM      7  N   UNL     1       3.624  -0.653  -0.037  0.00  0.00    -0.210 N 
ATOM      8  C   UNL     1       4.840  -0.028  -0.045  0.00  0.00    +0.229 C 
ATOM      9  O   UNL     1       5.056   1.139  -0.290  0.00  0.00    -0.275 OA
ATOM     10  N   UNL     1       7.368  -2.626  -0.692  0.00  0.00    +0.396 N 
ATOM     11  H   UNL     1       8.162  -2.976  -0.141  0.00  0.00    -0.083 HD
ATOM     12  H   UNL     1       7.554  -2.773  -1.691  0.00  0.00    -0.083 HD
ENDROOT
BRANCH   7  13
ATOM     13  C   UNL     1       2.400   0.031  -0.021  0.00  0.00    +0.044 A 
ATOM     14  C   UNL     1       1.207  -0.679  -0.013  0.00  0.00    +0.027 A 
ATOM     15  C   UNL     1       0.002  -0.004   0.002  0.00  0.00    +0.040 A 
ATOM     16  C   UNL     1      -0.017   1.381   0.010  0.00  0.00    +0.124 A 
ATOM     17  C   UNL     1       1.172   2.091   0.002  0.00  0.00    +0.040 A 
ATOM     18  C   UNL     1       2.379   1.419  -0.013  0.00  0.00    +0.027 A 
ATOM     19  F   UNL     1      -1.196   2.039   0.019  0.00  0.00    -0.205 F 
ENDBRANCH   7  13
BRANCH   4  20
ATOM     20  C   UNL     1       5.804  -4.454  -1.278  0.00  0.00    -0.023 A 
ATOM     21  C   UNL     1       5.309  -5.694  -1.039  0.00  0.00    +0.009 A 
ATOM     22  C   UNL     1       5.094  -6.546  -2.106  0.00  0.00    +0.008 A 
ATOM     23  C   UNL     1       5.383  -6.117  -3.359  0.00  0.00    +0.045 A 
ATOM     24  S   UNL     1       5.974  -4.460  -3.055  0.00  0.00    -0.103 S 
ENDBRANCH   4  20
BRANCH   1  25
ATOM     25  C   UNL     1       7.110  -0.411  -1.722  0.00  0.00    +0.297 C 
ATOM     26  O   UNL     1       6.332   0.505  -1.845  0.00  0.00    -0.252 OA
BRANCH  25  27
ATOM     27  O   UNL     1       7.918  -0.747  -2.740  0.00  0.00    -0.469 OA
ATOM     28  C   UNL     1       7.803   0.034  -3.959  0.00  0.00    +0.280 C 
ENDBRANCH  25  27
ENDBRANCH   1  25
BRANCH   1  29
ATOM     29  C   UNL     1       8.307  -0.638   0.451  0.00  0.00    -0.001 C 
BRANCH  29  31
ATOM     30  C   UNL     1      10.766  -0.212   0.572  0.00  0.00    +0.004 C 
ATOM     31  C   UNL     1       9.633  -0.750  -0.304  0.00  0.00    -0.004 C 
ENDBRANCH  29  31
ENDBRANCH   1  29
TORSDOF 6
