REMARK  Name = ZINC09097063
REMARK  12 active torsions:
REMARK  status: ('A' for Active; 'I' for Inactive)
REMARK    1  A    between atoms: C_1  and  O_2
REMARK    2  A    between atoms: O_2  and  C_3
REMARK    3  A    between atoms: C_8  and  N_9
REMARK    4  A    between atoms: N_9  and  S_10
REMARK    5  A    between atoms: S_10  and  C_13
REMARK    6  A    between atoms: C_15  and  N_32
REMARK    7  A    between atoms: C_18  and  N_19
REMARK    8  A    between atoms: N_19  and  N_20
REMARK    9  A    between atoms: C_21  and  C_22
REMARK   10  A    between atoms: C_25  and  C_28
REMARK   11  A    between atoms: C_28  and  O_30
REMARK   12  A    between atoms: O_30  and  C_31
REMARK                            x       y       z     vdW  Elec       q    Type
REMARK                         _______ _______ _______ _____ _____    ______ ____
ROOT
ATOM      1  C   UNL     1      -7.775   8.350  -0.061  0.00  0.00    +0.133 A 
ATOM      2  C   UNL     1      -8.066   9.700  -0.050  0.00  0.00    +0.063 A 
ATOM      3  C   UNL     1      -7.043  10.630  -0.096  0.00  0.00    +0.128 A 
ATOM      4  C   UNL     1      -5.725  10.211  -0.148  0.00  0.00    +0.035 A 
ATOM      5  C   UNL     1      -5.427   8.864  -0.154  0.00  0.00    +0.029 A 
ATOM      6  C   UNL     1      -6.452   7.926  -0.107  0.00  0.00    +0.075 A 
ENDROOT
BRANCH   1   7
ATOM      7  S   UNL     1      -9.079   7.166  -0.010  0.00  0.00    +0.074 S 
ATOM      8  O   UNL     1     -10.292   7.901   0.066  0.00  0.00    -0.150 OA
ATOM      9  O   UNL     1      -8.819   6.231  -1.048  0.00  0.00    -0.150 OA
BRANCH   7  10
ATOM     10  N   UNL     1      -8.935   6.340   1.418  0.00  0.00    -0.213 N 
ATOM     11  H   UNL     1      -8.795   5.380   1.411  0.00  0.00    +0.174 HD
BRANCH  10  17
ATOM     12  C   UNL     1      -8.228   6.630   3.713  0.00  0.00    +0.142 A 
ATOM     13  C   UNL     1      -8.311   7.314   4.915  0.00  0.00    +0.047 A 
ATOM     14  C   UNL     1      -9.174   8.387   5.042  0.00  0.00    +0.004 A 
ATOM     15  C   UNL     1      -9.955   8.781   3.972  0.00  0.00    +0.002 A 
ATOM     16  C   UNL     1      -9.874   8.108   2.768  0.00  0.00    +0.028 A 
ATOM     17  C   UNL     1      -9.015   7.027   2.635  0.00  0.00    +0.090 A 
BRANCH  12  19
ATOM     18  C   UNL     1      -6.603   5.225   4.734  0.00  0.00    +0.277 C 
ATOM     19  O   UNL     1      -7.379   5.575   3.587  0.00  0.00    -0.493 OA
ENDBRANCH  12  19
ENDBRANCH  10  17
ENDBRANCH   7  10
ENDBRANCH   1   7
BRANCH   3  20
ATOM     20  N   UNL     1      -7.359  12.076  -0.091  0.00  0.00    +0.056 N 
ATOM     21  O   UNL     1      -6.460  12.896  -0.132  0.00  0.00    -0.126 OA
ATOM     22  O   UNL     1      -8.519  12.445  -0.045  0.00  0.00    -0.126 OA
ENDBRANCH   3  20
BRANCH   6  23
ATOM     23  N   UNL     1      -6.154   6.563  -0.113  0.00  0.00    -0.236 N 
ATOM     24  H   UNL     1      -6.864   5.911  -0.003  0.00  0.00    +0.174 HD
BRANCH  23  25
ATOM     25  N   UNL     1      -4.830   6.136  -0.277  0.00  0.00    -0.190 NA
ATOM     26  C   UNL     1      -4.564   4.869  -0.388  0.00  0.00    +0.138 C 
BRANCH  26  27
ATOM     27  C   UNL     1      -3.190   4.427  -0.676  0.00  0.00    -0.005 A 
ATOM     28  C   UNL     1      -2.905   3.062  -0.797  0.00  0.00    +0.010 A 
ATOM     29  C   UNL     1      -1.630   2.653  -1.065  0.00  0.00    +0.015 A 
ATOM     30  C   UNL     1      -0.610   3.597  -1.219  0.00  0.00    +0.059 A 
ATOM     31  C   UNL     1      -0.894   4.961  -1.093  0.00  0.00    +0.015 A 
ATOM     32  C   UNL     1      -2.169   5.372  -0.831  0.00  0.00    +0.010 A 
BRANCH  30  33
ATOM     33  C   UNL     1       0.767   3.155  -1.508  0.00  0.00    +0.339 C 
ATOM     34  O   UNL     1       1.015   1.970  -1.612  0.00  0.00    -0.245 OA
BRANCH  33  35
ATOM     35  O   UNL     1       1.749   4.065  -1.662  0.00  0.00    -0.464 OA
ATOM     36  C   UNL     1       3.078   3.557  -1.951  0.00  0.00    +0.280 C 
ENDBRANCH  33  35
ENDBRANCH  30  33
ENDBRANCH  26  27
ENDBRANCH  23  25
ENDBRANCH   6  23
TORSDOF 10
