REMARK  Name = ZINC09282264
REMARK  11 active torsions:
REMARK  status: ('A' for Active; 'I' for Inactive)
REMARK    1  A    between atoms: C_1  and  C_2
REMARK    2  A    between atoms: C_2  and  O_3
REMARK    3  A    between atoms: O_3  and  C_4
REMARK    4  A    between atoms: C_7  and  C_10
REMARK    5  A    between atoms: C_17  and  N_34
REMARK    6  A    between atoms: C_18  and  C_32
REMARK    7  A    between atoms: C_19  and  C_21
REMARK    8  A    between atoms: C_23  and  O_29
REMARK    9  A    between atoms: C_24  and  O_28
REMARK   10  A    between atoms: O_29  and  C_30
REMARK   11  A    between atoms: C_30  and  C_31
REMARK                            x       y       z     vdW  Elec       q    Type
REMARK                         _______ _______ _______ _____ _____    ______ ____
ROOT
ATOM      1  C   UNL     1      -1.985  -6.023  -0.033  0.00  0.00    +0.074 A 
ATOM      2  C   UNL     1      -2.909  -6.740  -0.718  0.00  0.00    +0.054 A 
ATOM      3  C   UNL     1      -2.711  -8.103  -0.422  0.00  0.00    +0.245 A 
ATOM      4  N   UNL     1      -1.711  -8.201   0.408  0.00  0.00    -0.135 NA
ATOM      5  N   UNL     1      -1.224  -6.912   0.671  0.00  0.00    -0.273 N 
ATOM      6  H   UNL     1      -0.479  -6.691   1.252  0.00  0.00    +0.189 HD
ATOM      7  O   UNL     1      -3.489  -9.078  -0.965  0.00  0.00    -0.421 OA
ATOM      8  C   UNL     1      -4.278  -8.737  -2.003  0.00  0.00    +0.201 C 
ATOM      9  C   UNL     1      -4.549  -7.468  -2.373  0.00  0.00    +0.098 C 
ATOM     10  C   UNL     1      -3.993  -6.266  -1.651  0.00  0.00    +0.102 C 
ENDROOT
BRANCH  10  11
ATOM     11  C   UNL     1      -5.087  -5.596  -0.862  0.00  0.00    -0.030 A 
ATOM     12  C   UNL     1      -5.462  -4.300  -1.165  0.00  0.00    +0.054 A 
ATOM     13  C   UNL     1      -6.468  -3.682  -0.440  0.00  0.00    +0.163 A 
ATOM     14  C   UNL     1      -7.099  -4.367   0.593  0.00  0.00    +0.173 A 
ATOM     15  C   UNL     1      -6.719  -5.666   0.893  0.00  0.00    +0.063 A 
ATOM     16  C   UNL     1      -5.717  -6.279   0.161  0.00  0.00    +0.023 A 
ATOM     17 BR   UNL     1      -7.574  -6.602   2.296  0.00  0.00    -0.046 Br
BRANCH  14  18
ATOM     18  O   UNL     1      -8.087  -3.764   1.308  0.00  0.00    -0.503 OA
ATOM     19  H   UNL     1      -8.973  -3.897   0.944  0.00  0.00    +0.292 HD
ENDBRANCH  14  18
BRANCH  13  20
ATOM     20  O   UNL     1      -6.837  -2.407  -0.738  0.00  0.00    -0.489 OA
BRANCH  20  21
ATOM     21  C   UNL     1      -6.146  -1.765  -1.810  0.00  0.00    +0.226 C 
ATOM     22  C   UNL     1      -6.694  -0.348  -1.996  0.00  0.00    +0.048 C 
ENDBRANCH  20  21
ENDBRANCH  13  20
ENDBRANCH  10  11
BRANCH   1  26
ATOM     23  C   UNL     1      -1.530  -1.797  -0.082  0.00  0.00    +0.121 A 
ATOM     24  C   UNL     1      -1.528  -2.480   1.127  0.00  0.00    +0.046 A 
ATOM     25  C   UNL     1      -1.675  -3.851   1.147  0.00  0.00    +0.013 A 
ATOM     26  C   UNL     1      -1.827  -4.552  -0.050  0.00  0.00    +0.000 A 
ATOM     27  C   UNL     1      -1.829  -3.862  -1.263  0.00  0.00    +0.013 A 
ATOM     28  C   UNL     1      -1.686  -2.491  -1.274  0.00  0.00    +0.046 A 
BRANCH  23  29
ATOM     29  O   UNL     1      -1.385  -0.446  -0.097  0.00  0.00    -0.492 OA
BRANCH  29  31
ATOM     30  C   UNL     1      -1.079   1.711   0.949  0.00  0.00    +0.048 C 
ATOM     31  C   UNL     1      -1.228   0.204   1.166  0.00  0.00    +0.225 C 
ENDBRANCH  29  31
ENDBRANCH  23  29
ENDBRANCH   1  26
BRANCH   8  32
ATOM     32  N   UNL     1      -4.846  -9.751  -2.734  0.00  0.00    -0.328 N 
ATOM     33  H   UNL     1      -4.673 -10.675  -2.497  0.00  0.00    +0.145 HD
ATOM     34  H   UNL     1      -5.420  -9.543  -3.488  0.00  0.00    +0.145 HD
ENDBRANCH   8  32
BRANCH   9  35
ATOM     35  C   UNL     1      -5.404  -7.253  -3.501  0.00  0.00    +0.101 C 
ATOM     36  N   UNL     1      -6.082  -7.082  -4.397  0.00  0.00    -0.191 NA
ENDBRANCH   9  35
TORSDOF 9
