REMARK  Name = ZINC09323818
REMARK  3 active torsions:
REMARK  status: ('A' for Active; 'I' for Inactive)
REMARK    1  A    between atoms: C_3  and  C_9
REMARK    2  A    between atoms: C_12  and  C_14
REMARK    3  A    between atoms: N_20  and  C_21
REMARK                            x       y       z     vdW  Elec       q    Type
REMARK                         _______ _______ _______ _____ _____    ______ ____
ROOT
ATOM      1  C   UNL     1       1.750   3.149   0.002  0.00  0.00    +0.066 C 
ATOM      2  C   UNL     1       3.083   3.422   0.094  0.00  0.00    +0.081 C 
ATOM      3  C   UNL     1       4.228   2.498   0.099  0.00  0.00    +0.257 C 
ATOM      4  O   UNL     1       4.072   1.293   0.014  0.00  0.00    -0.269 OA
ATOM      5  N   UNL     1       5.433   3.032   0.200  0.00  0.00    -0.260 N 
ATOM      6  C   UNL     1       5.589   4.398   0.295  0.00  0.00    +0.166 C 
ATOM      7  N   UNL     1       6.703   5.088   0.400  0.00  0.00    -0.226 NA
ATOM      8  S   UNL     1       3.910   5.001   0.232  0.00  0.00    -0.049 S 
ATOM      9  H   UNL     1       6.214   2.458   0.208  0.00  0.00    +0.157 HD
ENDROOT
BRANCH   7  10
ATOM     10  C   UNL     1       6.657   6.454   0.483  0.00  0.00    +0.067 A 
ATOM     11  C   UNL     1       5.832   7.181  -0.378  0.00  0.00    +0.029 A 
ATOM     12  C   UNL     1       5.787   8.556  -0.287  0.00  0.00    +0.017 A 
ATOM     13  C   UNL     1       6.563   9.217   0.650  0.00  0.00    +0.018 A 
ATOM     14  C   UNL     1       7.387   8.502   1.504  0.00  0.00    +0.017 A 
ATOM     15  C   UNL     1       7.438   7.126   1.425  0.00  0.00    +0.029 A 
ATOM     16 BR   UNL     1       6.500  11.103   0.764  0.00  0.00    -0.050 Br
ENDBRANCH   7  10
BRANCH   1  20
ATOM     17  C   UNL     1       1.304  -0.387   0.099  0.00  0.00    +0.137 A 
ATOM     18  C   UNL     1      -0.006   0.002   0.101  0.00  0.00    +0.050 A 
ATOM     19  C   UNL     1      -0.021   1.399   0.065  0.00  0.00    +0.050 A 
ATOM     20  C   UNL     1       1.299   1.812   0.042  0.00  0.00    +0.130 A 
ATOM     21  O   UNL     1       2.081   0.711   0.063  0.00  0.00    -0.455 OA
BRANCH  17  24
ATOM     22  C   UNL     1       1.749  -3.975   1.109  0.00  0.00    +0.002 A 
ATOM     23  C   UNL     1       1.297  -2.672   1.088  0.00  0.00    +0.013 A 
ATOM     24  C   UNL     1       1.788  -1.780   0.131  0.00  0.00    +0.037 A 
ATOM     25  C   UNL     1       2.743  -2.214  -0.793  0.00  0.00    +0.070 A 
ATOM     26  C   UNL     1       3.191  -3.521  -0.756  0.00  0.00    +0.060 A 
ATOM     27  C   UNL     1       2.694  -4.399   0.193  0.00  0.00    +0.021 A 
ATOM     28 CL   UNL     1       4.377  -4.063  -1.902  0.00  0.00    -0.082 Cl
ATOM     29 CL   UNL     1       3.365  -1.114  -1.984  0.00  0.00    -0.081 Cl
ENDBRANCH  17  24
ENDBRANCH   1  20
TORSDOF 3
