REMARK  Name = ZINC40315539
REMARK  17 active torsions:
REMARK  status: ('A' for Active; 'I' for Inactive)
REMARK    1  A    between atoms: C_1  and  C_2
REMARK    2  A    between atoms: C_5  and  O_9
REMARK    3  A    between atoms: C_6  and  C_8
REMARK    4  A    between atoms: O_9  and  C_10
REMARK    5  A    between atoms: C_10  and  C_11
REMARK    6  A    between atoms: C_11  and  C_13
REMARK    7  A    between atoms: C_11  and  O_36
REMARK    8  A    between atoms: C_13  and  N_14
REMARK    9  A    between atoms: N_14  and  C_15
REMARK   10  A    between atoms: N_14  and  C_28
REMARK   11  A    between atoms: C_15  and  C_16
REMARK   12  A    between atoms: C_18  and  O_26
REMARK   13  A    between atoms: C_19  and  O_24
REMARK   14  A    between atoms: C_20  and  O_22
REMARK   15  A    between atoms: O_22  and  C_23
REMARK   16  A    between atoms: O_24  and  C_25
REMARK   17  A    between atoms: O_26  and  C_27
REMARK                            x       y       z     vdW  Elec       q    Type
REMARK                         _______ _______ _______ _____ _____    ______ ____
ROOT
ATOM      1  N   UNL     1      -0.557  -8.347  -2.788  0.00  0.00    +0.387 N 
ATOM      2  H   UNL     1      -1.544  -8.531  -2.682  0.00  0.00    -0.081 HD
ENDROOT
BRANCH   1   3
ATOM      3  C   UNL     1      -0.013  -7.848  -1.518  0.00  0.00    -0.045 C 
ATOM      4  C   UNL     1       0.364  -9.034  -0.613  0.00  0.00    +0.009 C 
ATOM      5  C   UNL     1       0.631  -8.534   0.827  0.00  0.00    +0.164 C 
ATOM      6  S   UNL     1      -0.427  -7.034   0.937  0.00  0.00    -0.033 S 
ATOM      7  O   UNL     1       0.402  -5.897   1.136  0.00  0.00    -0.174 OA
ATOM      8  O   UNL     1      -1.495  -7.287   1.840  0.00  0.00    -0.174 OA
ATOM      9  C   UNL     1      -1.089  -7.001  -0.782  0.00  0.00    +0.151 C 
ENDBRANCH   1   3
BRANCH   1  10
ATOM     10  C   UNL     1      -0.357  -7.338  -3.837  0.00  0.00    -0.043 C 
BRANCH  10  11
ATOM     11  C   UNL     1      -1.484  -6.306  -3.773  0.00  0.00    +0.135 C 
BRANCH  11  12
ATOM     12  O   UNL     1      -2.744  -6.978  -3.733  0.00  0.00    -0.390 OA
ATOM     13  H   UNL     1      -2.915  -7.539  -4.502  0.00  0.00    +0.210 HD
ENDBRANCH  11  12
BRANCH  11  14
ATOM     14  C   UNL     1      -1.423  -5.407  -5.010  0.00  0.00    +0.258 C 
BRANCH  14  15
ATOM     15  O   UNL     1      -2.401  -4.372  -4.895  0.00  0.00    -0.489 OA
BRANCH  15  20
ATOM     16  C   UNL     1      -2.728  -0.681  -9.137  0.00  0.00    +0.044 C 
ATOM     17  C   UNL     1      -2.640  -1.668  -8.002  0.00  0.00    -0.050 A 
ATOM     18  C   UNL     1      -1.715  -2.695  -8.050  0.00  0.00    +0.007 A 
ATOM     19  C   UNL     1      -1.633  -3.601  -7.011  0.00  0.00    +0.046 A 
ATOM     20  C   UNL     1      -2.479  -3.481  -5.918  0.00  0.00    +0.124 A 
ATOM     21  C   UNL     1      -3.406  -2.450  -5.872  0.00  0.00    -0.009 A 
ATOM     22  C   UNL     1      -3.481  -1.543  -6.912  0.00  0.00    +0.010 A 
ATOM     23  C   UNL     1      -4.327  -2.316  -4.687  0.00  0.00    +0.047 C 
ENDBRANCH  15  20
ENDBRANCH  14  15
ENDBRANCH  11  14
ENDBRANCH  10  11
ENDBRANCH   1  10
BRANCH   1  24
ATOM     24  C   UNL     1       0.134  -9.588  -3.164  0.00  0.00    -0.042 C 
BRANCH  24  25
ATOM     25  C   UNL     1      -0.395 -10.729  -2.334  0.00  0.00    -0.057 A 
ATOM     26  C   UNL     1       0.483 -11.559  -1.663  0.00  0.00    +0.051 A 
ATOM     27  C   UNL     1      -0.000 -12.610  -0.898  0.00  0.00    +0.165 A 
ATOM     28  C   UNL     1      -1.370 -12.829  -0.808  0.00  0.00    +0.204 A 
ATOM     29  C   UNL     1      -2.249 -11.992  -1.484  0.00  0.00    +0.165 A 
ATOM     30  C   UNL     1      -1.758 -10.940  -2.242  0.00  0.00    +0.051 A 
BRANCH  29  31
ATOM     31  O   UNL     1      -3.590 -12.202  -1.399  0.00  0.00    -0.491 OA
ATOM     32  C   UNL     1      -4.435 -11.303  -2.121  0.00  0.00    +0.277 C 
ENDBRANCH  29  31
BRANCH  28  33
ATOM     33  O   UNL     1      -1.848 -13.860  -0.060  0.00  0.00    -0.488 OA
ATOM     34  C   UNL     1      -2.131 -13.588   1.314  0.00  0.00    +0.277 C 
ENDBRANCH  28  33
BRANCH  27  35
ATOM     35  O   UNL     1       0.865 -13.426  -0.239  0.00  0.00    -0.491 OA
ATOM     36  C   UNL     1       2.258 -13.142  -0.377  0.00  0.00    +0.277 C 
ENDBRANCH  27  35
ENDBRANCH  24  25
ENDBRANCH   1  24
TORSDOF 12
