REMARK  Name = ZINC09634871
REMARK  13 active torsions:
REMARK  status: ('A' for Active; 'I' for Inactive)
REMARK    1  A    between atoms: C_1  and  C_2
REMARK    2  A    between atoms: C_2  and  O_3
REMARK    3  A    between atoms: O_3  and  C_4
REMARK    4  A    between atoms: C_6  and  C_17
REMARK    5  A    between atoms: C_9  and  O_10
REMARK    6  A    between atoms: O_10  and  C_11
REMARK    7  A    between atoms: C_11  and  C_12
REMARK    8  A    between atoms: N_14  and  C_15
REMARK    9  A    between atoms: N_14  and  C_16
REMARK   10  A    between atoms: N_18  and  N_19
REMARK   11  A    between atoms: N_19  and  C_20
REMARK   12  A    between atoms: C_23  and  C_29
REMARK   13  A    between atoms: C_25  and  N_26
REMARK                            x       y       z     vdW  Elec       q    Type
REMARK                         _______ _______ _______ _____ _____    ______ ____
ROOT
ATOM      1  C   UNL     1       1.174   3.706   0.982  0.00  0.00    +0.138 C 
ATOM      2  N   UNL     1       2.288   4.327   0.743  0.00  0.00    -0.190 NA
ENDROOT
BRANCH   1   5
ATOM      3  C   UNL     1      -0.011   0.220   1.719  0.00  0.00    +0.163 A 
ATOM      4  C   UNL     1      -0.021   1.582   1.488  0.00  0.00    +0.059 A 
ATOM      5  C   UNL     1       1.178   2.252   1.230  0.00  0.00    -0.002 A 
ATOM      6  C   UNL     1       2.380   1.542   1.208  0.00  0.00    +0.013 A 
ATOM      7  C   UNL     1       2.382   0.182   1.439  0.00  0.00    +0.050 A 
ATOM      8  C   UNL     1       1.192  -0.483   1.696  0.00  0.00    +0.163 A 
BRANCH   3   9
ATOM      9  O   UNL     1      -1.176  -0.436   1.971  0.00  0.00    -0.489 OA
BRANCH   9  11
ATOM     10  C   UNL     1      -3.570  -0.556   2.278  0.00  0.00    +0.048 C 
ATOM     11  C   UNL     1      -2.372   0.347   1.980  0.00  0.00    +0.226 C 
ENDBRANCH   9  11
ENDBRANCH   3   9
BRANCH   8  12
ATOM     12  O   UNL     1       1.199  -1.823   1.924  0.00  0.00    -0.479 OA
BRANCH  12  13
ATOM     13  C   UNL     1       2.467  -2.481   1.885  0.00  0.00    +0.324 C 
BRANCH  13  14
ATOM     14  C   UNL     1       2.279  -3.951   2.158  0.00  0.00    +0.253 C 
ATOM     15  O   UNL     1       1.168  -4.392   2.366  0.00  0.00    -0.272 OA
ATOM     16  N   UNL     1       3.345  -4.776   2.171  0.00  0.00    -0.305 N 
ATOM     17  C   UNL     1       3.162  -6.205   2.437  0.00  0.00    +0.131 C 
ATOM     18  C   UNL     1       4.686  -4.243   1.920  0.00  0.00    +0.131 C 
ENDBRANCH  13  14
ENDBRANCH  12  13
ENDBRANCH   8  12
ENDBRANCH   1   5
BRANCH   2  19
ATOM     19  N   UNL     1       2.284   5.708   0.507  0.00  0.00    -0.236 N 
ATOM     20  H   UNL     1       1.449   6.200   0.522  0.00  0.00    +0.174 HD
BRANCH  19  21
ATOM     21  C   UNL     1       3.482   6.375   0.250  0.00  0.00    +0.078 A 
ATOM     22  C   UNL     1       4.692   5.695   0.339  0.00  0.00    +0.027 A 
ATOM     23  C   UNL     1       5.875   6.359   0.084  0.00  0.00    +0.014 A 
ATOM     24  C   UNL     1       5.859   7.698  -0.260  0.00  0.00    +0.057 A 
ATOM     25  C   UNL     1       4.658   8.378  -0.350  0.00  0.00    +0.047 A 
ATOM     26  C   UNL     1       3.470   7.719  -0.102  0.00  0.00    +0.149 A 
BRANCH  24  27
ATOM     27  C   UNL     1       7.153   8.419  -0.537  0.00  0.00    +0.417 C 
ATOM     28  F   UNL     1       8.223   7.531  -0.385  0.00  0.00    -0.166 F 
ATOM     29  F   UNL     1       7.140   8.913  -1.846  0.00  0.00    -0.166 F 
ATOM     30  F   UNL     1       7.297   9.482   0.361  0.00  0.00    -0.166 F 
ENDBRANCH  24  27
BRANCH  26  31
ATOM     31  N   UNL     1       2.183   8.447  -0.204  0.00  0.00    +0.058 N 
ATOM     32  O   UNL     1       1.200   7.884  -0.651  0.00  0.00    -0.126 OA
ATOM     33  O   UNL     1       2.110   9.607   0.159  0.00  0.00    -0.126 OA
ENDBRANCH  26  31
ENDBRANCH  19  21
ENDBRANCH   2  19
TORSDOF 10
