REMARK  Name = ZINC01182084
REMARK  8 active torsions:
REMARK  status: ('A' for Active; 'I' for Inactive)
REMARK    1  A    between atoms: C_1  and  C_2
REMARK    2  A    between atoms: C_3  and  C_30
REMARK    3  A    between atoms: C_4  and  C_21
REMARK    4  A    between atoms: C_10  and  C_15
REMARK    5  A    between atoms: C_25  and  N_27
REMARK    6  A    between atoms: C_30  and  O_32
REMARK    7  A    between atoms: O_32  and  C_33
REMARK    8  A    between atoms: C_33  and  C_34
REMARK                            x       y       z     vdW  Elec       q    Type
REMARK                         _______ _______ _______ _____ _____    ______ ____
ROOT
ATOM      1  C   UNL     1       2.246  -1.795   2.529  0.00  0.00    +0.061 C 
ATOM      2  C   UNL     1       2.268  -1.057   1.215  0.00  0.00    +0.031 C 
ATOM      3  C   UNL     1       2.446   0.275   1.201  0.00  0.00    +0.154 C 
ATOM      4  C   UNL     1       2.469   1.044  -0.086  0.00  0.00    +0.073 C 
ATOM      5  C   UNL     1       2.694   0.126  -1.262  0.00  0.00    +0.025 C 
ATOM      6  C   UNL     1       2.508  -1.204  -1.145  0.00  0.00    +0.049 C 
ATOM      7  N   UNL     1       2.107  -1.747   0.046  0.00  0.00    -0.260 NA
ATOM      8  C   UNL     1       2.737  -2.128  -2.316  0.00  0.00    +0.064 C 
ATOM      9  C   UNL     1       2.432  -1.394  -3.618  0.00  0.00    +0.032 C 
ATOM     10  C   UNL     1       3.329  -0.155  -3.701  0.00  0.00    +0.088 C 
ATOM     11  C   UNL     1       3.102   0.696  -2.481  0.00  0.00    +0.162 C 
ATOM     12  O   UNL     1       3.273   1.897  -2.550  0.00  0.00    -0.292 OA
ENDROOT
BRANCH   4  13
ATOM     13  C   UNL     1       1.148   1.749  -0.255  0.00  0.00    -0.036 A 
ATOM     14  C   UNL     1      -0.022   1.016  -0.326  0.00  0.00    +0.008 A 
ATOM     15  C   UNL     1      -1.233   1.660  -0.485  0.00  0.00    +0.053 A 
ATOM     16  C   UNL     1      -1.276   3.045  -0.564  0.00  0.00    +0.209 A 
ATOM     17  C   UNL     1      -0.101   3.778  -0.493  0.00  0.00    +0.173 A 
ATOM     18  C   UNL     1       1.109   3.129  -0.339  0.00  0.00    +0.041 A 
ATOM     19  O   UNL     1      -2.467   3.682  -0.716  0.00  0.00    -0.285 OA
BRANCH  17  20
ATOM     20  N   UNL     1      -0.143   5.255  -0.582  0.00  0.00    +0.060 N 
ATOM     21  O   UNL     1       0.890   5.898  -0.519  0.00  0.00    -0.126 OA
ATOM     22  O   UNL     1      -1.209   5.827  -0.718  0.00  0.00    -0.126 OA
ENDBRANCH  17  20
ENDBRANCH   4  13
BRANCH   9  23
ATOM     23  C   UNL     1       2.713  -2.301  -4.789  0.00  0.00    -0.044 A 
ATOM     24  C   UNL     1       3.982  -2.817  -4.975  0.00  0.00    +0.004 A 
ATOM     25  C   UNL     1       4.238  -3.652  -6.047  0.00  0.00    +0.000 A 
ATOM     26  C   UNL     1       3.227  -3.964  -6.936  0.00  0.00    +0.000 A 
ATOM     27  C   UNL     1       1.960  -3.445  -6.753  0.00  0.00    +0.000 A 
ATOM     28  C   UNL     1       1.702  -2.613  -5.679  0.00  0.00    +0.004 A 
ENDBRANCH   9  23
BRANCH   3  29
ATOM     29  C   UNL     1       2.618   0.965   2.423  0.00  0.00    +0.317 C 
ATOM     30  O   UNL     1       3.719   1.374   2.741  0.00  0.00    -0.250 OA
BRANCH  29  31
ATOM     31  O   UNL     1       1.561   1.171   3.236  0.00  0.00    -0.459 OA
BRANCH  31  32
ATOM     32  C   UNL     1       1.807   1.875   4.455  0.00  0.00    +0.267 C 
BRANCH  32  33
ATOM     33  C   UNL     1       0.520   2.009   5.227  0.00  0.00    -0.010 A 
ATOM     34  C   UNL     1      -0.292   3.110   5.032  0.00  0.00    +0.007 A 
ATOM     35  C   UNL     1      -1.475   3.231   5.736  0.00  0.00    +0.000 A 
ATOM     36  C   UNL     1      -1.841   2.255   6.644  0.00  0.00    +0.000 A 
ATOM     37  C   UNL     1      -1.026   1.156   6.844  0.00  0.00    +0.000 A 
ATOM     38  C   UNL     1       0.154   1.033   6.136  0.00  0.00    +0.007 A 
ENDBRANCH  32  33
ENDBRANCH  31  32
ENDBRANCH  29  31
ENDBRANCH   3  29
TORSDOF 7
