REMARK  Name = ZINC25382145
REMARK  11 active torsions:
REMARK  status: ('A' for Active; 'I' for Inactive)
REMARK    1  A    between atoms: C_1  and  C_2
REMARK    2  A    between atoms: C_6  and  O_33
REMARK    3  A    between atoms: C_12  and  C_13
REMARK    4  A    between atoms: C_13  and  C_14
REMARK    5  A    between atoms: C_14  and  C_15
REMARK    6  A    between atoms: N_17  and  C_18
REMARK    7  A    between atoms: C_18  and  C_19
REMARK    8  A    between atoms: C_19  and  C_21
REMARK    9  A    between atoms: C_19  and  N_26
REMARK   10  A    between atoms: C_29  and  C_32
REMARK   11  A    between atoms: O_33  and  C_34
REMARK                            x       y       z     vdW  Elec       q    Type
REMARK                         _______ _______ _______ _____ _____    ______ ____
ROOT
ATOM      1  C   UNL     1       6.872  -4.048   1.116  0.00  0.00    +0.213 C 
ATOM      2  O   UNL     1       7.391  -4.522   0.128  0.00  0.00    -0.276 OA
ATOM      3  N   UNL     1       7.394  -4.292   2.334  0.00  0.00    -0.317 N 
ATOM      4  H   UNL     1       6.923  -3.862   3.231  0.00  0.00    +0.149 HD
ENDROOT
BRANCH   1   5
ATOM      5  C   UNL     1       5.644  -3.185   0.981  0.00  0.00    +0.100 C 
BRANCH   5   6
ATOM      6  C   UNL     1       5.263  -3.067  -0.496  0.00  0.00    +0.052 C 
BRANCH   6  18
ATOM      7  C   UNL     1       5.519  -0.211  -0.838  0.00  0.00    +0.045 C 
ATOM      8  C   UNL     1       4.160  -0.861  -0.791  0.00  0.00    -0.030 A 
ATOM      9  C   UNL     1       2.939  -0.062  -0.917  0.00  0.00    +0.021 A 
ATOM     10  C   UNL     1       3.000   1.326  -1.085  0.00  0.00    +0.015 A 
ATOM     11  C   UNL     1       1.847   2.047  -1.199  0.00  0.00    +0.046 A 
ATOM     12  C   UNL     1       0.609   1.409  -1.151  0.00  0.00    +0.124 A 
ATOM     13  C   UNL     1       0.529   0.036  -0.985  0.00  0.00    +0.092 A 
ATOM     14  C   UNL     1       1.691  -0.712  -0.867  0.00  0.00    +0.143 A 
ATOM     15  O   UNL     1       1.637  -2.051  -0.705  0.00  0.00    -0.422 OA
ATOM     16  C   UNL     1       2.752  -2.789  -0.589  0.00  0.00    +0.341 A 
ATOM     17  O   UNL     1       2.653  -3.994  -0.444  0.00  0.00    -0.245 OA
ATOM     18  C   UNL     1       4.034  -2.204  -0.630  0.00  0.00    +0.041 A 
BRANCH  12  19
ATOM     19  O   UNL     1      -0.529   2.140  -1.272  0.00  0.00    -0.495 OA
ATOM     20  C   UNL     1      -0.380   3.551  -1.440  0.00  0.00    +0.277 C 
ENDBRANCH  12  19
ENDBRANCH   6  18
ENDBRANCH   5   6
ENDBRANCH   1   5
BRANCH   3  21
ATOM     21  C   UNL     1       8.588  -5.131   2.465  0.00  0.00    +0.094 C 
BRANCH  21  22
ATOM     22  C   UNL     1       8.969  -5.248   3.942  0.00  0.00    -0.013 C 
BRANCH  22  23
ATOM     23  N   UNL     1       7.818  -5.745   4.707  0.00  0.00    +0.386 N 
ATOM     24  C   UNL     1       7.204  -6.902   4.043  0.00  0.00    -0.078 C 
ATOM     25  C   UNL     1       5.928  -7.301   4.787  0.00  0.00    -0.015 C 
ATOM     26  C   UNL     1       6.274  -7.646   6.237  0.00  0.00    -0.018 C 
ATOM     27  C   UNL     1       6.956  -6.441   6.892  0.00  0.00    -0.015 C 
ATOM     28  C   UNL     1       8.203  -6.067   6.087  0.00  0.00    -0.078 C 
ATOM     29  C   UNL     1       4.994  -7.987   7.002  0.00  0.00    +0.007 C 
ATOM     30  H   UNL     1       7.066  -4.944   4.747  0.00  0.00    -0.081 HD
ENDBRANCH  22  23
BRANCH  22  31
ATOM     31  C   UNL     1      10.122  -6.209   4.088  0.00  0.00    -0.022 A 
ATOM     32  C   UNL     1      11.419  -5.947   4.379  0.00  0.00    +0.009 A 
ATOM     33  C   UNL     1      12.313  -6.998   4.464  0.00  0.00    +0.008 A 
ATOM     34  C   UNL     1      11.864  -8.260   4.255  0.00  0.00    +0.045 A 
ATOM     35  S   UNL     1      10.130  -7.987   3.931  0.00  0.00    -0.103 S 
ENDBRANCH  22  31
ENDBRANCH  21  22
ENDBRANCH   3  21
TORSDOF 8
