REMARK  Name = ZINC09103246
REMARK  14 active torsions:
REMARK  status: ('A' for Active; 'I' for Inactive)
REMARK    1  A    between atoms: C_1  and  C_2
REMARK    2  A    between atoms: C_2  and  C_3
REMARK    3  A    between atoms: C_3  and  C_5
REMARK    4  A    between atoms: C_3  and  C_6
REMARK    5  A    between atoms: C_9  and  N_12
REMARK    6  A    between atoms: C_13  and  C_15
REMARK    7  A    between atoms: C_15  and  S_16
REMARK    8  A    between atoms: S_16  and  C_17
REMARK    9  A    between atoms: C_20  and  C_29
REMARK   10  A    between atoms: N_21  and  C_22
REMARK   11  A    between atoms: C_29  and  C_31
REMARK   12  A    between atoms: C_29  and  N_62
REMARK   13  A    between atoms: C_32  and  N_62
REMARK   14  A    between atoms: C_33  and  N_62
REMARK                            x       y       z     vdW  Elec       q    Type
REMARK                         _______ _______ _______ _____ _____    ______ ____
ROOT
ATOM      1  C   UNL     1       1.242  -0.434   0.001  0.00  0.00    +0.197 A 
ATOM      2  N   UNL     1       0.002  -0.004   0.024  0.00  0.00    -0.122 NA
ATOM      3  N   UNL     1      -0.016   1.281   0.038  0.00  0.00    -0.135 NA
ATOM      4  C   UNL     1       1.201   1.746   0.024  0.00  0.00    +0.125 A 
ATOM      5  N   UNL     1       2.049   0.670   0.001  0.00  0.00    -0.275 N 
ENDROOT
BRANCH   5   6
ATOM      6  C   UNL     1       3.451   0.696  -0.020  0.00  0.00    +0.050 A 
ATOM      7  C   UNL     1       4.153   1.211   1.061  0.00  0.00    +0.028 A 
ATOM      8  C   UNL     1       5.534   1.232   1.041  0.00  0.00    +0.022 A 
ATOM      9  C   UNL     1       6.217   0.748  -0.061  0.00  0.00    +0.041 A 
ATOM     10  C   UNL     1       5.520   0.238  -1.142  0.00  0.00    +0.022 A 
ATOM     11  C   UNL     1       4.139   0.212  -1.124  0.00  0.00    +0.028 A 
ATOM     12 CL   UNL     1       7.953   0.780  -0.086  0.00  0.00    -0.084 Cl
ENDBRANCH   5   6
BRANCH   4  13
ATOM     13  C   UNL     1       1.602   3.199   0.033  0.00  0.00    -0.003 C 
ATOM     14  C   UNL     1       1.357   3.804  -1.351  0.00  0.00    -0.005 C 
BRANCH  13  17
ATOM     15  C   UNL     1       0.942   3.308   2.360  0.00  0.00    -0.096 C 
ATOM     16  C   UNL     1       1.168   5.344   1.069  0.00  0.00    -0.096 C 
ATOM     17  N   UNL     1       0.776   3.920   1.024  0.00  0.00    +0.382 N 
ATOM     18  H   UNL     1      -0.210   3.854   0.747  0.00  0.00    -0.082 HD
ENDBRANCH  13  17
ENDBRANCH   4  13
BRANCH   1  19
ATOM     19  S   UNL     1       1.768  -2.116  -0.024  0.00  0.00    -0.076 S 
BRANCH  19  20
ATOM     20  C   UNL     1       0.161  -2.948  -0.008  0.00  0.00    +0.173 C 
BRANCH  20  22
ATOM     21  N   UNL     1      -0.696  -5.269  -0.019  0.00  0.00    -0.285 N 
ATOM     22  C   UNL     1       0.367  -4.441  -0.026  0.00  0.00    +0.227 C 
ATOM     23  O   UNL     1       1.491  -4.897  -0.048  0.00  0.00    -0.275 OA
ATOM     24  H   UNL     1      -1.592  -4.907   0.066  0.00  0.00    +0.155 HD
BRANCH  21  28
ATOM     25  C   UNL     1      -0.136  -9.383  -0.360  0.00  0.00    -0.044 A 
ATOM     26  C   UNL     1       0.785  -8.616   0.330  0.00  0.00    +0.006 A 
ATOM     27  C   UNL     1       0.603  -7.252   0.444  0.00  0.00    +0.023 A 
ATOM     28  C   UNL     1      -0.508  -6.650  -0.134  0.00  0.00    +0.033 A 
ATOM     29  C   UNL     1      -1.434  -7.424  -0.821  0.00  0.00    +0.023 A 
ATOM     30  C   UNL     1      -1.242  -8.787  -0.937  0.00  0.00    +0.006 A 
BRANCH  25  31
ATOM     31  C   UNL     1       0.067 -10.871  -0.483  0.00  0.00    +0.016 C 
ATOM     32  C   UNL     1      -1.119 -11.601   0.150  0.00  0.00    +0.012 C 
BRANCH  31  34
ATOM     33  C   UNL     1       0.500 -12.740  -2.084  0.00  0.00    +0.004 C 
ATOM     34  C   UNL     1       0.170 -11.251  -1.962  0.00  0.00    +0.004 C 
ENDBRANCH  31  34
ENDBRANCH  25  31
ENDBRANCH  21  28
ENDBRANCH  20  22
ENDBRANCH  19  20
ENDBRANCH   1  19
TORSDOF 9
