REMARK  Name = ZINC04340339
REMARK  15 active torsions:
REMARK  status: ('A' for Active; 'I' for Inactive)
REMARK    1  A    between atoms: C_1  and  C_2
REMARK    2  A    between atoms: C_2  and  C_3
REMARK    3  A    between atoms: C_3  and  C_4
REMARK    4  A    between atoms: C_7  and  C_12
REMARK    5  A    between atoms: N_9  and  C_11
REMARK    6  A    between atoms: N_14  and  C_15
REMARK    7  A    between atoms: C_15  and  C_17
REMARK    8  A    between atoms: C_15  and  C_33
REMARK    9  A    between atoms: C_19  and  O_32
REMARK   10  A    between atoms: C_21  and  O_31
REMARK   11  A    between atoms: C_23  and  O_30
REMARK   12  A    between atoms: C_25  and  S_28
REMARK   13  A    between atoms: S_28  and  C_29
REMARK   14  A    between atoms: C_33  and  C_35
REMARK   15  A    between atoms: C_33  and  O_36
REMARK                            x       y       z     vdW  Elec       q    Type
REMARK                         _______ _______ _______ _____ _____    ______ ____
ROOT
ATOM      1  C   UNL     1      -0.800  -4.726  -5.218  0.00  0.00    +0.132 C 
ENDROOT
BRANCH   1   2
ATOM      2  C   UNL     1       0.547  -4.365  -5.848  0.00  0.00    +0.173 C 
ATOM      3  C   UNL     1       0.764  -2.853  -5.759  0.00  0.00    +0.176 C 
ATOM      4  C   UNL     1      -0.329  -2.140  -6.561  0.00  0.00    +0.177 C 
ATOM      5  C   UNL     1      -0.300  -2.648  -8.006  0.00  0.00    +0.184 C 
ATOM      6  C   UNL     1      -0.476  -4.168  -8.008  0.00  0.00    +0.207 C 
ATOM      7  O   UNL     1       0.555  -4.767  -7.219  0.00  0.00    -0.356 OA
BRANCH   6   8
ATOM      8  S   UNL     1      -0.372  -4.787  -9.710  0.00  0.00    -0.131 S 
ATOM      9  C   UNL     1      -0.895  -6.519  -9.580  0.00  0.00    +0.087 C 
ENDBRANCH   6   8
BRANCH   5  10
ATOM     10  O   UNL     1       0.952  -2.310  -8.605  0.00  0.00    -0.386 OA
ATOM     11  H   UNL     1       1.040  -2.601  -9.523  0.00  0.00    +0.210 HD
ENDBRANCH   5  10
BRANCH   4  12
ATOM     12  O   UNL     1      -1.605  -2.417  -5.980  0.00  0.00    -0.386 OA
ATOM     13  H   UNL     1      -2.345  -1.996  -6.439  0.00  0.00    +0.210 HD
ENDBRANCH   4  12
BRANCH   3  14
ATOM     14  O   UNL     1       2.046  -2.522  -6.297  0.00  0.00    -0.387 OA
ATOM     15  H   UNL     1       2.251  -1.577  -6.273  0.00  0.00    +0.210 HD
ENDBRANCH   3  14
ENDBRANCH   1   2
BRANCH   1  18
ATOM     16  C   UNL     1      -2.068  -3.905  -3.306  0.00  0.00    +0.200 C 
ATOM     17  O   UNL     1      -3.088  -4.126  -3.924  0.00  0.00    -0.278 OA
ATOM     18  N   UNL     1      -0.871  -4.170  -3.864  0.00  0.00    -0.309 N 
ATOM     19  H   UNL     1      -0.055  -3.992  -3.370  0.00  0.00    +0.149 HD
BRANCH  16  22
ATOM     20  C   UNL     1      -2.118  -1.274  -0.640  0.00  0.00    -0.029 C 
ATOM     21  C   UNL     1      -1.439  -1.953  -1.852  0.00  0.00    -0.005 C 
ATOM     22  C   UNL     1      -2.141  -3.333  -1.914  0.00  0.00    +0.019 C 
ATOM     23  N   UNL     1      -3.545  -3.017  -1.545  0.00  0.00    +0.386 N 
ATOM     24  C   UNL     1      -3.461  -2.006  -0.466  0.00  0.00    -0.075 C 
ATOM     25  C   UNL     1      -4.223  -4.224  -1.055  0.00  0.00    -0.095 C 
ATOM     26  H   UNL     1      -4.037  -2.639  -2.341  0.00  0.00    -0.081 HD
BRANCH  20  27
ATOM     27  C   UNL     1      -2.354   0.210  -0.926  0.00  0.00    +0.001 C 
BRANCH  27  29
ATOM     28  C   UNL     1      -1.245   2.419  -1.292  0.00  0.00    +0.004 C 
ATOM     29  C   UNL     1      -1.009   0.935  -1.006  0.00  0.00    -0.003 C 
ENDBRANCH  27  29
ENDBRANCH  20  27
ENDBRANCH  16  22
ENDBRANCH   1  18
BRANCH   1  30
ATOM     30  C   UNL     1      -0.942  -6.248  -5.152  0.00  0.00    +0.134 C 
ATOM     31  C   UNL     1      -2.324  -6.608  -4.602  0.00  0.00    +0.039 C 
BRANCH  30  32
ATOM     32  O   UNL     1      -0.793  -6.797  -6.463  0.00  0.00    -0.390 OA
ATOM     33  H   UNL     1       0.101  -6.715  -6.824  0.00  0.00    +0.210 HD
ENDBRANCH  30  32
ENDBRANCH   1  30
TORSDOF 11
