REMARK  Name = ZINC08431857
REMARK  10 active torsions:
REMARK  status: ('A' for Active; 'I' for Inactive)
REMARK    1  A    between atoms: C_1  and  C_2
REMARK    2  A    between atoms: C_2  and  C_3
REMARK    3  A    between atoms: C_2  and  C_4
REMARK    4  A    between atoms: C_2  and  C_5
REMARK    5  A    between atoms: N_16  and  C_31
REMARK    6  A    between atoms: N_19  and  N_20
REMARK    7  A    between atoms: C_21  and  C_22
REMARK    8  A    between atoms: C_25  and  N_28
REMARK    9  A    between atoms: N_28  and  C_29
REMARK   10  A    between atoms: N_28  and  C_30
REMARK                            x       y       z     vdW  Elec       q    Type
REMARK                         _______ _______ _______ _____ _____    ______ ____
ROOT
ATOM      1  C   UNL     1       6.188  -0.861   2.124  0.00  0.00    -0.000 C 
ATOM      2  C   UNL     1       4.983  -1.287   2.967  0.00  0.00    +0.009 C 
ATOM      3  C   UNL     1       3.749  -1.428   2.075  0.00  0.00    +0.037 C 
ATOM      4  C   UNL     1       3.571  -0.140   1.275  0.00  0.00    -0.023 A 
ATOM      5  C   UNL     1       4.594   0.725   1.125  0.00  0.00    -0.004 A 
ATOM      6  S   UNL     1       3.938   2.047   0.143  0.00  0.00    -0.073 S 
ATOM      7  C   UNL     1       2.286   1.432  -0.063  0.00  0.00    +0.118 A 
ATOM      8  C   UNL     1       2.300   0.216   0.640  0.00  0.00    +0.076 A 
ATOM      9  C   UNL     1       1.071  -0.517   0.645  0.00  0.00    +0.268 A 
ATOM     10  O   UNL     1       0.989  -1.583   1.230  0.00  0.00    -0.266 OA
ATOM     11  N   UNL     1       0.006  -0.012  -0.005  0.00  0.00    -0.247 N 
ATOM     12  C   UNL     1       0.081   1.183  -0.666  0.00  0.00    +0.224 A 
ATOM     13  N   UNL     1       1.200   1.876  -0.686  0.00  0.00    -0.207 NA
ATOM     14  N   UNL     1      -1.025   1.663  -1.324  0.00  0.00    -0.206 N 
ATOM     15  C   UNL     1       5.983   0.592   1.671  0.00  0.00    +0.046 C 
ATOM     16  H   UNL     1      -1.830   1.124  -1.376  0.00  0.00    +0.177 HD
ENDROOT
BRANCH  11  17
ATOM     17  C   UNL     1      -1.200  -0.723  -0.005  0.00  0.00    +0.053 A 
ATOM     18  C   UNL     1      -2.141  -0.498   0.992  0.00  0.00    +0.026 A 
ATOM     19  C   UNL     1      -3.332  -1.197   0.986  0.00  0.00    +0.002 A 
ATOM     20  C   UNL     1      -3.583  -2.129  -0.003  0.00  0.00    +0.000 A 
ATOM     21  C   UNL     1      -2.647  -2.360  -0.994  0.00  0.00    +0.002 A 
ATOM     22  C   UNL     1      -1.456  -1.660  -0.997  0.00  0.00    +0.026 A 
ENDBRANCH  11  17
BRANCH   1  24
ATOM     23  C   UNL     1       7.337  -0.059   4.192  0.00  0.00    +0.011 C 
ATOM     24  C   UNL     1       7.463  -0.961   2.964  0.00  0.00    -0.035 C 
ATOM     25  C   UNL     1       7.665  -2.410   3.413  0.00  0.00    +0.011 C 
ATOM     26  C   UNL     1       8.663  -0.516   2.125  0.00  0.00    +0.011 C 
ENDBRANCH   1  24
BRANCH  14  27
ATOM     27  N   UNL     1      -0.991   2.931  -1.919  0.00  0.00    -0.188 NA
ATOM     28  C   UNL     1      -2.036   3.385  -2.540  0.00  0.00    +0.138 C 
BRANCH  28  29
ATOM     29  C   UNL     1      -2.000   4.719  -3.166  0.00  0.00    -0.005 A 
ATOM     30  C   UNL     1      -0.843   5.499  -3.086  0.00  0.00    +0.011 A 
ATOM     31  C   UNL     1      -0.811   6.743  -3.677  0.00  0.00    +0.024 A 
ATOM     32  C   UNL     1      -1.932   7.228  -4.342  0.00  0.00    +0.029 A 
ATOM     33  C   UNL     1      -3.087   6.457  -4.419  0.00  0.00    +0.024 A 
ATOM     34  C   UNL     1      -3.124   5.210  -3.835  0.00  0.00    +0.011 A 
BRANCH  32  35
ATOM     35  N   UNL     1      -1.897   8.491  -4.934  0.00  0.00    -0.336 N 
ATOM     36  C   UNL     1      -3.077   9.003  -5.636  0.00  0.00    +0.129 C 
ATOM     37  C   UNL     1      -0.682   9.304  -4.855  0.00  0.00    +0.129 C 
ENDBRANCH  32  35
ENDBRANCH  28  29
ENDBRANCH  14  27
TORSDOF 5
