REMARK  Name = ZINC51257416
REMARK  7 active torsions:
REMARK  status: ('A' for Active; 'I' for Inactive)
REMARK    1  A    between atoms: C_1  and  C_2
REMARK    2  A    between atoms: C_2  and  C_21
REMARK    3  A    between atoms: N_5  and  C_9
REMARK    4  A    between atoms: C_9  and  C_10
REMARK    5  A    between atoms: C_10  and  C_12
REMARK    6  A    between atoms: C_10  and  O_20
REMARK    7  A    between atoms: C_24  and  C_27
REMARK                            x       y       z     vdW  Elec       q    Type
REMARK                         _______ _______ _______ _____ _____    ______ ____
ROOT
ATOM      1  C   UNL     1      -0.019   1.526   0.010  0.00  0.00    +0.047 C 
ATOM      2  C   UNL     1       0.002  -0.004   0.002  0.00  0.00    +0.135 C 
ATOM      3  C   UNL     1       0.815  -0.520  -1.169  0.00  0.00    +0.251 C 
ATOM      4  O   UNL     1       0.595  -0.342  -2.348  0.00  0.00    -0.272 OA
ATOM      5  N   UNL     1       1.833  -1.217  -0.627  0.00  0.00    -0.221 N 
ATOM      6  C   UNL     1       1.777  -1.214   0.710  0.00  0.00    +0.310 C 
ATOM      7  O   UNL     1       2.586  -1.776   1.421  0.00  0.00    -0.252 OA
ATOM      8  N   UNL     1       0.724  -0.519   1.178  0.00  0.00    -0.281 N 
ATOM      9  H   UNL     1       0.487  -0.383   2.109  0.00  0.00    +0.152 HD
ENDROOT
BRANCH   2  10
ATOM     10  C   UNL     1      -1.401  -0.551  -0.040  0.00  0.00    -0.015 A 
ATOM     11  C   UNL     1      -2.002  -0.814  -1.258  0.00  0.00    +0.007 A 
ATOM     12  C   UNL     1      -3.286  -1.315  -1.304  0.00  0.00    +0.019 A 
ATOM     13  C   UNL     1      -3.980  -1.558  -0.117  0.00  0.00    +0.052 A 
ATOM     14  C   UNL     1      -3.368  -1.292   1.109  0.00  0.00    +0.019 A 
ATOM     15  C   UNL     1      -2.081  -0.795   1.140  0.00  0.00    +0.007 A 
BRANCH  13  16
ATOM     16  C   UNL     1      -5.314  -2.078  -0.157  0.00  0.00    +0.099 C 
ATOM     17  N   UNL     1      -6.372  -2.490  -0.189  0.00  0.00    -0.191 NA
ENDBRANCH  13  16
ENDBRANCH   2  10
BRANCH   5  18
ATOM     18  C   UNL     1       2.871  -1.896  -1.406  0.00  0.00    +0.154 C 
BRANCH  18  19
ATOM     19  C   UNL     1       4.037  -0.936  -1.647  0.00  0.00    +0.162 C 
BRANCH  19  20
ATOM     20  C   UNL     1       5.106  -1.634  -2.448  0.00  0.00    -0.015 A 
ATOM     21  C   UNL     1       5.026  -1.665  -3.828  0.00  0.00    +0.009 A 
ATOM     22  C   UNL     1       6.005  -2.304  -4.565  0.00  0.00    +0.041 A 
ATOM     23  C   UNL     1       7.067  -2.915  -3.921  0.00  0.00    +0.158 A 
ATOM     24  C   UNL     1       7.148  -2.884  -2.537  0.00  0.00    +0.159 A 
ATOM     25  C   UNL     1       6.168  -2.238  -1.803  0.00  0.00    +0.047 A 
ATOM     26  F   UNL     1       8.184  -3.479  -1.907  0.00  0.00    -0.202 F 
ATOM     27  F   UNL     1       8.024  -3.541  -4.640  0.00  0.00    -0.202 F 
ENDBRANCH  19  20
BRANCH  19  28
ATOM     28  O   UNL     1       3.572   0.207  -2.368  0.00  0.00    -0.386 OA
ATOM     29  H   UNL     1       3.191  -0.002  -3.232  0.00  0.00    +0.210 HD
ENDBRANCH  19  28
ENDBRANCH  18  19
ENDBRANCH   5  18
TORSDOF 6
