REMARK  Name = ZINC59117913
REMARK  7 active torsions:
REMARK  status: ('A' for Active; 'I' for Inactive)
REMARK    1  A    between atoms: C_1  and  C_2
REMARK    2  A    between atoms: C_2  and  O_3
REMARK    3  A    between atoms: O_3  and  C_4
REMARK    4  A    between atoms: C_9  and  N_10
REMARK    5  A    between atoms: C_12  and  C_17
REMARK    6  A    between atoms: N_19  and  C_20
REMARK    7  A    between atoms: C_20  and  C_21
REMARK                            x       y       z     vdW  Elec       q    Type
REMARK                         _______ _______ _______ _____ _____    ______ ____
ROOT
ATOM      1  C   UNL     1       4.716   0.632  -4.831  0.00  0.00    +0.218 C 
ATOM      2  O   UNL     1       4.927   1.165  -3.762  0.00  0.00    -0.275 OA
ATOM      3  N   UNL     1       5.024   1.272  -5.976  0.00  0.00    -0.311 N 
ATOM      4  H   UNL     1       4.855   0.846  -6.831  0.00  0.00    +0.149 HD
ENDROOT
BRANCH   1   7
ATOM      5  N   UNL     1       2.594  -2.046  -3.551  0.00  0.00    -0.267 N 
ATOM      6  C   UNL     1       3.845  -1.284  -3.454  0.00  0.00    +0.127 C 
ATOM      7  C   UNL     1       4.112  -0.748  -4.878  0.00  0.00    +0.101 C 
ATOM      8  C   UNL     1       2.685  -0.707  -5.473  0.00  0.00    +0.110 C 
ATOM      9  C   UNL     1       1.923  -1.742  -4.675  0.00  0.00    +0.221 C 
ATOM     10  O   UNL     1       0.859  -2.226  -5.001  0.00  0.00    -0.275 OA
BRANCH   5  16
ATOM     11  C   UNL     1       1.358  -2.564  -1.535  0.00  0.00    +0.142 A 
ATOM     12  C   UNL     1       0.926  -3.489  -0.598  0.00  0.00    +0.047 A 
ATOM     13  C   UNL     1       1.296  -4.816  -0.714  0.00  0.00    +0.004 A 
ATOM     14  C   UNL     1       2.096  -5.224  -1.765  0.00  0.00    +0.002 A 
ATOM     15  C   UNL     1       2.530  -4.308  -2.705  0.00  0.00    +0.027 A 
ATOM     16  C   UNL     1       2.159  -2.976  -2.597  0.00  0.00    +0.078 A 
BRANCH  11  17
ATOM     17  O   UNL     1       0.995  -1.258  -1.422  0.00  0.00    -0.490 OA
BRANCH  17  19
ATOM     18  C   UNL     1      -0.131   0.591  -0.348  0.00  0.00    +0.048 C 
ATOM     19  C   UNL     1       0.172  -0.908  -0.307  0.00  0.00    +0.226 C 
ENDBRANCH  17  19
ENDBRANCH  11  17
ENDBRANCH   5  16
ENDBRANCH   1   7
BRANCH   3  20
ATOM     20  C   UNL     1       5.612   2.614  -5.930  0.00  0.00    +0.141 C 
BRANCH  20  21
ATOM     21  C   UNL     1       5.858   3.103  -7.334  0.00  0.00    -0.014 A 
ATOM     22  C   UNL     1       7.067   2.844  -7.965  0.00  0.00    +0.010 A 
ATOM     23  C   UNL     1       7.253   3.310  -9.253  0.00  0.00    +0.042 A 
ATOM     24  C   UNL     1       6.227   4.019  -9.870  0.00  0.00    +0.099 A 
ATOM     25  N   UNL     1       5.088   4.246  -9.235  0.00  0.00    -0.349 N 
ATOM     26  C   UNL     1       4.881   3.808  -8.008  0.00  0.00    +0.089 A 
ATOM     27  N   UNL     1       6.400   4.495 -11.165  0.00  0.00    -0.317 N 
ATOM     28  C   UNL     1       7.590   4.111 -11.891  0.00  0.00    +0.106 C 
ATOM     29  C   UNL     1       8.720   5.134 -11.614  0.00  0.00    +0.019 C 
ATOM     30  C   UNL     1       8.426   6.412 -12.281  0.00  0.00    +0.002 C 
ATOM     31  C   UNL     1       7.160   7.104 -11.785  0.00  0.00    +0.002 C 
ATOM     32  C   UNL     1       5.966   6.551 -12.523  0.00  0.00    +0.019 C 
ATOM     33  C   UNL     1       5.358   5.365 -11.745  0.00  0.00    +0.106 C 
ATOM     34  H   UNL     1       4.386   4.743  -9.684  0.00  0.00    +0.167 HD
ENDBRANCH  20  21
ENDBRANCH   3  20
TORSDOF 6
