REMARK  Name = ZINC49514670
REMARK  7 active torsions:
REMARK  status: ('A' for Active; 'I' for Inactive)
REMARK    1  A    between atoms: C_1  and  C_2
REMARK    2  A    between atoms: C_5  and  C_7
REMARK    3  A    between atoms: N_9  and  S_10
REMARK    4  A    between atoms: S_10  and  C_13
REMARK    5  A    between atoms: C_15  and  C_19
REMARK    6  A    between atoms: N_16  and  C_18
REMARK    7  A    between atoms: N_21  and  C_22
REMARK                            x       y       z     vdW  Elec       q    Type
REMARK                         _______ _______ _______ _____ _____    ______ ____
ROOT
ATOM      1  C   UNL     1       0.603  -5.914   1.229  0.00  0.00    +0.131 A 
ATOM      2  C   UNL     1       0.303  -6.635   2.389  0.00  0.00    +0.061 A 
ATOM      3  C   UNL     1      -0.679  -7.545   2.058  0.00  0.00    +0.106 A 
ATOM      4  N   UNL     1      -0.967  -7.376   0.723  0.00  0.00    -0.344 N 
ATOM      5  C   UNL     1      -0.188  -6.381   0.233  0.00  0.00    +0.115 A 
ATOM      6  C   UNL     1      -1.957  -8.140  -0.041  0.00  0.00    +0.149 C 
ENDROOT
BRANCH   3   7
ATOM      7  C   UNL     1      -1.302  -8.515   2.964  0.00  0.00    +0.260 C 
ATOM      8  O   UNL     1      -2.234  -9.196   2.578  0.00  0.00    -0.269 OA
ATOM      9  N   UNL     1      -0.843  -8.653   4.223  0.00  0.00    -0.313 N 
ATOM     10  C   UNL     1      -1.390  -9.698   5.092  0.00  0.00    +0.128 C 
ATOM     11  H   UNL     1      -0.151  -8.060   4.555  0.00  0.00    +0.149 HD
ENDBRANCH   3   7
BRANCH   1  12
ATOM     12  S   UNL     1       1.793  -4.622   1.089  0.00  0.00    +0.103 S 
ATOM     13  O   UNL     1       2.166  -4.560  -0.281  0.00  0.00    -0.146 OA
ATOM     14  O   UNL     1       2.740  -4.828   2.128  0.00  0.00    -0.146 OA
BRANCH  12  17
ATOM     15  C   UNL     1       1.665  -2.086   1.401  0.00  0.00    +0.268 C 
ATOM     16  O   UNL     1       2.978  -2.079   1.090  0.00  0.00    -0.269 OA
ATOM     17  N   UNL     1       1.015  -3.201   1.432  0.00  0.00    -0.090 NA
BRANCH  15  21
ATOM     18  C   UNL     1       0.457   1.543   0.648  0.00  0.00    +0.008 C 
ATOM     19  C   UNL     1       0.415   0.018   0.535  0.00  0.00    -0.001 C 
ATOM     20  C   UNL     1      -0.550  -0.732   1.456  0.00  0.00    +0.017 C 
ATOM     21  C   UNL     1       0.957  -0.793   1.714  0.00  0.00    +0.084 C 
ENDBRANCH  15  21
ENDBRANCH  12  17
ENDBRANCH   1  12
TORSDOF 4
