REMARK  Name = ZINC03044254
REMARK  9 active torsions:
REMARK  status: ('A' for Active; 'I' for Inactive)
REMARK    1  A    between atoms: C_1  and  C_2
REMARK    2  A    between atoms: C_6  and  C_8
REMARK    3  A    between atoms: C_8  and  N_9
REMARK    4  A    between atoms: N_17  and  N_18
REMARK    5  A    between atoms: N_18  and  C_19
REMARK    6  A    between atoms: C_19  and  N_21
REMARK    7  A    between atoms: N_21  and  C_22
REMARK    8  A    between atoms: C_23  and  C_29
REMARK    9  A    between atoms: C_27  and  C_28
REMARK                            x       y       z     vdW  Elec       q    Type
REMARK                         _______ _______ _______ _____ _____    ______ ____
ROOT
ATOM      1  N   UNL     1       6.871   3.645  -0.678  0.00  0.00    -0.261 N 
ATOM      2  C   UNL     1       7.641   4.732  -0.280  0.00  0.00    +0.046 A 
ATOM      3  C   UNL     1       7.945   5.931  -0.914  0.00  0.00    +0.025 A 
ATOM      4  C   UNL     1       8.750   6.862  -0.288  0.00  0.00    +0.017 A 
ATOM      5  C   UNL     1       9.263   6.615   0.975  0.00  0.00    +0.019 A 
ATOM      6  C   UNL     1       8.972   5.429   1.620  0.00  0.00    +0.027 A 
ATOM      7  C   UNL     1       8.162   4.486   0.997  0.00  0.00    +0.029 A 
ATOM      8  C   UNL     1       7.669   3.148   1.400  0.00  0.00    +0.153 C 
ATOM      9  N   UNL     1       7.908   2.513   2.522  0.00  0.00    -0.175 NA
ATOM     10  C   UNL     1       6.845   2.688   0.265  0.00  0.00    +0.272 C 
ATOM     11  O   UNL     1       6.248   1.629   0.196  0.00  0.00    -0.268 OA
ATOM     12 BR   UNL     1      10.364   7.902   1.815  0.00  0.00    -0.050 Br
ENDROOT
BRANCH   9  13
ATOM     13  N   UNL     1       7.357   1.243   2.740  0.00  0.00    -0.217 N 
ATOM     14  H   UNL     1       6.798   0.834   2.061  0.00  0.00    +0.176 HD
BRANCH  13  15
ATOM     15  C   UNL     1       7.603   0.591   3.893  0.00  0.00    +0.154 C 
ATOM     16  S   UNL     1       6.929  -0.960   4.160  0.00  0.00    -0.017 S 
BRANCH  15  17
ATOM     17  N   UNL     1       8.380   1.159   4.837  0.00  0.00    -0.295 N 
ATOM     18  H   UNL     1       8.827   2.000   4.655  0.00  0.00    +0.154 HD
BRANCH  17  19
ATOM     19  C   UNL     1       8.541   0.536   6.078  0.00  0.00    +0.039 A 
ATOM     20  C   UNL     1       9.678  -0.219   6.336  0.00  0.00    -0.029 A 
ATOM     21  C   UNL     1       9.835  -0.833   7.563  0.00  0.00    +0.005 A 
ATOM     22  C   UNL     1       8.860  -0.698   8.534  0.00  0.00    +0.001 A 
ATOM     23  C   UNL     1       7.726   0.052   8.281  0.00  0.00    +0.005 A 
ATOM     24  C   UNL     1       7.567   0.674   7.058  0.00  0.00    -0.029 A 
ATOM     25  C   UNL     1       6.334   1.497   6.786  0.00  0.00    +0.045 C 
ATOM     26  C   UNL     1      10.741  -0.367   5.277  0.00  0.00    +0.045 C 
ENDBRANCH  17  19
ENDBRANCH  15  17
ENDBRANCH  13  15
ENDBRANCH   9  13
BRANCH   1  27
ATOM     27  C   UNL     1       6.171   3.556  -1.963  0.00  0.00    +0.149 C 
BRANCH  27  33
ATOM     28  C   UNL     1       1.313   2.950  -0.926  0.00  0.00    +0.044 C 
ATOM     29  C   UNL     1       2.461   3.841  -1.325  0.00  0.00    -0.050 A 
ATOM     30  C   UNL     1       2.243   5.186  -1.561  0.00  0.00    +0.003 A 
ATOM     31  C   UNL     1       3.296   6.003  -1.927  0.00  0.00    +0.001 A 
ATOM     32  C   UNL     1       4.567   5.475  -2.057  0.00  0.00    +0.005 A 
ATOM     33  C   UNL     1       4.785   4.131  -1.820  0.00  0.00    -0.029 A 
ATOM     34  C   UNL     1       3.733   3.315  -1.450  0.00  0.00    +0.008 A 
ENDBRANCH  27  33
ENDBRANCH   1  27
TORSDOF 6
