REMARK  Name = ZINC15127660
REMARK  10 active torsions:
REMARK  status: ('A' for Active; 'I' for Inactive)
REMARK    1  A    between atoms: C_4  and  C_7
REMARK    2  A    between atoms: C_7  and  N_8
REMARK    3  A    between atoms: C_9  and  C_29
REMARK    4  A    between atoms: C_12  and  S_13
REMARK    5  A    between atoms: S_13  and  C_14
REMARK    6  A    between atoms: C_14  and  C_15
REMARK    7  A    between atoms: C_15  and  C_16
REMARK    8  A    between atoms: C_16  and  C_17
REMARK    9  A    between atoms: C_17  and  N_18
REMARK   10  A    between atoms: C_29  and  N_66
REMARK                            x       y       z     vdW  Elec       q    Type
REMARK                         _______ _______ _______ _____ _____    ______ ____
ROOT
ATOM      1  N   UNL     1       2.047   0.663  -0.014  0.00  0.00    -0.303 N 
ATOM      2  C   UNL     1       1.232  -0.435  -0.012  0.00  0.00    +0.118 A 
ATOM      3  N   UNL     1       0.002  -0.004   0.002  0.00  0.00    -0.135 NA
ATOM      4  N   UNL     1      -0.015   1.281   0.009  0.00  0.00    -0.123 NA
ATOM      5  C   UNL     1       1.213   1.744  -0.000  0.00  0.00    +0.192 A 
ENDROOT
BRANCH   1   6
ATOM      6  C   UNL     1       3.512   0.676  -0.028  0.00  0.00    +0.160 C 
BRANCH   6  10
ATOM      7  C   UNL     1       4.897   0.712  -4.069  0.00  0.00    +0.000 A 
ATOM      8  C   UNL     1       4.662   1.903  -3.409  0.00  0.00    +0.000 A 
ATOM      9  C   UNL     1       4.214   1.892  -2.101  0.00  0.00    +0.005 A 
ATOM     10  C   UNL     1       4.001   0.689  -1.454  0.00  0.00    -0.028 A 
ATOM     11  C   UNL     1       4.241  -0.502  -2.113  0.00  0.00    +0.005 A 
ATOM     12  C   UNL     1       4.684  -0.491  -3.422  0.00  0.00    +0.000 A 
ENDBRANCH   6  10
ENDBRANCH   1   6
BRANCH   5  13
ATOM     13  S   UNL     1       1.694   3.439   0.004  0.00  0.00    -0.086 S 
BRANCH  13  14
ATOM     14  C   UNL     1       0.066   4.228   0.024  0.00  0.00    +0.077 C 
BRANCH  14  15
ATOM     15  C   UNL     1       0.236   5.748   0.030  0.00  0.00    +0.013 C 
BRANCH  15  16
ATOM     16  C   UNL     1      -1.141   6.415   0.047  0.00  0.00    +0.020 C 
BRANCH  16  17
ATOM     17  C   UNL     1      -0.971   7.936   0.053  0.00  0.00    +0.117 C 
BRANCH  17  18
ATOM     18  N   UNL     1      -2.290   8.575   0.069  0.00  0.00    -0.234 N 
ATOM     19  C   UNL     1      -2.983   8.917  -1.031  0.00  0.00    +0.254 C 
ATOM     20  O   UNL     1      -2.621   8.749  -2.178  0.00  0.00    -0.270 OA
ATOM     21  C   UNL     1      -4.260   9.531  -0.611  0.00  0.00    +0.049 A 
ATOM     22  C   UNL     1      -5.349  10.060  -1.287  0.00  0.00    +0.014 A 
ATOM     23  C   UNL     1      -6.417  10.577  -0.571  0.00  0.00    +0.001 A 
ATOM     24  C   UNL     1      -6.403  10.570   0.811  0.00  0.00    +0.001 A 
ATOM     25  C   UNL     1      -5.322  10.044   1.501  0.00  0.00    +0.014 A 
ATOM     26  C   UNL     1      -4.247   9.524   0.798  0.00  0.00    +0.049 A 
ATOM     27  C   UNL     1      -2.964   8.901   1.187  0.00  0.00    +0.254 C 
ATOM     28  O   UNL     1      -2.582   8.715   2.325  0.00  0.00    -0.270 OA
ENDBRANCH  17  18
ENDBRANCH  16  17
ENDBRANCH  15  16
ENDBRANCH  14  15
ENDBRANCH  13  14
ENDBRANCH   5  13
BRANCH   2  29
ATOM     29  C   UNL     1       1.673  -1.875  -0.024  0.00  0.00    -0.001 C 
BRANCH  29  35
ATOM     30  C   UNL     1       0.497  -2.360  -2.084  0.00  0.00    -0.078 C 
ATOM     31  C   UNL     1       0.688  -2.702  -3.563  0.00  0.00    -0.019 C 
ATOM     32  C   UNL     1       1.369  -4.069  -3.682  0.00  0.00    -0.004 C 
ATOM     33  C   UNL     1       2.704  -4.032  -2.934  0.00  0.00    -0.019 C 
ATOM     34  C   UNL     1       2.455  -3.651  -1.473  0.00  0.00    -0.078 C 
ATOM     35  N   UNL     1       1.821  -2.316  -1.427  0.00  0.00    +0.384 N 
ATOM     36  H   UNL     1       2.418  -1.646  -1.926  0.00  0.00    -0.081 HD
ENDBRANCH  29  35
ENDBRANCH   2  29
TORSDOF 10
