REMARK  Name = ZINC63373804
REMARK  7 active torsions:
REMARK  status: ('A' for Active; 'I' for Inactive)
REMARK    1  A    between atoms: C_1  and  C_2
REMARK    2  A    between atoms: C_2  and  C_3
REMARK    3  A    between atoms: C_6  and  C_9
REMARK    4  A    between atoms: N_15  and  C_30
REMARK    5  A    between atoms: C_18  and  C_29
REMARK    6  A    between atoms: C_33  and  O_36
REMARK    7  A    between atoms: O_36  and  C_37
REMARK                            x       y       z     vdW  Elec       q    Type
REMARK                         _______ _______ _______ _____ _____    ______ ____
ROOT
ATOM      1  C   UNL     1      -5.419  -1.967   0.032  0.00  0.00    +0.065 C 
ATOM      2  C   UNL     1      -6.353  -1.002  -0.727  0.00  0.00    +0.123 C 
ATOM      3  N   UNL     1      -7.584  -1.722  -1.064  0.00  0.00    -0.268 N 
ATOM      4  C   UNL     1      -8.847  -1.386  -0.774  0.00  0.00    +0.317 C 
ATOM      5  O   UNL     1      -9.167  -0.329  -0.266  0.00  0.00    -0.252 OA
ATOM      6  N   UNL     1      -9.718  -2.347  -1.108  0.00  0.00    -0.192 N 
ATOM      7  C   UNL     1      -9.105  -3.388  -1.709  0.00  0.00    +0.253 C 
ATOM      8  O   UNL     1      -9.620  -4.413  -2.100  0.00  0.00    -0.272 OA
ATOM      9  C   UNL     1      -7.642  -3.010  -1.794  0.00  0.00    +0.137 C 
ATOM     10  C   UNL     1      -6.793  -4.008  -1.000  0.00  0.00    +0.139 C 
ATOM     11  C   UNL     1      -5.482  -3.297  -0.677  0.00  0.00    -0.027 C 
ATOM     12  C   UNL     1      -4.513  -4.072  -1.152  0.00  0.00    -0.000 A 
ATOM     13  C   UNL     1      -3.047  -3.962  -1.075  0.00  0.00    +0.010 A 
ATOM     14  C   UNL     1      -2.339  -4.939  -1.699  0.00  0.00    +0.001 A 
ATOM     15  C   UNL     1      -2.934  -6.003  -2.385  0.00  0.00    +0.002 A 
ATOM     16  C   UNL     1      -4.274  -6.187  -2.499  0.00  0.00    +0.026 A 
ATOM     17  C   UNL     1      -5.124  -5.227  -1.876  0.00  0.00    +0.043 A 
ATOM     18  N   UNL     1      -6.434  -5.174  -1.809  0.00  0.00    -0.375 N 
ATOM     19  C   UNL     1      -7.171  -2.870  -3.243  0.00  0.00    +0.044 C 
ATOM     20  H   UNL     1      -7.058  -5.793  -2.220  0.00  0.00    +0.160 HD
ENDROOT
BRANCH   1  24
ATOM     21  C   UNL     1      -1.417  -0.475  -0.032  0.00  0.00    -0.048 A 
ATOM     22  C   UNL     1      -2.054  -0.693   1.175  0.00  0.00    +0.004 A 
ATOM     23  C   UNL     1      -3.349  -1.176   1.196  0.00  0.00    +0.004 A 
ATOM     24  C   UNL     1      -4.008  -1.440   0.009  0.00  0.00    -0.039 A 
ATOM     25  C   UNL     1      -3.371  -1.220  -1.198  0.00  0.00    +0.004 A 
ATOM     26  C   UNL     1      -2.077  -0.733  -1.218  0.00  0.00    +0.004 A 
BRANCH  21  28
ATOM     27  C   UNL     1      -0.031   1.581  -0.076  0.00  0.00    +0.009 C 
ATOM     28  C   UNL     1      -0.005   0.052  -0.054  0.00  0.00    +0.032 C 
ENDBRANCH  21  28
ENDBRANCH   1  24
BRANCH   6  29
ATOM     29  C   UNL     1     -11.098  -2.281  -0.862  0.00  0.00    +0.046 A 
ATOM     30  C   UNL     1     -11.940  -3.270  -1.353  0.00  0.00    +0.027 A 
ATOM     31  C   UNL     1     -13.297  -3.204  -1.111  0.00  0.00    +0.047 A 
ATOM     32  C   UNL     1     -13.821  -2.149  -0.378  0.00  0.00    +0.120 A 
ATOM     33  C   UNL     1     -12.981  -1.160   0.113  0.00  0.00    +0.047 A 
ATOM     34  C   UNL     1     -11.622  -1.228  -0.124  0.00  0.00    +0.027 A 
BRANCH  32  35
ATOM     35  O   UNL     1     -15.158  -2.083  -0.141  0.00  0.00    -0.495 OA
ATOM     36  C   UNL     1     -15.628  -0.970   0.621  0.00  0.00    +0.277 C 
ENDBRANCH  32  35
ENDBRANCH   6  29
TORSDOF 4
