REMARK  Name = ZINC13137988
REMARK  11 active torsions:
REMARK  status: ('A' for Active; 'I' for Inactive)
REMARK    1  A    between atoms: C_1  and  N_63
REMARK    2  A    between atoms: C_2  and  N_63
REMARK    3  A    between atoms: C_3  and  C_5
REMARK    4  A    between atoms: C_3  and  C_27
REMARK    5  A    between atoms: C_3  and  N_63
REMARK    6  A    between atoms: C_5  and  N_6
REMARK    7  A    between atoms: C_7  and  C_9
REMARK    8  A    between atoms: C_13  and  S_15
REMARK    9  A    between atoms: S_15  and  N_18
REMARK   10  A    between atoms: C_30  and  O_33
REMARK   11  A    between atoms: O_33  and  C_34
REMARK                            x       y       z     vdW  Elec       q    Type
REMARK                         _______ _______ _______ _____ _____    ______ ____
ROOT
ATOM      1  N   UNL     1      -3.467  -0.473   0.736  0.00  0.00    -0.313 N 
ATOM      2  C   UNL     1      -4.015   0.655   1.228  0.00  0.00    +0.244 C 
ATOM      3  O   UNL     1      -5.224   0.761   1.304  0.00  0.00    -0.270 OA
ATOM      4  H   UNL     1      -2.503  -0.558   0.675  0.00  0.00    +0.149 HD
ENDROOT
BRANCH   2   5
ATOM      5  C   UNL     1      -3.147   1.765   1.675  0.00  0.00    +0.039 A 
ATOM      6  C   UNL     1      -1.758   1.647   1.588  0.00  0.00    +0.013 A 
ATOM      7  C   UNL     1      -0.954   2.689   2.001  0.00  0.00    +0.003 A 
ATOM      8  C   UNL     1      -1.520   3.846   2.506  0.00  0.00    +0.029 A 
ATOM      9  C   UNL     1      -2.895   3.967   2.600  0.00  0.00    +0.109 A 
ATOM     10  C   UNL     1      -3.711   2.933   2.190  0.00  0.00    +0.041 A 
BRANCH   9  11
ATOM     11  S   UNL     1      -3.605   5.445   3.244  0.00  0.00    +0.075 S 
ATOM     12  O   UNL     1      -4.892   5.096   3.735  0.00  0.00    -0.150 OA
ATOM     13  O   UNL     1      -2.614   6.048   4.065  0.00  0.00    -0.150 OA
BRANCH  11  14
ATOM     14  N   UNL     1      -3.848   6.469   1.966  0.00  0.00    -0.202 N 
ATOM     15  C   UNL     1      -5.070   6.530   1.159  0.00  0.00    +0.136 C 
ATOM     16  C   UNL     1      -4.807   7.623   0.111  0.00  0.00    +0.058 C 
ATOM     17  C   UNL     1      -3.409   8.114   0.416  0.00  0.00    -0.023 A 
ATOM     18  C   UNL     1      -2.921   7.405   1.503  0.00  0.00    +0.054 A 
ATOM     19  C   UNL     1      -1.639   7.689   1.978  0.00  0.00    +0.025 A 
ATOM     20  C   UNL     1      -0.875   8.664   1.373  0.00  0.00    +0.002 A 
ATOM     21  C   UNL     1      -1.372   9.368   0.291  0.00  0.00    +0.000 A 
ATOM     22  C   UNL     1      -2.637   9.086  -0.190  0.00  0.00    +0.005 A 
ENDBRANCH  11  14
ENDBRANCH   9  11
ENDBRANCH   2   5
BRANCH   1  23
ATOM     23  C   UNL     1      -4.328  -1.573   0.293  0.00  0.00    +0.094 C 
BRANCH  23  24
ATOM     24  C   UNL     1      -3.466  -2.683  -0.312  0.00  0.00    -0.021 C 
BRANCH  24  25
ATOM     25  C   UNL     1      -4.349  -3.825  -0.746  0.00  0.00    -0.059 A 
ATOM     26  C   UNL     1      -4.981  -4.607   0.202  0.00  0.00    +0.005 A 
ATOM     27  C   UNL     1      -5.796  -5.651  -0.193  0.00  0.00    +0.046 A 
ATOM     28  C   UNL     1      -5.970  -5.920  -1.543  0.00  0.00    +0.120 A 
ATOM     29  C   UNL     1      -5.331  -5.136  -2.493  0.00  0.00    +0.046 A 
ATOM     30  C   UNL     1      -4.522  -4.091  -2.092  0.00  0.00    +0.005 A 
BRANCH  28  31
ATOM     31  O   UNL     1      -6.766  -6.950  -1.934  0.00  0.00    -0.495 OA
ATOM     32  C   UNL     1      -7.393  -7.714  -0.902  0.00  0.00    +0.277 C 
ENDBRANCH  28  31
ENDBRANCH  24  25
BRANCH  24  35
ATOM     33  C   UNL     1      -3.033  -2.980   2.051  0.00  0.00    -0.096 C 
ATOM     34  C   UNL     1      -2.146  -4.564   0.450  0.00  0.00    -0.096 C 
ATOM     35  N   UNL     1      -2.483  -3.145   0.690  0.00  0.00    +0.382 N 
ATOM     36  H   UNL     1      -1.629  -2.581   0.604  0.00  0.00    -0.082 HD
ENDBRANCH  24  35
ENDBRANCH  23  24
ENDBRANCH   1  23
TORSDOF 8
