REMARK  Name = ZINC01331923
REMARK  8 active torsions:
REMARK  status: ('A' for Active; 'I' for Inactive)
REMARK    1  A    between atoms: C_1  and  C_2
REMARK    2  A    between atoms: C_2  and  C_3
REMARK    3  A    between atoms: C_2  and  C_4
REMARK    4  A    between atoms: C_2  and  C_5
REMARK    5  A    between atoms: N_16  and  C_19
REMARK    6  A    between atoms: C_19  and  C_20
REMARK    7  A    between atoms: N_22  and  C_23
REMARK    8  A    between atoms: C_23  and  C_24
REMARK                            x       y       z     vdW  Elec       q    Type
REMARK                         _______ _______ _______ _____ _____    ______ ____
ROOT
ATOM      1  C   UNL     1       0.208  -2.814  -0.389  0.00  0.00    -0.000 C 
ATOM      2  C   UNL     1      -0.936  -2.258   0.463  0.00  0.00    +0.009 C 
ATOM      3  C   UNL     1      -1.277  -0.837   0.012  0.00  0.00    +0.037 C 
ATOM      4  C   UNL     1       0.002  -0.004   0.002  0.00  0.00    -0.023 A 
ATOM      5  C   UNL     1       1.214  -0.601  -0.014  0.00  0.00    -0.004 A 
ATOM      6  S   UNL     1       2.381   0.733  -0.017  0.00  0.00    -0.071 S 
ATOM      7  C   UNL     1       1.235   2.089   0.002  0.00  0.00    +0.138 A 
ATOM      8  C   UNL     1      -0.018   1.457   0.010  0.00  0.00    +0.079 A 
ATOM      9  C   UNL     1      -1.159   2.327   0.020  0.00  0.00    +0.279 A 
ATOM     10  O   UNL     1      -2.289   1.869   0.022  0.00  0.00    -0.265 OA
ATOM     11  N   UNL     1      -0.959   3.659   0.031  0.00  0.00    -0.201 N 
ATOM     12  N   UNL     1       0.336   4.187   0.022  0.00  0.00    -0.061 NA
ATOM     13  N   UNL     1       1.366   3.412   0.008  0.00  0.00    -0.123 NA
ATOM     14  C   UNL     1       1.502  -2.071  -0.025  0.00  0.00    +0.046 C 
ENDROOT
BRANCH   1  16
ATOM     15  C   UNL     1      -0.918  -5.044  -0.454  0.00  0.00    +0.011 C 
ATOM     16  C   UNL     1       0.378  -4.309  -0.108  0.00  0.00    -0.035 C 
ATOM     17  C   UNL     1       1.522  -4.862  -0.961  0.00  0.00    +0.011 C 
ATOM     18  C   UNL     1       0.702  -4.514   1.374  0.00  0.00    +0.011 C 
ENDBRANCH   1  16
BRANCH  11  19
ATOM     19  C   UNL     1      -2.110   4.564   0.046  0.00  0.00    +0.244 C 
BRANCH  19  20
ATOM     20  C   UNL     1      -2.492   4.867   1.472  0.00  0.00    +0.235 C 
ATOM     21  O   UNL     1      -1.864   4.375   2.386  0.00  0.00    -0.274 OA
ATOM     22  N   UNL     1      -3.531   5.685   1.732  0.00  0.00    -0.309 N 
ATOM     23  H   UNL     1      -4.034   6.079   1.002  0.00  0.00    +0.149 HD
BRANCH  22  24
ATOM     24  C   UNL     1      -3.903   5.980   3.119  0.00  0.00    +0.146 C 
BRANCH  24  25
ATOM     25  C   UNL     1      -5.087   6.911   3.134  0.00  0.00    +0.007 A 
ATOM     26  C   UNL     1      -6.409   6.611   3.139  0.00  0.00    +0.013 A 
ATOM     27  C   UNL     1      -7.330   7.642   3.158  0.00  0.00    +0.008 A 
ATOM     28  C   UNL     1      -6.885   8.922   3.160  0.00  0.00    +0.045 A 
ATOM     29  S   UNL     1      -5.114   8.696   3.143  0.00  0.00    -0.100 S 
ENDBRANCH  24  25
ENDBRANCH  22  24
ENDBRANCH  19  20
ENDBRANCH  11  19
TORSDOF 5
