REMARK  Name = ZINC35743817
REMARK  16 active torsions:
REMARK  status: ('A' for Active; 'I' for Inactive)
REMARK    1  A    between atoms: C_1  and  C_2
REMARK    2  A    between atoms: C_2  and  C_4
REMARK    3  A    between atoms: C_2  and  N_19
REMARK    4  A    between atoms: N_14  and  C_15
REMARK    5  A    between atoms: C_15  and  C_16
REMARK    6  A    between atoms: C_16  and  O_17
REMARK    7  A    between atoms: O_17  and  C_18
REMARK    8  A    between atoms: N_19  and  C_20
REMARK    9  A    between atoms: C_20  and  C_21
REMARK   10  A    between atoms: C_21  and  C_22
REMARK   11  A    between atoms: C_22  and  C_23
REMARK   12  A    between atoms: C_23  and  C_24
REMARK   13  A    between atoms: C_24  and  C_25
REMARK   14  A    between atoms: C_25  and  N_26
REMARK   15  A    between atoms: C_27  and  C_29
REMARK   16  A    between atoms: C_32  and  C_35
REMARK                            x       y       z     vdW  Elec       q    Type
REMARK                         _______ _______ _______ _____ _____    ______ ____
ROOT
ATOM      1  N   UNL     1      -1.405  -0.606  -1.039  0.00  0.00    -0.288 N 
ATOM      2  C   UNL     1      -1.946   0.250  -1.929  0.00  0.00    +0.247 C 
ATOM      3  O   UNL     1      -3.106   0.593  -1.814  0.00  0.00    -0.270 OA
ENDROOT
BRANCH   2   4
ATOM      4  C   UNL     1      -1.128   0.771  -3.045  0.00  0.00    +0.037 A 
ATOM      5  C   UNL     1       0.258   0.868  -2.913  0.00  0.00    +0.013 A 
ATOM      6  C   UNL     1       1.015   1.355  -3.958  0.00  0.00    +0.013 A 
ATOM      7  C   UNL     1       0.404   1.746  -5.135  0.00  0.00    +0.055 A 
ATOM      8  C   UNL     1      -0.970   1.653  -5.273  0.00  0.00    +0.013 A 
ATOM      9  C   UNL     1      -1.738   1.162  -4.238  0.00  0.00    +0.013 A 
BRANCH   7  10
ATOM     10  C   UNL     1       1.237   2.278  -6.273  0.00  0.00    +0.417 C 
ATOM     11  F   UNL     1       1.627   1.219  -7.100  0.00  0.00    -0.166 F 
ATOM     12  F   UNL     1       0.485   3.196  -7.013  0.00  0.00    -0.166 F 
ATOM     13  F   UNL     1       2.374   2.912  -5.761  0.00  0.00    -0.166 F 
ENDBRANCH   7  10
ENDBRANCH   2   4
BRANCH   1  15
ATOM     14  C   UNL     1       0.281   1.059  -0.436  0.00  0.00    +0.036 C 
ATOM     15  C   UNL     1      -0.016  -0.432  -0.607  0.00  0.00    +0.139 C 
BRANCH  15  16
ATOM     16  C   UNL     1       0.910  -1.014  -1.643  0.00  0.00    +0.133 A 
ATOM     17  N   UNL     1       0.418  -1.324  -2.804  0.00  0.00    -0.232 NA
ATOM     18  C   UNL     1       1.191  -1.852  -3.786  0.00  0.00    +0.078 A 
ATOM     19  C   UNL     1       0.663  -2.185  -5.035  0.00  0.00    +0.028 A 
ATOM     20  C   UNL     1       1.484  -2.719  -6.002  0.00  0.00    +0.002 A 
ATOM     21  C   UNL     1       2.834  -2.930  -5.752  0.00  0.00    +0.001 A 
ATOM     22  C   UNL     1       3.378  -2.609  -4.528  0.00  0.00    +0.015 A 
ATOM     23  C   UNL     1       2.564  -2.068  -3.535  0.00  0.00    +0.065 A 
ATOM     24  C   UNL     1       3.089  -1.706  -2.210  0.00  0.00    +0.262 A 
ATOM     25  O   UNL     1       4.263  -1.867  -1.929  0.00  0.00    -0.267 OA
ATOM     26  N   UNL     1       2.218  -1.182  -1.317  0.00  0.00    -0.292 N 
BRANCH  26  27
ATOM     27  C   UNL     1       2.688  -0.798   0.017  0.00  0.00    +0.154 C 
BRANCH  27  28
ATOM     28  C   UNL     1       2.648  -2.015   0.942  0.00  0.00    +0.181 C 
BRANCH  28  29
ATOM     29  O   UNL     1       3.579  -2.996   0.481  0.00  0.00    -0.381 OA
ATOM     30  C   UNL     1       3.620  -4.180   1.280  0.00  0.00    +0.194 C 
ENDBRANCH  28  29
ENDBRANCH  27  28
ENDBRANCH  26  27
ENDBRANCH  15  16
ENDBRANCH   1  15
BRANCH   1  31
ATOM     31  C   UNL     1      -2.205  -1.711  -0.505  0.00  0.00    +0.109 C 
BRANCH  31  32
ATOM     32  C   UNL     1      -2.928  -1.251   0.763  0.00  0.00    +0.019 C 
BRANCH  32  33
ATOM     33  C   UNL     1      -3.764  -2.404   1.320  0.00  0.00    +0.001 C 
BRANCH  33  34
ATOM     34  C   UNL     1      -4.486  -1.944   2.588  0.00  0.00    -0.002 C 
BRANCH  34  35
ATOM     35  C   UNL     1      -5.322  -3.098   3.146  0.00  0.00    -0.020 C 
BRANCH  35  36
ATOM     36  C   UNL     1      -6.044  -2.638   4.414  0.00  0.00    -0.086 C 
BRANCH  36  37
ATOM     37  N   UNL     1      -6.847  -3.745   4.950  0.00  0.00    +0.378 N 
ATOM     38  H   UNL     1      -7.323  -3.442   5.786  0.00  0.00    -0.090 HD
ATOM     39  H   UNL     1      -7.526  -4.032   4.261  0.00  0.00    -0.090 HD
ATOM     40  H   UNL     1      -6.243  -4.523   5.170  0.00  0.00    -0.090 HD
ENDBRANCH  36  37
ENDBRANCH  35  36
ENDBRANCH  34  35
ENDBRANCH  33  34
ENDBRANCH  32  33
ENDBRANCH  31  32
ENDBRANCH   1  31
TORSDOF 14
