REMARK  Name = ZINC19234505
REMARK  9 active torsions:
REMARK  status: ('A' for Active; 'I' for Inactive)
REMARK    1  A    between atoms: C_1  and  C_2
REMARK    2  A    between atoms: C_6  and  C_8
REMARK    3  A    between atoms: C_8  and  O_32
REMARK    4  A    between atoms: N_11  and  C_14
REMARK    5  A    between atoms: C_14  and  C_15
REMARK    6  A    between atoms: C_15  and  C_17
REMARK    7  A    between atoms: C_15  and  O_31
REMARK    8  A    between atoms: N_26  and  S_27
REMARK    9  A    between atoms: S_27  and  C_30
REMARK                            x       y       z     vdW  Elec       q    Type
REMARK                         _______ _______ _______ _____ _____    ______ ____
ROOT
ATOM      1  C   UNL     1      -0.131   1.300   0.106  0.00  0.00    -0.042 C 
ENDROOT
BRANCH   1   5
ATOM      2  C   UNL     1      -2.236   1.724  -3.592  0.00  0.00    +0.088 C 
ATOM      3  C   UNL     1      -0.834   2.323  -3.449  0.00  0.00    +0.021 C 
ATOM      4  C   UNL     1      -0.106   1.636  -2.291  0.00  0.00    -0.076 C 
ATOM      5  N   UNL     1      -0.868   1.827  -1.051  0.00  0.00    +0.382 N 
ATOM      6  C   UNL     1      -2.201   1.218  -1.147  0.00  0.00    -0.076 C 
ATOM      7  C   UNL     1      -2.991   1.893  -2.271  0.00  0.00    +0.021 C 
ATOM      8  H   UNL     1      -1.004   2.908  -0.903  0.00  0.00    -0.082 HD
BRANCH   2  14
ATOM      9  C   UNL     1      -5.659   1.683  -7.242  0.00  0.00    +0.044 C 
ATOM     10  C   UNL     1      -4.616   2.417  -6.439  0.00  0.00    -0.050 A 
ATOM     11  C   UNL     1      -4.341   3.744  -6.712  0.00  0.00    +0.003 A 
ATOM     12  C   UNL     1      -3.384   4.417  -5.975  0.00  0.00    +0.001 A 
ATOM     13  C   UNL     1      -2.706   3.764  -4.963  0.00  0.00    +0.006 A 
ATOM     14  C   UNL     1      -2.978   2.436  -4.693  0.00  0.00    -0.016 A 
ATOM     15  C   UNL     1      -3.935   1.763  -5.429  0.00  0.00    +0.009 A 
ENDBRANCH   2  14
BRANCH   2  16
ATOM     16  O   UNL     1      -2.131   0.334  -3.908  0.00  0.00    -0.384 OA
ATOM     17  H   UNL     1      -1.618  -0.350  -3.217  0.00  0.00    +0.211 HD
ENDBRANCH   2  16
ENDBRANCH   1   5
BRANCH   1  18
ATOM     18  C   UNL     1      -0.830   1.734   1.396  0.00  0.00    +0.128 C 
BRANCH  18  19
ATOM     19  C   UNL     1      -0.074   1.193   2.583  0.00  0.00    -0.021 A 
ATOM     20  C   UNL     1       1.007   1.892   3.089  0.00  0.00    +0.008 A 
ATOM     21  C   UNL     1       1.700   1.397   4.175  0.00  0.00    +0.025 A 
ATOM     22  C   UNL     1       1.311   0.196   4.759  0.00  0.00    +0.054 A 
ATOM     23  C   UNL     1       0.226  -0.502   4.254  0.00  0.00    -0.024 A 
ATOM     24  C   UNL     1      -0.466   0.004   3.166  0.00  0.00    +0.011 A 
ATOM     25  C   UNL     1      -0.230  -1.800   4.867  0.00  0.00    +0.038 C 
ATOM     26  C   UNL     1       0.898  -2.432   5.682  0.00  0.00    +0.025 C 
ATOM     27  C   UNL     1       1.456  -1.384   6.653  0.00  0.00    +0.131 C 
ATOM     28  N   UNL     1       2.031  -0.293   5.855  0.00  0.00    -0.207 N 
BRANCH  28  29
ATOM     29  S   UNL     1       3.508   0.347   6.245  0.00  0.00    +0.043 S 
ATOM     30  O   UNL     1       4.118  -0.630   7.077  0.00  0.00    -0.155 OA
ATOM     31  O   UNL     1       4.090   0.703   4.998  0.00  0.00    -0.155 OA
ATOM     32  C   UNL     1       3.130   1.839   7.205  0.00  0.00    +0.218 C 
ENDBRANCH  28  29
ENDBRANCH  18  19
BRANCH  18  33
ATOM     33  O   UNL     1      -0.864   3.161   1.463  0.00  0.00    -0.389 OA
ATOM     34  H   UNL     1      -1.331   3.660   2.325  0.00  0.00    +0.210 HD
ENDBRANCH  18  33
ENDBRANCH   1  18
TORSDOF 7
