REMARK  Name = ZINC40804722
REMARK  7 active torsions:
REMARK  status: ('A' for Active; 'I' for Inactive)
REMARK    1  A    between atoms: C_1  and  C_2
REMARK    2  A    between atoms: C_5  and  C_8
REMARK    3  A    between atoms: N_10  and  N_11
REMARK    4  A    between atoms: C_18  and  C_31
REMARK    5  A    between atoms: C_19  and  C_21
REMARK    6  A    between atoms: N_23  and  C_24
REMARK    7  A    between atoms: C_27  and  C_30
REMARK                            x       y       z     vdW  Elec       q    Type
REMARK                         _______ _______ _______ _____ _____    ______ ____
ROOT
ATOM      1  N   UNL     1       0.108  -6.332   1.131  0.00  0.00    -0.184 NA
ATOM      2  C   UNL     1       0.128  -6.987   2.251  0.00  0.00    +0.070 C 
ATOM      3  C   UNL     1       0.131  -6.290   3.604  0.00  0.00    +0.058 C 
ATOM      4  C   UNL     1       1.129  -7.012   4.515  0.00  0.00    +0.014 C 
ATOM      5  C   UNL     1       0.670  -8.447   4.787  0.00  0.00    +0.075 C 
ATOM      6  C   UNL     1       0.400  -9.143   3.477  0.00  0.00    +0.115 A 
ATOM      7  C   UNL     1       0.145  -8.465   2.307  0.00  0.00    +0.042 A 
ATOM      8  C   UNL     1      -0.063  -9.419   1.303  0.00  0.00    +0.009 A 
ATOM      9  C   UNL     1       0.065 -10.640   1.904  0.00  0.00    +0.193 A 
ATOM     10  O   UNL     1       0.351 -10.447   3.215  0.00  0.00    -0.454 OA
ATOM     11  C   UNL     1      -0.368  -9.153  -0.149  0.00  0.00    +0.048 C 
ENDROOT
BRANCH   1  14
ATOM     12  C   UNL     1       0.071  -4.252  -0.025  0.00  0.00    +0.263 C 
ATOM     13  O   UNL     1       0.065  -4.854  -1.082  0.00  0.00    -0.268 OA
ATOM     14  N   UNL     1       0.092  -4.931   1.138  0.00  0.00    -0.203 N 
ATOM     15  H   UNL     1       0.098  -4.451   1.981  0.00  0.00    +0.178 HD
BRANCH  12  20
ATOM     16  C   UNL     1       0.008   1.502   0.004  0.00  0.00    +0.044 C 
ATOM     17  C   UNL     1       0.024  -0.005  -0.004  0.00  0.00    -0.050 A 
ATOM     18  C   UNL     1       0.018  -0.688  -1.207  0.00  0.00    +0.004 A 
ATOM     19  C   UNL     1       0.033  -2.067  -1.221  0.00  0.00    +0.013 A 
ATOM     20  C   UNL     1       0.055  -2.774  -0.018  0.00  0.00    +0.038 A 
ATOM     21  C   UNL     1       0.062  -2.079   1.193  0.00  0.00    +0.013 A 
ATOM     22  C   UNL     1       0.052  -0.699   1.193  0.00  0.00    +0.004 A 
ENDBRANCH  12  20
ENDBRANCH   1  14
BRANCH   9  23
ATOM     23  C   UNL     1      -0.071 -11.941   1.239  0.00  0.00    +0.284 C 
ATOM     24  O   UNL     1      -0.320 -11.993   0.049  0.00  0.00    -0.266 OA
ATOM     25  N   UNL     1       0.079 -13.078   1.946  0.00  0.00    -0.279 N 
ATOM     26  H   UNL     1       0.343 -13.038   2.879  0.00  0.00    +0.155 HD
BRANCH  25  27
ATOM     27  C   UNL     1      -0.146 -14.316   1.336  0.00  0.00    +0.034 A 
ATOM     28  C   UNL     1      -0.710 -15.358   2.061  0.00  0.00    +0.023 A 
ATOM     29  C   UNL     1      -0.931 -16.579   1.455  0.00  0.00    +0.005 A 
ATOM     30  C   UNL     1      -0.592 -16.765   0.127  0.00  0.00    -0.050 A 
ATOM     31  C   UNL     1      -0.030 -15.730  -0.598  0.00  0.00    +0.005 A 
ATOM     32  C   UNL     1       0.189 -14.505   0.001  0.00  0.00    +0.023 A 
ATOM     33  C   UNL     1      -0.835 -18.099  -0.531  0.00  0.00    +0.044 C 
ENDBRANCH  25  27
ENDBRANCH   9  23
TORSDOF 4
