REMARK  Name = ZINC09866198
REMARK  4 active torsions:
REMARK  status: ('A' for Active; 'I' for Inactive)
REMARK    1  A    between atoms: C_1  and  C_2
REMARK    2  A    between atoms: C_2  and  N_12
REMARK    3  A    between atoms: N_12  and  C_13
REMARK    4  A    between atoms: C_18  and  N_19
REMARK                            x       y       z     vdW  Elec       q    Type
REMARK                         _______ _______ _______ _____ _____    ______ ____
ROOT
ATOM      1  C   UNL     1      -0.101   1.268   0.209  0.00  0.00    +0.061 C 
ATOM      2  C   UNL     1      -0.062  -0.207  -0.098  0.00  0.00    +0.022 C 
ATOM      3  C   UNL     1       0.116  -1.122   0.923  0.00  0.00    +0.116 C 
ATOM      4  C   UNL     1       0.292  -2.559   0.647  0.00  0.00    +0.256 C 
ATOM      5  O   UNL     1       0.286  -2.981  -0.494  0.00  0.00    -0.270 OA
ATOM      6  N   UNL     1       0.462  -3.393   1.694  0.00  0.00    -0.263 N 
ATOM      7  C   UNL     1       0.471  -2.941   2.955  0.00  0.00    +0.143 C 
ATOM      8  S   UNL     1       0.693  -4.073   4.220  0.00  0.00    -0.018 S 
ATOM      9  N   UNL     1       0.317  -1.650   3.280  0.00  0.00    -0.263 N 
ATOM     10  C   UNL     1       0.144  -0.702   2.336  0.00  0.00    +0.256 C 
ATOM     11  O   UNL     1       0.010   0.468   2.643  0.00  0.00    -0.270 OA
ATOM     12  H   UNL     1       0.579  -4.342   1.529  0.00  0.00    +0.157 HD
ATOM     13  H   UNL     1       0.334  -1.390   4.214  0.00  0.00    +0.157 HD
ENDROOT
BRANCH   2  14
ATOM     14  N   UNL     1      -0.202  -0.635  -1.370  0.00  0.00    -0.315 N 
ATOM     15  H   UNL     1      -0.942  -1.216  -1.609  0.00  0.00    +0.152 HD
BRANCH  14  16
ATOM     16  C   UNL     1       0.720  -0.243  -2.345  0.00  0.00    +0.063 A 
ATOM     17  C   UNL     1       1.734   0.651  -2.024  0.00  0.00    +0.045 A 
ATOM     18  C   UNL     1       2.644   1.037  -2.990  0.00  0.00    +0.043 A 
ATOM     19  C   UNL     1       2.545   0.534  -4.276  0.00  0.00    +0.022 A 
ATOM     20  C   UNL     1       1.537  -0.356  -4.597  0.00  0.00    +0.036 A 
ATOM     21  C   UNL     1       0.628  -0.750  -3.635  0.00  0.00    +0.147 A 
ATOM     22 CL   UNL     1       3.911   2.155  -2.591  0.00  0.00    -0.083 Cl
BRANCH  21  23
ATOM     23  N   UNL     1      -0.447  -1.708  -3.979  0.00  0.00    +0.058 N 
ATOM     24  O   UNL     1      -0.462  -2.234  -5.067  0.00  0.00    -0.126 OA
ATOM     25  O   UNL     1      -1.310  -1.964  -3.171  0.00  0.00    -0.126 OA
ENDBRANCH  21  23
ENDBRANCH  14  16
ENDBRANCH   2  14
TORSDOF 3
