REMARK  Name = ZINC56860746
REMARK  8 active torsions:
REMARK  status: ('A' for Active; 'I' for Inactive)
REMARK    1  A    between atoms: C_1  and  C_2
REMARK    2  A    between atoms: C_7  and  O_8
REMARK    3  A    between atoms: O_8  and  C_9
REMARK    4  A    between atoms: C_9  and  C_10
REMARK    5  A    between atoms: C_10  and  C_12
REMARK    6  A    between atoms: C_10  and  N_13
REMARK    7  A    between atoms: N_16  and  N_17
REMARK    8  A    between atoms: C_18  and  C_20
REMARK                            x       y       z     vdW  Elec       q    Type
REMARK                         _______ _______ _______ _____ _____    ______ ____
ROOT
ATOM      1  N   UNL     1       1.289   0.881   4.818  0.00  0.00    -0.292 N 
ATOM      2  C   UNL     1       1.759   1.363   5.986  0.00  0.00    +0.316 C 
ATOM      3  O   UNL     1       1.152   1.154   7.018  0.00  0.00    -0.251 OA
ATOM      4  N   UNL     1       2.901   2.078   6.008  0.00  0.00    -0.218 N 
ATOM      5  H   UNL     1       1.773   1.048   3.994  0.00  0.00    +0.151 HD
ATOM      6  H   UNL     1       3.239   2.425   6.849  0.00  0.00    +0.174 HD
ENDROOT
BRANCH   4   7
ATOM      7  N   UNL     1       3.601   2.319   4.819  0.00  0.00    -0.233 N 
ATOM      8  C   UNL     1       4.743   3.034   4.842  0.00  0.00    +0.234 C 
ATOM      9  O   UNL     1       5.166   3.468   5.892  0.00  0.00    -0.274 OA
ATOM     10  H   UNL     1       3.263   1.972   3.978  0.00  0.00    +0.173 HD
BRANCH   8  11
ATOM     11  C   UNL     1       5.495   3.293   3.562  0.00  0.00    +0.099 C 
ATOM     12  C   UNL     1       5.940   1.958   2.941  0.00  0.00    +0.037 C 
ATOM     13  C   UNL     1       6.974   2.216   1.819  0.00  0.00    +0.166 C 
ATOM     14  S   UNL     1       7.766   3.788   2.353  0.00  0.00    -0.030 S 
ATOM     15  O   UNL     1       7.502   4.792   1.383  0.00  0.00    -0.174 OA
ATOM     16  O   UNL     1       9.108   3.521   2.736  0.00  0.00    -0.174 OA
ATOM     17  C   UNL     1       6.768   4.135   3.862  0.00  0.00    +0.178 C 
ENDBRANCH   8  11
ENDBRANCH   4   7
BRANCH   1  18
ATOM     18  C   UNL     1       0.047   0.104   4.793  0.00  0.00    +0.109 C 
ATOM     19  C   UNL     1      -1.148   1.056   4.712  0.00  0.00    +0.031 C 
BRANCH  18  20
ATOM     20  C   UNL     1       0.048  -0.820   3.574  0.00  0.00    +0.251 C 
BRANCH  20  21
ATOM     21  O   UNL     1       0.025  -0.033   2.381  0.00  0.00    -0.490 OA
BRANCH  21  28
ATOM     22  C   UNL     1      -0.018   1.503   0.010  0.00  0.00    +0.047 C 
ATOM     23  C   UNL     1       0.002  -0.004   0.002  0.00  0.00    -0.009 A 
ATOM     24  C   UNL     1       0.006  -0.689  -1.198  0.00  0.00    +0.007 A 
ATOM     25  C   UNL     1       0.024  -2.071  -1.206  0.00  0.00    +0.000 A 
ATOM     26  C   UNL     1       0.039  -2.772  -0.014  0.00  0.00    +0.004 A 
ATOM     27  C   UNL     1       0.036  -2.092   1.188  0.00  0.00    +0.046 A 
ATOM     28  C   UNL     1       0.023  -0.705   1.199  0.00  0.00    +0.123 A 
ENDBRANCH  21  28
ENDBRANCH  20  21
ENDBRANCH  18  20
ENDBRANCH   1  18
TORSDOF 6
