REMARK  Name = ZINC36514702
REMARK  19 active torsions:
REMARK  status: ('A' for Active; 'I' for Inactive)
REMARK    1  A    between atoms: C_1  and  C_2
REMARK    2  A    between atoms: C_2  and  C_3
REMARK    3  A    between atoms: C_3  and  C_4
REMARK    4  A    between atoms: C_4  and  C_5
REMARK    5  A    between atoms: C_5  and  C_6
REMARK    6  A    between atoms: C_6  and  N_7
REMARK    7  A    between atoms: N_7  and  C_8
REMARK    8  A    between atoms: C_8  and  C_10
REMARK    9  A    between atoms: C_8  and  C_19
REMARK   10  A    between atoms: C_13  and  O_18
REMARK   11  A    between atoms: C_14  and  O_16
REMARK   12  A    between atoms: O_16  and  C_17
REMARK   13  A    between atoms: N_21  and  C_22
REMARK   14  A    between atoms: C_22  and  C_23
REMARK   15  A    between atoms: C_22  and  C_24
REMARK   16  A    between atoms: C_22  and  C_25
REMARK   17  A    between atoms: C_26  and  C_28
REMARK   18  A    between atoms: C_29  and  O_35
REMARK   19  A    between atoms: C_33  and  O_34
REMARK                            x       y       z     vdW  Elec       q    Type
REMARK                         _______ _______ _______ _____ _____    ______ ____
ROOT
ATOM      1  N   UNL     1       2.249  -4.564   3.656  0.00  0.00    -0.282 N 
ATOM      2  C   UNL     1       1.593  -3.921   2.669  0.00  0.00    +0.255 C 
ATOM      3  O   UNL     1       0.469  -3.499   2.861  0.00  0.00    -0.270 OA
ENDROOT
BRANCH   2   4
ATOM      4  C   UNL     1       2.237  -3.731   1.359  0.00  0.00    +0.119 A 
ATOM      5  C   UNL     1       2.081  -4.692   0.349  0.00  0.00    +0.133 A 
ATOM      6  C   UNL     1       2.691  -4.503  -0.880  0.00  0.00    +0.046 A 
ATOM      7  C   UNL     1       3.453  -3.372  -1.113  0.00  0.00    +0.007 A 
ATOM      8  C   UNL     1       3.614  -2.420  -0.124  0.00  0.00    +0.046 A 
ATOM      9  C   UNL     1       3.008  -2.586   1.111  0.00  0.00    +0.133 A 
BRANCH   9  10
ATOM     10  O   UNL     1       3.163  -1.647   2.077  0.00  0.00    -0.506 OA
ATOM     11  H   UNL     1       3.927  -1.795   2.650  0.00  0.00    +0.292 HD
ENDBRANCH   9  10
BRANCH   5  12
ATOM     12  O   UNL     1       1.334  -5.802   0.575  0.00  0.00    -0.506 OA
ATOM     13  H   UNL     1       0.400  -5.700   0.349  0.00  0.00    +0.292 HD
ENDBRANCH   5  12
ENDBRANCH   2   4
BRANCH   1  14
ATOM     14  C   UNL     1       3.646  -4.963   3.468  0.00  0.00    +0.109 C 
BRANCH  14  15
ATOM     15  C   UNL     1       3.697  -6.369   2.867  0.00  0.00    +0.019 C 
BRANCH  15  16
ATOM     16  C   UNL     1       5.156  -6.787   2.670  0.00  0.00    +0.002 C 
BRANCH  16  17
ATOM     17  C   UNL     1       5.208  -8.193   2.069  0.00  0.00    -0.000 C 
BRANCH  17  19
ATOM     18  C   UNL     1       6.719 -10.016   1.272  0.00  0.00    +0.004 C 
ATOM     19  C   UNL     1       6.667  -8.610   1.873  0.00  0.00    -0.003 C 
ENDBRANCH  17  19
ENDBRANCH  16  17
ENDBRANCH  15  16
ENDBRANCH  14  15
ENDBRANCH   1  14
BRANCH   1  20
ATOM     20  C   UNL     1       1.565  -4.863   4.917  0.00  0.00    +0.193 C 
BRANCH  20  21
ATOM     21  C   UNL     1       1.680  -6.335   5.214  0.00  0.00    -0.015 A 
ATOM     22  C   UNL     1       2.696  -6.797   6.029  0.00  0.00    +0.010 A 
ATOM     23  C   UNL     1       2.806  -8.148   6.304  0.00  0.00    +0.049 A 
ATOM     24  C   UNL     1       1.896  -9.041   5.764  0.00  0.00    +0.158 A 
ATOM     25  C   UNL     1       0.872  -8.576   4.944  0.00  0.00    +0.162 A 
ATOM     26  C   UNL     1       0.765  -7.221   4.676  0.00  0.00    +0.055 A 
BRANCH  25  27
ATOM     27  O   UNL     1      -0.024  -9.450   4.411  0.00  0.00    -0.491 OA
ATOM     28  C   UNL     1      -1.048  -8.901   3.579  0.00  0.00    +0.277 C 
ENDBRANCH  25  27
BRANCH  24  29
ATOM     29  O   UNL     1       2.002 -10.370   6.034  0.00  0.00    -0.503 OA
ATOM     30  H   UNL     1       1.514 -10.652   6.819  0.00  0.00    +0.292 HD
ENDBRANCH  24  29
ENDBRANCH  20  21
BRANCH  20  31
ATOM     31  C   UNL     1       2.200  -4.074   6.032  0.00  0.00    +0.238 C 
ATOM     32  O   UNL     1       3.133  -3.335   5.798  0.00  0.00    -0.273 OA
ATOM     33  N   UNL     1       1.733  -4.190   7.291  0.00  0.00    -0.309 N 
ATOM     34  H   UNL     1       0.987  -4.780   7.479  0.00  0.00    +0.149 HD
BRANCH  33  35
ATOM     35  C   UNL     1       2.351  -3.423   8.376  0.00  0.00    +0.026 C 
ATOM     36  C   UNL     1       2.234  -1.927   8.074  0.00  0.00    +0.031 C 
ATOM     37  C   UNL     1       1.636  -3.735   9.692  0.00  0.00    +0.031 C 
ATOM     38  C   UNL     1       3.827  -3.806   8.493  0.00  0.00    +0.031 C 
ENDBRANCH  33  35
ENDBRANCH  20  31
ENDBRANCH   1  20
TORSDOF 14
