REMARK  Name = ZINC32986910
REMARK  7 active torsions:
REMARK  status: ('A' for Active; 'I' for Inactive)
REMARK    1  A    between atoms: C_3  and  C_24
REMARK    2  A    between atoms: C_6  and  C_7
REMARK    3  A    between atoms: C_12  and  C_20
REMARK    4  A    between atoms: C_24  and  O_26
REMARK    5  A    between atoms: O_26  and  C_27
REMARK    6  A    between atoms: C_27  and  C_28
REMARK    7  A    between atoms: N_30  and  C_31
REMARK                            x       y       z     vdW  Elec       q    Type
REMARK                         _______ _______ _______ _____ _____    ______ ____
ROOT
ATOM      1  C   UNL     1       4.021   2.481   2.639  0.00  0.00    +0.007 A 
ATOM      2  C   UNL     1       3.911   2.544   4.012  0.00  0.00    +0.015 A 
ATOM      3  C   UNL     1       3.399   3.694   4.617  0.00  0.00    +0.059 A 
ATOM      4  C   UNL     1       3.008   4.776   3.825  0.00  0.00    +0.015 A 
ATOM      5  C   UNL     1       3.128   4.702   2.453  0.00  0.00    +0.007 A 
ATOM      6  C   UNL     1       3.636   3.559   1.861  0.00  0.00    -0.011 A 
ENDROOT
BRANCH   6   7
ATOM      7  C   UNL     1       3.764   3.485   0.361  0.00  0.00    +0.191 C 
ATOM      8  N   UNL     1       3.600   2.102  -0.081  0.00  0.00    -0.322 N 
ATOM      9  C   UNL     1       2.387   1.421  -0.028  0.00  0.00    +0.056 A 
ATOM     10  C   UNL     1       2.397   0.027  -0.027  0.00  0.00    +0.037 A 
ATOM     11  C   UNL     1       1.211  -0.676  -0.013  0.00  0.00    +0.057 A 
ATOM     12  C   UNL     1       0.002  -0.004   0.002  0.00  0.00    +0.014 A 
ATOM     13  C   UNL     1      -0.017   1.379   0.010  0.00  0.00    +0.031 A 
ATOM     14  C   UNL     1       1.168   2.085   0.002  0.00  0.00    +0.126 A 
ATOM     15  S   UNL     1       1.140   3.852   0.048  0.00  0.00    +0.062 S 
ATOM     16  O   UNL     1       0.353   4.283  -1.054  0.00  0.00    -0.153 OA
ATOM     17  O   UNL     1       0.859   4.228   1.389  0.00  0.00    -0.153 OA
ATOM     18  N   UNL     1       2.713   4.310  -0.268  0.00  0.00    -0.166 NA
ATOM     19  H   UNL     1       4.461   1.546  -0.480  0.00  0.00    +0.148 HD
ATOM     20  H   UNL     1       2.978   5.257  -0.760  0.00  0.00    +0.150 HD
BRANCH  11  21
ATOM     21  C   UNL     1       1.232  -2.183  -0.013  0.00  0.00    +0.417 C 
ATOM     22  F   UNL     1      -0.081  -2.667   0.003  0.00  0.00    -0.166 F 
ATOM     23  F   UNL     1       1.883  -2.640  -1.163  0.00  0.00    -0.166 F 
ATOM     24  F   UNL     1       1.911  -2.640   1.121  0.00  0.00    -0.166 F 
ENDBRANCH  11  21
ENDBRANCH   6   7
BRANCH   3  25
ATOM     25  C   UNL     1       3.274   3.767   6.087  0.00  0.00    +0.340 C 
ATOM     26  O   UNL     1       2.829   4.769   6.609  0.00  0.00    -0.245 OA
BRANCH  25  27
ATOM     27  O   UNL     1       3.653   2.722   6.847  0.00  0.00    -0.452 OA
BRANCH  27  28
ATOM     28  C   UNL     1       3.501   2.863   8.284  0.00  0.00    +0.328 C 
BRANCH  28  29
ATOM     29  C   UNL     1       3.973   1.604   8.966  0.00  0.00    +0.251 C 
ATOM     30  O   UNL     1       4.395   0.679   8.305  0.00  0.00    -0.272 OA
ATOM     31  N   UNL     1       3.925   1.507  10.309  0.00  0.00    -0.310 N 
ATOM     32  H   UNL     1       3.542   2.346  10.908  0.00  0.00    +0.149 HD
BRANCH  31  33
ATOM     33  C   UNL     1       4.383   0.283  10.971  0.00  0.00    +0.073 C 
ATOM     34  C   UNL     1       3.244  -0.737  11.004  0.00  0.00    +0.022 C 
ATOM     35  C   UNL     1       3.722  -2.015  11.695  0.00  0.00    +0.002 C 
ATOM     36  C   UNL     1       4.156  -1.689  13.126  0.00  0.00    +0.000 C 
ATOM     37  C   UNL     1       5.295  -0.669  13.094  0.00  0.00    +0.002 C 
ATOM     38  C   UNL     1       4.817   0.609  12.402  0.00  0.00    +0.022 C 
ENDBRANCH  31  33
ENDBRANCH  28  29
ENDBRANCH  27  28
ENDBRANCH  25  27
ENDBRANCH   3  25
TORSDOF 7
