REMARK  Name = ZINC00956061
REMARK  8 active torsions:
REMARK  status: ('A' for Active; 'I' for Inactive)
REMARK    1  A    between atoms: C_1  and  C_2
REMARK    2  A    between atoms: C_6  and  C_9
REMARK    3  A    between atoms: C_10  and  C_11
REMARK    4  A    between atoms: C_10  and  N_54
REMARK    5  A    between atoms: C_12  and  O_34
REMARK    6  A    between atoms: C_18  and  C_30
REMARK    7  A    between atoms: C_19  and  O_22
REMARK    8  A    between atoms: O_22  and  C_23
REMARK                            x       y       z     vdW  Elec       q    Type
REMARK                         _______ _______ _______ _____ _____    ______ ____
ROOT
ATOM      1  C   UNL     1       3.512  -0.894  -0.038  0.00  0.00    +0.020 A 
ATOM      2  C   UNL     1       4.748  -0.269  -0.047  0.00  0.00    +0.122 A 
ATOM      3  C   UNL     1       4.839   1.121  -0.040  0.00  0.00    +0.046 A 
ATOM      4  C   UNL     1       3.708   1.887  -0.024  0.00  0.00    +0.019 A 
ATOM      5  C   UNL     1       2.456   1.272  -0.015  0.00  0.00    +0.068 A 
ATOM      6  C   UNL     1       2.354  -0.130  -0.022  0.00  0.00    +0.144 A 
ATOM      7  O   UNL     1       1.138  -0.713  -0.013  0.00  0.00    -0.447 OA
ATOM      8  C   UNL     1       0.002  -0.004   0.002  0.00  0.00    +0.254 A 
ATOM      9  C   UNL     1      -0.016   1.344   0.009  0.00  0.00    +0.222 A 
ATOM     10  C   UNL     1       1.213   2.063   0.002  0.00  0.00    +0.235 A 
ATOM     11  O   UNL     1       1.235   3.282   0.008  0.00  0.00    -0.283 OA
ENDROOT
BRANCH   8  12
ATOM     12  C   UNL     1      -1.311  -0.744   0.011  0.00  0.00    +0.454 C 
ATOM     13  F   UNL     1      -1.730  -0.966  -1.306  0.00  0.00    -0.163 F 
ATOM     14  F   UNL     1      -1.150  -1.972   0.662  0.00  0.00    -0.163 F 
ATOM     15  F   UNL     1      -2.272   0.019   0.683  0.00  0.00    -0.163 F 
ENDBRANCH   8  12
BRANCH   2  16
ATOM     16  O   UNL     1       5.880  -1.018  -0.063  0.00  0.00    -0.506 OA
ATOM     17  H   UNL     1       6.199  -1.229  -0.951  0.00  0.00    +0.292 HD
ENDBRANCH   2  16
BRANCH   1  18
ATOM     18  C   UNL     1       3.425  -2.399  -0.045  0.00  0.00    -0.035 C 
BRANCH  18  26
ATOM     19  C   UNL     1       4.758  -4.187  -3.664  0.00  0.00    +0.036 C 
ATOM     20  C   UNL     1       3.547  -4.793  -2.951  0.00  0.00    +0.099 C 
ATOM     21  C   UNL     1       3.537  -4.341  -1.488  0.00  0.00    -0.047 C 
ATOM     22  C   UNL     1       2.141  -2.462  -2.097  0.00  0.00    -0.047 C 
ATOM     23  C   UNL     1       2.165  -2.932  -3.554  0.00  0.00    +0.099 C 
ATOM     24  O   UNL     1       2.346  -4.350  -3.589  0.00  0.00    -0.378 OA
ATOM     25  C   UNL     1       0.841  -2.570  -4.230  0.00  0.00    +0.036 C 
ATOM     26  N   UNL     1       3.404  -2.870  -1.447  0.00  0.00    +0.386 N 
ATOM     27  H   UNL     1       4.191  -2.449  -1.953  0.00  0.00    -0.081 HD
ENDBRANCH  18  26
ENDBRANCH   1  18
BRANCH   9  28
ATOM     28  O   UNL     1      -1.202   2.013   0.019  0.00  0.00    -0.447 OA
BRANCH  28  29
ATOM     29  C   UNL     1      -1.751   2.320   1.223  0.00  0.00    +0.147 A 
ATOM     30  C   UNL     1      -1.109   1.948   2.395  0.00  0.00    +0.048 A 
ATOM     31  C   UNL     1      -1.668   2.265   3.618  0.00  0.00    +0.004 A 
ATOM     32  C   UNL     1      -2.871   2.944   3.675  0.00  0.00    +0.002 A 
ATOM     33  C   UNL     1      -3.516   3.312   2.509  0.00  0.00    +0.024 A 
ATOM     34  C   UNL     1      -2.959   3.002   1.282  0.00  0.00    +0.083 A 
ATOM     35 CL   UNL     1      -3.769   3.464  -0.182  0.00  0.00    -0.080 Cl
ENDBRANCH  28  29
ENDBRANCH   9  28
TORSDOF 6
