REMARK  Name = ZINC35854536
REMARK  10 active torsions:
REMARK  status: ('A' for Active; 'I' for Inactive)
REMARK    1  A    between atoms: C_1  and  C_2
REMARK    2  A    between atoms: C_2  and  C_3
REMARK    3  A    between atoms: C_3  and  N_4
REMARK    4  A    between atoms: C_5  and  C_7
REMARK    5  A    between atoms: C_10  and  C_12
REMARK    6  A    between atoms: C_12  and  O_13
REMARK    7  A    between atoms: O_13  and  C_14
REMARK    8  A    between atoms: C_20  and  C_33
REMARK    9  A    between atoms: N_22  and  C_25
REMARK   10  A    between atoms: C_25  and  C_26
REMARK                            x       y       z     vdW  Elec       q    Type
REMARK                         _______ _______ _______ _____ _____    ______ ____
ROOT
ATOM      1  C   UNL     1       1.328  -9.388   0.488  0.00  0.00    +0.121 A 
ATOM      2  C   UNL     1       0.172 -10.152   0.420  0.00  0.00    +0.046 A 
ATOM      3  C   UNL     1      -0.028 -11.173   1.327  0.00  0.00    +0.007 A 
ATOM      4  C   UNL     1       0.920 -11.440   2.304  0.00  0.00    -0.041 A 
ATOM      5  C   UNL     1       2.071 -10.684   2.372  0.00  0.00    -0.019 A 
ATOM      6  C   UNL     1       2.276  -9.660   1.460  0.00  0.00    +0.051 A 
ATOM      7  C   UNL     1       3.133 -10.945   3.407  0.00  0.00    +0.118 C 
ATOM      8  N   UNL     1       2.594 -11.755   4.504  0.00  0.00    -0.287 NA
ATOM      9  C   UNL     1       1.950 -12.967   3.974  0.00  0.00    +0.090 C 
ATOM     10  C   UNL     1       0.652 -12.562   3.275  0.00  0.00    +0.051 C 
ENDROOT
BRANCH   7  11
ATOM     11  C   UNL     1       3.626  -9.631   3.956  0.00  0.00    -0.026 A 
ATOM     12  C   UNL     1       2.896  -8.970   4.926  0.00  0.00    +0.005 A 
ATOM     13  C   UNL     1       3.347  -7.764   5.429  0.00  0.00    +0.000 A 
ATOM     14  C   UNL     1       4.530  -7.220   4.963  0.00  0.00    +0.000 A 
ATOM     15  C   UNL     1       5.261  -7.882   3.994  0.00  0.00    +0.000 A 
ATOM     16  C   UNL     1       4.811  -9.089   3.494  0.00  0.00    +0.005 A 
ENDBRANCH   7  11
BRANCH   1  17
ATOM     17  O   UNL     1       1.532  -8.379  -0.400  0.00  0.00    -0.484 OA
BRANCH  17  18
ATOM     18  C   UNL     1       0.511  -8.157  -1.375  0.00  0.00    +0.303 C 
BRANCH  18  22
ATOM     19  C   UNL     1       1.131  -4.972  -3.051  0.00  0.00    +0.190 A 
ATOM     20  C   UNL     1       1.763  -5.812  -3.924  0.00  0.00    +0.055 A 
ATOM     21  C   UNL     1       1.614  -7.111  -3.413  0.00  0.00    +0.049 A 
ATOM     22  C   UNL     1       0.908  -7.009  -2.266  0.00  0.00    +0.143 A 
ATOM     23  O   UNL     1       0.624  -5.718  -2.049  0.00  0.00    -0.452 OA
BRANCH  19  25
ATOM     24  N   UNL     1       0.380  -2.800  -2.239  0.00  0.00    -0.309 N 
ATOM     25  C   UNL     1       1.029  -3.515  -3.179  0.00  0.00    +0.279 C 
ATOM     26  O   UNL     1       1.531  -2.951  -4.133  0.00  0.00    -0.267 OA
ATOM     27  H   UNL     1      -0.020  -3.250  -1.478  0.00  0.00    +0.149 HD
BRANCH  24  28
ATOM     28  C   UNL     1       0.278  -1.344  -2.366  0.00  0.00    +0.104 C 
BRANCH  28  30
ATOM     29  C   UNL     1      -0.609   0.739  -1.309  0.00  0.00    +0.005 C 
ATOM     30  C   UNL     1      -0.503  -0.782  -1.176  0.00  0.00    +0.015 C 
ENDBRANCH  28  30
ENDBRANCH  24  28
ENDBRANCH  19  25
ENDBRANCH  18  22
ENDBRANCH  17  18
ENDBRANCH   1  17
BRANCH   8  31
ATOM     31  C   UNL     1       3.645 -12.097   5.472  0.00  0.00    +0.123 C 
BRANCH  31  32
ATOM     32  C   UNL     1       3.015 -12.676   6.713  0.00  0.00    +0.002 A 
ATOM     33  C   UNL     1       3.053 -14.040   6.935  0.00  0.00    +0.008 A 
ATOM     34  C   UNL     1       2.476 -14.571   8.073  0.00  0.00    +0.000 A 
ATOM     35  C   UNL     1       1.860 -13.739   8.991  0.00  0.00    +0.003 A 
ATOM     36  C   UNL     1       1.822 -12.375   8.770  0.00  0.00    +0.038 A 
ATOM     37  C   UNL     1       2.404 -11.841   7.633  0.00  0.00    +0.128 A 
ATOM     38  F   UNL     1       2.371 -10.508   7.419  0.00  0.00    -0.205 F 
ENDBRANCH  31  32
ENDBRANCH   8  31
TORSDOF 9
