REMARK  Name = ZINC13493118
REMARK  3 active torsions:
REMARK  status: ('A' for Active; 'I' for Inactive)
REMARK    1  A    between atoms: C_13  and  C_30
REMARK    2  A    between atoms: C_17  and  C_19
REMARK    3  A    between atoms: C_22  and  C_24
REMARK                            x       y       z     vdW  Elec       q    Type
REMARK                         _______ _______ _______ _____ _____    ______ ____
ROOT
ATOM      1  C   UNL     1       1.162   2.083   0.002  0.00  0.00    +0.001 A 
ATOM      2  C   UNL     1       2.375   1.409  -0.012  0.00  0.00    +0.002 A 
ATOM      3  C   UNL     1       2.416   0.032  -0.020  0.00  0.00    +0.026 A 
ATOM      4  C   UNL     1       1.227  -0.693  -0.013  0.00  0.00    +0.050 A 
ATOM      5  C   UNL     1       0.002  -0.004   0.002  0.00  0.00    +0.045 A 
ATOM      6  C   UNL     1      -0.017   1.390   0.010  0.00  0.00    +0.014 A 
ATOM      7  C   UNL     1      -1.241  -0.793   0.009  0.00  0.00    +0.194 A 
ATOM      8  O   UNL     1      -2.331  -0.247   0.023  0.00  0.00    -0.287 OA
ATOM      9  C   UNL     1      -1.133  -2.206  -0.001  0.00  0.00    +0.038 A 
ATOM     10  C   UNL     1       0.080  -2.796  -0.015  0.00  0.00    +0.050 A 
ATOM     11  N   UNL     1       1.231  -2.067  -0.022  0.00  0.00    -0.356 N 
ATOM     12  H   UNL     1       2.081  -2.534  -0.033  0.00  0.00    +0.166 HD
ATOM     13  C   UNL     1      -0.103  -4.297  -0.023  0.00  0.00    +0.154 C 
ATOM     14  N   UNL     1      -1.544  -4.569  -0.011  0.00  0.00    -0.278 N 
ATOM     15  C   UNL     1      -2.209  -3.263   0.003  0.00  0.00    +0.150 C 
ATOM     16  C   UNL     1      -2.138  -5.779  -0.013  0.00  0.00    +0.283 C 
ATOM     17  O   UNL     1      -1.460  -6.790  -0.024  0.00  0.00    -0.267 OA
ENDROOT
BRANCH  13  18
ATOM     18  C   UNL     1       0.519  -4.882  -1.265  0.00  0.00    -0.018 A 
ATOM     19  C   UNL     1      -0.163  -4.831  -2.467  0.00  0.00    +0.009 A 
ATOM     20  C   UNL     1       0.404  -5.366  -3.609  0.00  0.00    +0.050 A 
ATOM     21  C   UNL     1       1.657  -5.953  -3.551  0.00  0.00    +0.166 A 
ATOM     22  C   UNL     1       2.344  -6.005  -2.340  0.00  0.00    +0.167 A 
ATOM     23  C   UNL     1       1.772  -5.463  -1.201  0.00  0.00    +0.055 A 
ATOM     24  O   UNL     1       3.542  -6.625  -2.544  0.00  0.00    -0.453 OA
ATOM     25  C   UNL     1       3.757  -6.588  -3.967  0.00  0.00    +0.466 C 
ATOM     26  O   UNL     1       2.426  -6.542  -4.513  0.00  0.00    -0.453 OA
ENDBRANCH  13  18
BRANCH  16  27
ATOM     27  C   UNL     1      -3.600  -5.877   0.000  0.00  0.00    +0.190 A 
ATOM     28  C   UNL     1      -4.332  -7.044   0.000  0.00  0.00    +0.055 A 
ATOM     29  C   UNL     1      -5.681  -6.674   0.015  0.00  0.00    +0.051 A 
ATOM     30  C   UNL     1      -5.723  -5.309   0.022  0.00  0.00    +0.137 A 
ATOM     31  O   UNL     1      -4.464  -4.840   0.019  0.00  0.00    -0.450 OA
BRANCH  30  32
ATOM     32  C   UNL     1      -6.949  -4.486   0.038  0.00  0.00    +0.035 A 
ATOM     33  C   UNL     1      -6.867  -3.087   0.045  0.00  0.00    +0.014 A 
ATOM     34  C   UNL     1      -8.045  -2.362   0.059  0.00  0.00    +0.020 A 
ATOM     35  C   UNL     1      -9.254  -3.034   0.067  0.00  0.00    +0.111 A 
ATOM     36  N   UNL     1      -9.301  -4.352   0.060  0.00  0.00    -0.263 NA
ATOM     37  C   UNL     1      -8.208  -5.087   0.040  0.00  0.00    +0.122 A 
ENDBRANCH  30  32
ENDBRANCH  16  27
TORSDOF 3
