REMARK  Name = ZINC12711072
REMARK  7 active torsions:
REMARK  status: ('A' for Active; 'I' for Inactive)
REMARK    1  A    between atoms: C_1  and  C_2
REMARK    2  A    between atoms: C_2  and  N_3
REMARK    3  A    between atoms: C_7  and  C_9
REMARK    4  A    between atoms: C_9  and  N_10
REMARK    5  A    between atoms: N_10  and  C_11
REMARK    6  A    between atoms: C_11  and  C_12
REMARK    7  A    between atoms: N_29  and  C_30
REMARK                            x       y       z     vdW  Elec       q    Type
REMARK                         _______ _______ _______ _____ _____    ______ ____
ROOT
ATOM      1  N   UNL     1      -1.198  -0.713   0.551  0.00  0.00    -0.283 N 
ATOM      2  C   UNL     1      -0.146  -0.073   0.002  0.00  0.00    +0.303 C 
ATOM      3  O   UNL     1       0.944  -0.611  -0.031  0.00  0.00    -0.253 OA
ATOM      4  N   UNL     1      -0.303   1.163  -0.512  0.00  0.00    -0.296 N 
ATOM      5  H   UNL     1      -1.304   1.618  -0.554  0.00  0.00    +0.151 HD
ENDROOT
BRANCH   4   6
ATOM      6  C   UNL     1       0.859   1.901  -1.014  0.00  0.00    +0.074 C 
ATOM      7  C   UNL     1       1.540   2.629   0.147  0.00  0.00    +0.022 C 
ATOM      8  C   UNL     1       2.754   3.399  -0.377  0.00  0.00    +0.002 C 
ATOM      9  C   UNL     1       2.298   4.420  -1.422  0.00  0.00    +0.000 C 
ATOM     10  C   UNL     1       1.616   3.692  -2.582  0.00  0.00    +0.002 C 
ATOM     11  C   UNL     1       0.403   2.921  -2.058  0.00  0.00    +0.022 C 
ENDBRANCH   4   6
BRANCH   1  12
ATOM     12  C   UNL     1      -2.533  -0.113   0.492  0.00  0.00    +0.094 C 
BRANCH  12  17
ATOM     13  N   UNL     1      -4.687  -0.195  -0.692  0.00  0.00    +0.382 N 
ATOM     14  C   UNL     1      -4.920   0.588  -1.925  0.00  0.00    -0.078 C 
ATOM     15  C   UNL     1      -3.877   0.052  -2.937  0.00  0.00    -0.020 C 
ATOM     16  C   UNL     1      -2.652  -0.201  -2.019  0.00  0.00    -0.016 C 
ATOM     17  C   UNL     1      -3.297  -0.685  -0.704  0.00  0.00    -0.051 C 
ATOM     18  H   UNL     1      -5.380  -1.048  -0.655  0.00  0.00    -0.081 HD
BRANCH  13  20
ATOM     19  C   UNL     1      -6.359   1.205   0.422  0.00  0.00    -0.017 C 
ATOM     20  C   UNL     1      -4.949   0.617   0.504  0.00  0.00    -0.082 C 
ENDBRANCH  13  20
ENDBRANCH  12  17
ENDBRANCH   1  12
BRANCH   1  21
ATOM     21  C   UNL     1      -1.005  -2.009   1.207  0.00  0.00    +0.149 C 
BRANCH  21  22
ATOM     22  C   UNL     1      -0.830  -1.800   2.689  0.00  0.00    +0.035 A 
ATOM     23  C   UNL     1      -1.901  -1.898   3.517  0.00  0.00    +0.020 A 
ATOM     24  C   UNL     1      -1.698  -1.695   4.951  0.00  0.00    +0.003 A 
ATOM     25  C   UNL     1      -2.766  -1.789   5.852  0.00  0.00    +0.059 A 
ATOM     26  C   UNL     1      -2.544  -1.590   7.197  0.00  0.00    +0.167 A 
ATOM     27  C   UNL     1      -1.257  -1.294   7.664  0.00  0.00    +0.168 A 
ATOM     28  C   UNL     1      -0.197  -1.198   6.781  0.00  0.00    +0.075 A 
ATOM     29  C   UNL     1      -0.405  -1.396   5.421  0.00  0.00    +0.053 A 
ATOM     30  N   UNL     1       0.641  -1.305   4.526  0.00  0.00    -0.322 N 
ATOM     31  H   UNL     1       1.654  -1.071   4.885  0.00  0.00    +0.169 HD
ATOM     32  C   UNL     1       0.444  -1.498   3.210  0.00  0.00    +0.254 A 
ATOM     33  O   UNL     1       1.392  -1.409   2.448  0.00  0.00    -0.268 OA
ATOM     34  O   UNL     1      -1.312  -1.146   9.019  0.00  0.00    -0.453 OA
ATOM     35  C   UNL     1      -2.552  -1.755   9.424  0.00  0.00    +0.466 C 
ATOM     36  O   UNL     1      -3.396  -1.624   8.265  0.00  0.00    -0.453 OA
ENDBRANCH  21  22
ENDBRANCH   1  21
TORSDOF 6
