REMARK  Name = ZINC39773615
REMARK  8 active torsions:
REMARK  status: ('A' for Active; 'I' for Inactive)
REMARK    1  A    between atoms: C_1  and  C_2
REMARK    2  A    between atoms: C_7  and  C_12
REMARK    3  A    between atoms: C_12  and  C_32
REMARK    4  A    between atoms: C_13  and  C_14
REMARK    5  A    between atoms: C_17  and  C_19
REMARK    6  A    between atoms: C_22  and  S_25
REMARK    7  A    between atoms: S_25  and  N_28
REMARK    8  A    between atoms: C_29  and  C_31
REMARK                            x       y       z     vdW  Elec       q    Type
REMARK                         _______ _______ _______ _____ _____    ______ ____
ROOT
ATOM      1  C   UNL     1      -2.167  -7.029   2.990  0.00  0.00    +0.130 A 
ATOM      2  C   UNL     1      -2.171  -8.243   3.650  0.00  0.00    +0.050 A 
ATOM      3  C   UNL     1      -3.512  -8.596   3.835  0.00  0.00    +0.050 A 
ATOM      4  C   UNL     1      -4.269  -7.599   3.289  0.00  0.00    +0.136 A 
ATOM      5  O   UNL     1      -3.448  -6.658   2.788  0.00  0.00    -0.455 OA
ENDROOT
BRANCH   4   6
ATOM      6  C   UNL     1      -5.744  -7.558   3.260  0.00  0.00    +0.017 A 
ATOM      7  C   UNL     1      -6.487  -8.596   3.827  0.00  0.00    +0.013 A 
ATOM      8  C   UNL     1      -7.865  -8.551   3.796  0.00  0.00    +0.030 A 
ATOM      9  C   UNL     1      -8.512  -7.480   3.204  0.00  0.00    +0.113 A 
ATOM     10  C   UNL     1      -7.783  -6.448   2.640  0.00  0.00    +0.030 A 
ATOM     11  C   UNL     1      -6.404  -6.478   2.669  0.00  0.00    +0.013 A 
BRANCH   9  12
ATOM     12  S   UNL     1     -10.273  -7.431   3.168  0.00  0.00    +0.102 S 
ATOM     13  O   UNL     1     -10.634  -6.595   2.078  0.00  0.00    -0.146 OA
ATOM     14  O   UNL     1     -10.719  -8.776   3.277  0.00  0.00    -0.146 OA
BRANCH  12  15
ATOM     15  N   UNL     1     -10.770  -6.655   4.544  0.00  0.00    -0.091 NA
ATOM     16  C   UNL     1     -12.028  -6.483   4.769  0.00  0.00    +0.262 C 
ATOM     17  O   UNL     1     -12.940  -6.934   3.883  0.00  0.00    -0.270 OA
ATOM     18  C   UNL     1     -12.480  -5.777   6.021  0.00  0.00    +0.116 C 
ENDBRANCH  12  15
ENDBRANCH   9  12
ENDBRANCH   4   6
BRANCH   1  20
ATOM     19  C   UNL     1      -1.155  -5.112   1.958  0.00  0.00    +0.075 C 
ATOM     20  C   UNL     1      -1.019  -6.300   2.599  0.00  0.00    +0.064 C 
BRANCH  19  27
ATOM     21  C   UNL     1      -0.018   1.503   0.010  0.00  0.00    +0.044 C 
ATOM     22  C   UNL     1       0.002  -0.004   0.002  0.00  0.00    -0.048 A 
ATOM     23  C   UNL     1       0.005  -0.672  -1.235  0.00  0.00    +0.005 A 
ATOM     24  C   UNL     1       0.022  -2.017  -1.335  0.00  0.00    +0.027 A 
ATOM     25  C   UNL     1       0.040  -2.834  -0.114  0.00  0.00    +0.060 A 
ATOM     26  N   UNL     1       0.057  -4.120   0.090  0.00  0.00    -0.359 N 
ATOM     27  C   UNL     1       0.067  -4.335   1.542  0.00  0.00    +0.216 C 
ATOM     28  N   UNL     1       0.053  -3.002   2.159  0.00  0.00    -0.359 N 
ATOM     29  C   UNL     1       0.037  -2.127   1.195  0.00  0.00    +0.061 A 
ATOM     30  C   UNL     1       0.022  -0.657   1.181  0.00  0.00    +0.030 A 
ATOM     31  H   UNL     1       0.062  -4.809  -0.593  0.00  0.00    +0.162 HD
ATOM     32  H   UNL     1       0.055  -2.810   3.109  0.00  0.00    +0.162 HD
ENDBRANCH  19  27
BRANCH  19  33
ATOM     33  C   UNL     1      -2.461  -4.596   1.678  0.00  0.00    +0.099 C 
ATOM     34  N   UNL     1      -3.498  -4.186   1.455  0.00  0.00    -0.191 NA
ENDBRANCH  19  33
ENDBRANCH   1  20
TORSDOF 6
