REMARK  Name = ZINC39355818
REMARK  8 active torsions:
REMARK  status: ('A' for Active; 'I' for Inactive)
REMARK    1  A    between atoms: C_1  and  C_2
REMARK    2  A    between atoms: C_3  and  C_19
REMARK    3  A    between atoms: N_5  and  C_12
REMARK    4  A    between atoms: C_8  and  C_10
REMARK    5  A    between atoms: N_21  and  N_22
REMARK    6  A    between atoms: C_23  and  C_24
REMARK    7  A    between atoms: C_29  and  O_36
REMARK    8  A    between atoms: O_36  and  C_37
REMARK                            x       y       z     vdW  Elec       q    Type
REMARK                         _______ _______ _______ _____ _____    ______ ____
ROOT
ATOM      1  C   UNL     1       1.236  -0.349  -2.790  0.00  0.00    +0.279 C 
ATOM      2  O   UNL     1       1.270   0.855  -2.958  0.00  0.00    -0.267 OA
ATOM      3  N   UNL     1       1.522  -1.180  -3.812  0.00  0.00    -0.202 N 
ATOM      4  H   UNL     1       1.494  -2.141  -3.678  0.00  0.00    +0.178 HD
ENDROOT
BRANCH   1   7
ATOM      5  C   UNL     1       0.323   1.387  -0.804  0.00  0.00    +0.043 C 
ATOM      6  C   UNL     1       0.447  -0.086  -0.510  0.00  0.00    -0.020 C 
ATOM      7  C   UNL     1       0.880  -0.900  -1.468  0.00  0.00    +0.109 C 
ATOM      8  N   UNL     1       1.003  -2.274  -1.235  0.00  0.00    -0.253 N 
ATOM      9  N   UNL     1       0.342  -2.850  -0.142  0.00  0.00    -0.189 N 
ATOM     10  C   UNL     1      -0.121  -2.076   0.854  0.00  0.00    +0.257 C 
ATOM     11  O   UNL     1      -0.715  -2.594   1.776  0.00  0.00    -0.272 OA
ATOM     12  C   UNL     1       0.083  -0.588   0.857  0.00  0.00    +0.207 C 
ATOM     13  H   UNL     1       1.541  -2.824  -1.826  0.00  0.00    +0.171 HD
BRANCH   9  14
ATOM     14  C   UNL     1       0.164  -4.237  -0.088  0.00  0.00    +0.056 A 
ATOM     15  C   UNL     1       0.534  -4.942   1.049  0.00  0.00    +0.026 A 
ATOM     16  C   UNL     1       0.357  -6.311   1.100  0.00  0.00    +0.022 A 
ATOM     17  C   UNL     1      -0.189  -6.980   0.018  0.00  0.00    +0.041 A 
ATOM     18  C   UNL     1      -0.559  -6.280  -1.116  0.00  0.00    +0.022 A 
ATOM     19  C   UNL     1      -0.390  -4.910  -1.170  0.00  0.00    +0.026 A 
ATOM     20 CL   UNL     1      -0.409  -8.701   0.085  0.00  0.00    -0.084 Cl
ENDBRANCH   9  14
BRANCH  12  21
ATOM     21  C   UNL     1       1.161  -0.246   1.798  0.00  0.00    +0.080 C 
ATOM     22  N   UNL     1       1.994   0.018   2.525  0.00  0.00    -0.195 NA
ENDBRANCH  12  21
ENDBRANCH   1   7
BRANCH   3  23
ATOM     23  N   UNL     1       1.859  -0.657  -5.067  0.00  0.00    -0.191 NA
ATOM     24  C   UNL     1       2.181  -1.444  -6.023  0.00  0.00    +0.120 C 
BRANCH  24  25
ATOM     25  C   UNL     1       2.039  -2.935  -5.852  0.00  0.00    +0.141 C 
ATOM     26  C   UNL     1       3.426  -3.515  -5.656  0.00  0.00    +0.001 C 
ATOM     27  C   UNL     1       3.837  -4.467  -6.540  0.00  0.00    -0.003 A 
ATOM     28  C   UNL     1       5.161  -5.079  -6.423  0.00  0.00    +0.055 A 
ATOM     29  C   UNL     1       5.529  -6.026  -7.330  0.00  0.00    +0.121 A 
ATOM     30  C   UNL     1       4.667  -6.418  -8.361  0.00  0.00    +0.047 A 
ATOM     31  C   UNL     1       3.428  -5.887  -8.521  0.00  0.00    +0.027 A 
ATOM     32  C   UNL     1       2.953  -4.901  -7.636  0.00  0.00    +0.041 A 
ATOM     33  N   UNL     1       1.733  -4.389  -7.805  0.00  0.00    -0.284 N 
ATOM     34  C   UNL     1       1.225  -3.460  -7.014  0.00  0.00    +0.229 C 
ATOM     35  O   UNL     1       0.106  -3.030  -7.218  0.00  0.00    -0.274 OA
ATOM     36  H   UNL     1       1.194  -4.712  -8.544  0.00  0.00    +0.155 HD
BRANCH  29  37
ATOM     37  O   UNL     1       6.757  -6.601  -7.232  0.00  0.00    -0.495 OA
ATOM     38  C   UNL     1       7.090  -7.588  -8.209  0.00  0.00    +0.277 C 
ENDBRANCH  29  37
ENDBRANCH  24  25
ENDBRANCH   3  23
TORSDOF 6
