REMARK  Name = ZINC39228198
REMARK  8 active torsions:
REMARK  status: ('A' for Active; 'I' for Inactive)
REMARK    1  A    between atoms: C_1  and  C_2
REMARK    2  A    between atoms: C_2  and  C_3
REMARK    3  A    between atoms: C_3  and  C_4
REMARK    4  A    between atoms: C_4  and  C_5
REMARK    5  A    between atoms: C_5  and  C_6
REMARK    6  A    between atoms: C_6  and  N_7
REMARK    7  A    between atoms: C_8  and  C_10
REMARK    8  A    between atoms: C_12  and  O_37
REMARK                            x       y       z     vdW  Elec       q    Type
REMARK                         _______ _______ _______ _____ _____    ______ ____
ROOT
ATOM      1  C   UNL     1       3.006  -6.331  -5.199  0.00  0.00    +0.107 C 
ATOM      2  C   UNL     1       4.444  -5.805  -5.210  0.00  0.00    +0.127 C 
ATOM      3  C   UNL     1       5.167  -6.303  -6.461  0.00  0.00    +0.032 C 
ATOM      4  C   UNL     1       5.178  -7.834  -6.478  0.00  0.00    +0.004 C 
ATOM      5  C   UNL     1       3.737  -8.346  -6.476  0.00  0.00    -0.024 C 
ATOM      6  C   UNL     1       3.030  -7.860  -5.207  0.00  0.00    +0.004 C 
ATOM      7  C   UNL     1       1.603  -8.411  -5.180  0.00  0.00    -0.005 C 
ATOM      8  C   UNL     1       1.667  -9.938  -5.262  0.00  0.00    -0.020 C 
ATOM      9  C   UNL     1       0.274 -10.515  -5.238  0.00  0.00    +0.006 A 
ATOM     10  H   UNL     1      -0.751  -9.411  -3.800  0.00  0.00    +0.166 HD
ATOM     11  C   UNL     1      -0.105 -11.540  -6.037  0.00  0.00    -0.022 A 
ATOM     12  C   UNL     1      -1.492 -11.822  -5.741  0.00  0.00    +0.003 A 
ATOM     13  C   UNL     1      -2.401 -12.757  -6.245  0.00  0.00    +0.010 A 
ATOM     14  C   UNL     1      -3.668 -12.739  -5.717  0.00  0.00    +0.001 A 
ATOM     15  C   UNL     1      -4.042 -11.840  -4.731  0.00  0.00    +0.002 A 
ATOM     16  C   UNL     1      -3.164 -10.903  -4.215  0.00  0.00    +0.026 A 
ATOM     17  C   UNL     1      -1.870 -10.899  -4.731  0.00  0.00    +0.047 A 
ATOM     18  N   UNL     1      -0.777 -10.127  -4.454  0.00  0.00    -0.359 N 
ATOM     19  C   UNL     1       0.819 -12.206  -7.025  0.00  0.00    +0.019 C 
ATOM     20  C   UNL     1       2.258 -11.790  -6.687  0.00  0.00    -0.073 C 
ATOM     21  N   UNL     1       2.321 -10.335  -6.516  0.00  0.00    +0.386 N 
ATOM     22  C   UNL     1       3.718  -9.875  -6.507  0.00  0.00    -0.074 C 
ATOM     23  H   UNL     1       1.842  -9.896  -7.288  0.00  0.00    -0.081 HD
ENDROOT
BRANCH   1  25
ATOM     24  N   UNL     1       2.162  -4.523  -3.738  0.00  0.00    -0.315 N 
ATOM     25  C   UNL     1       2.301  -5.845  -3.959  0.00  0.00    +0.219 C 
ATOM     26  O   UNL     1       1.858  -6.644  -3.161  0.00  0.00    -0.275 OA
ATOM     27  H   UNL     1       2.515  -3.884  -4.376  0.00  0.00    +0.149 HD
BRANCH  24  28
ATOM     28  C   UNL     1       1.476  -4.051  -2.532  0.00  0.00    +0.104 C 
BRANCH  28  29
ATOM     29  C   UNL     1       1.455  -2.521  -2.524  0.00  0.00    +0.019 C 
BRANCH  29  30
ATOM     30  C   UNL     1       0.739  -2.027  -1.265  0.00  0.00    +0.002 C 
BRANCH  30  31
ATOM     31  C   UNL     1       0.718  -0.497  -1.257  0.00  0.00    -0.000 C 
BRANCH  31  33
ATOM     32  C   UNL     1      -0.019   1.526   0.010  0.00  0.00    +0.004 C 
ATOM     33  C   UNL     1       0.002  -0.004   0.002  0.00  0.00    -0.003 C 
ENDBRANCH  31  33
ENDBRANCH  30  31
ENDBRANCH  29  30
ENDBRANCH  28  29
ENDBRANCH  24  28
ENDBRANCH   1  25
BRANCH   2  34
ATOM     34  O   UNL     1       5.130  -6.273  -4.047  0.00  0.00    -0.391 OA
ATOM     35  H   UNL     1       6.048  -5.977  -3.987  0.00  0.00    +0.210 HD
ENDBRANCH   2  34
TORSDOF 7
