REMARK  Name = ZINC55119741
REMARK  6 active torsions:
REMARK  status: ('A' for Active; 'I' for Inactive)
REMARK    1  A    between atoms: C_3  and  C_7
REMARK    2  A    between atoms: C_7  and  O_35
REMARK    3  A    between atoms: N_10  and  C_13
REMARK    4  A    between atoms: C_13  and  C_14
REMARK    5  A    between atoms: N_21  and  C_25
REMARK    6  A    between atoms: C_25  and  C_26
REMARK                            x       y       z     vdW  Elec       q    Type
REMARK                         _______ _______ _______ _____ _____    ______ ____
ROOT
ATOM      1  C   UNL     1       8.838   1.661   0.156  0.00  0.00    -0.063 A 
ATOM      2  C   UNL     1       9.461   0.721   0.955  0.00  0.00    +0.005 A 
ATOM      3  C   UNL     1      10.378  -0.158   0.409  0.00  0.00    +0.046 A 
ATOM      4  C   UNL     1      10.666  -0.095  -0.947  0.00  0.00    +0.125 A 
ATOM      5  C   UNL     1      10.028   0.836  -1.744  0.00  0.00    +0.008 A 
ATOM      6  C   UNL     1       9.118   1.718  -1.198  0.00  0.00    +0.010 A 
ATOM      7  C   UNL     1      10.310   0.858  -3.234  0.00  0.00    +0.123 C 
ATOM      8  N   UNL     1      11.690   1.309  -3.447  0.00  0.00    -0.291 NA
ATOM      9  C   UNL     1      12.659   0.221  -3.333  0.00  0.00    +0.126 C 
ATOM     10  C   UNL     1      12.804  -0.316  -1.926  0.00  0.00    +0.244 C 
ATOM     11  O   UNL     1      11.587  -0.936  -1.491  0.00  0.00    -0.490 OA
ENDROOT
BRANCH   1  12
ATOM     12  C   UNL     1       7.846   2.622   0.759  0.00  0.00    -0.043 C 
BRANCH  12  16
ATOM     13  C   UNL     1       3.696   2.049  -0.023  0.00  0.00    +0.089 C 
ATOM     14  C   UNL     1       4.168   2.273   1.417  0.00  0.00    +0.021 C 
ATOM     15  C   UNL     1       5.555   2.918   1.399  0.00  0.00    -0.075 C 
ATOM     16  N   UNL     1       6.500   2.035   0.706  0.00  0.00    +0.383 N 
ATOM     17  C   UNL     1       6.094   1.874  -0.696  0.00  0.00    -0.075 C 
ATOM     18  C   UNL     1       4.727   1.188  -0.759  0.00  0.00    +0.021 C 
ATOM     19  H   UNL     1       6.511   1.133   1.158  0.00  0.00    -0.081 HD
BRANCH  13  22
ATOM     20  C   UNL     1      -0.017   1.378   0.010  0.00  0.00    +0.020 A 
ATOM     21  C   UNL     1       1.185   2.070   0.002  0.00  0.00    +0.009 A 
ATOM     22  C   UNL     1       2.365   1.343  -0.013  0.00  0.00    +0.002 A 
ATOM     23  C   UNL     1       2.305  -0.038  -0.020  0.00  0.00    +0.117 A 
ATOM     24  N   UNL     1       1.144  -0.663  -0.013  0.00  0.00    -0.263 NA
ATOM     25  C   UNL     1       0.002  -0.004   0.002  0.00  0.00    +0.111 A 
ENDBRANCH  13  22
BRANCH  13  26
ATOM     26  O   UNL     1       3.565   3.308  -0.685  0.00  0.00    -0.384 OA
ATOM     27  H   UNL     1       2.928   3.906  -0.270  0.00  0.00    +0.211 HD
ENDBRANCH  13  26
ENDBRANCH  12  16
ENDBRANCH   1  12
BRANCH   8  28
ATOM     28  C   UNL     1      11.825   2.001  -4.736  0.00  0.00    +0.120 C 
BRANCH  28  29
ATOM     29  C   UNL     1      13.178   2.659  -4.814  0.00  0.00    -0.031 A 
ATOM     30  C   UNL     1      13.328   3.966  -4.350  0.00  0.00    +0.007 A 
ATOM     31  C   UNL     1      14.523   4.600  -4.397  0.00  0.00    +0.031 A 
ATOM     32  C   UNL     1      15.662   3.937  -4.929  0.00  0.00    +0.100 A 
ATOM     33  C   UNL     1      15.505   2.571  -5.414  0.00  0.00    +0.100 A 
ATOM     34  C   UNL     1      14.222   1.966  -5.328  0.00  0.00    +0.035 A 
ATOM     35  N   UNL     1      16.637   2.050  -5.889  0.00  0.00    -0.191 NA
ATOM     36  S   UNL     1      17.750   3.200  -5.720  0.00  0.00    +0.116 S 
ATOM     37  N   UNL     1      16.907   4.399  -5.055  0.00  0.00    -0.191 NA
ENDBRANCH  28  29
ENDBRANCH   8  28
TORSDOF 6
