REMARK  Name = ZINC46624555
REMARK  8 active torsions:
REMARK  status: ('A' for Active; 'I' for Inactive)
REMARK    1  A    between atoms: C_1  and  C_2
REMARK    2  A    between atoms: C_5  and  S_24
REMARK    3  A    between atoms: C_7  and  C_8
REMARK    4  A    between atoms: C_13  and  O_16
REMARK    5  A    between atoms: O_16  and  C_17
REMARK    6  A    between atoms: C_17  and  C_18
REMARK    7  A    between atoms: S_24  and  N_27
REMARK    8  A    between atoms: N_27  and  C_28
REMARK                            x       y       z     vdW  Elec       q    Type
REMARK                         _______ _______ _______ _____ _____    ______ ____
ROOT
ATOM      1  C   UNL     1      -2.173   0.346   0.642  0.00  0.00    +0.044 C 
ATOM      2  C   UNL     1      -1.015  -0.557   0.303  0.00  0.00    -0.038 A 
ATOM      3  C   UNL     1      -1.041  -1.311  -0.852  0.00  0.00    +0.006 A 
ATOM      4  C   UNL     1       0.021  -2.141  -1.164  0.00  0.00    +0.029 A 
ATOM      5  C   UNL     1       1.116  -2.220  -0.322  0.00  0.00    +0.111 A 
ATOM      6  C   UNL     1       1.155  -1.472   0.836  0.00  0.00    +0.042 A 
ATOM      7  C   UNL     1       0.089  -0.629   1.155  0.00  0.00    +0.042 A 
ENDROOT
BRANCH   7   8
ATOM      8  C   UNL     1       0.126   0.181   2.391  0.00  0.00    +0.247 C 
ATOM      9  O   UNL     1      -0.021   1.386   2.333  0.00  0.00    -0.270 OA
ATOM     10  N   UNL     1       0.323  -0.417   3.583  0.00  0.00    -0.297 N 
ATOM     11  C   UNL     1       0.601  -1.858   3.660  0.00  0.00    +0.110 C 
ATOM     12  C   UNL     1      -0.400  -2.502   4.625  0.00  0.00    +0.050 C 
ATOM     13  C   UNL     1      -0.343  -1.777   5.971  0.00  0.00    +0.122 C 
ATOM     14  C   UNL     1      -0.732  -0.309   5.780  0.00  0.00    +0.050 C 
ATOM     15  C   UNL     1       0.271   0.360   4.828  0.00  0.00    +0.110 C 
BRANCH  13  16
ATOM     16  O   UNL     1      -1.253  -2.396   6.884  0.00  0.00    -0.372 OA
BRANCH  16  17
ATOM     17  C   UNL     1      -0.850  -2.311   8.252  0.00  0.00    +0.195 C 
BRANCH  17  18
ATOM     18  C   UNL     1      -1.877  -2.992   9.121  0.00  0.00    -0.022 A 
ATOM     19  C   UNL     1      -2.944  -2.271   9.624  0.00  0.00    +0.006 A 
ATOM     20  C   UNL     1      -3.885  -2.896  10.421  0.00  0.00    +0.000 A 
ATOM     21  C   UNL     1      -3.760  -4.241  10.713  0.00  0.00    +0.000 A 
ATOM     22  C   UNL     1      -2.694  -4.962  10.209  0.00  0.00    +0.000 A 
ATOM     23  C   UNL     1      -1.755  -4.338   9.409  0.00  0.00    +0.006 A 
ENDBRANCH  17  18
ENDBRANCH  16  17
ENDBRANCH  13  16
ENDBRANCH   7   8
BRANCH   5  24
ATOM     24  S   UNL     1       2.463  -3.281  -0.728  0.00  0.00    +0.092 S 
ATOM     25  O   UNL     1       3.121  -3.589   0.493  0.00  0.00    -0.148 OA
ATOM     26  O   UNL     1       1.944  -4.286  -1.588  0.00  0.00    -0.148 OA
BRANCH  24  27
ATOM     27  N   UNL     1       3.531  -2.393  -1.630  0.00  0.00    -0.095 NA
BRANCH  27  28
ATOM     28  C   UNL     1       4.709  -2.982  -2.099  0.00  0.00    +0.109 A 
ATOM     29  C   UNL     1       4.983  -4.313  -1.815  0.00  0.00    +0.029 A 
ATOM     30  C   UNL     1       6.147  -4.892  -2.280  0.00  0.00    +0.002 A 
ATOM     31  C   UNL     1       7.042  -4.149  -3.028  0.00  0.00    +0.003 A 
ATOM     32  C   UNL     1       6.774  -2.822  -3.313  0.00  0.00    +0.040 A 
ATOM     33  C   UNL     1       5.607  -2.237  -2.857  0.00  0.00    +0.148 A 
ATOM     34  F   UNL     1       5.343  -0.943  -3.141  0.00  0.00    -0.203 F 
ENDBRANCH  27  28
ENDBRANCH  24  27
ENDBRANCH   5  24
TORSDOF 7
