REMARK  Name = ZINC59478062
REMARK  12 active torsions:
REMARK  status: ('A' for Active; 'I' for Inactive)
REMARK    1  A    between atoms: C_1  and  C_2
REMARK    2  A    between atoms: C_6  and  N_9
REMARK    3  A    between atoms: C_7  and  C_8
REMARK    4  A    between atoms: N_12  and  C_13
REMARK    5  A    between atoms: C_13  and  C_14
REMARK    6  A    between atoms: C_14  and  C_35
REMARK    7  A    between atoms: C_16  and  N_23
REMARK    8  A    between atoms: C_19  and  C_21
REMARK    9  A    between atoms: C_19  and  C_22
REMARK   10  A    between atoms: N_26  and  C_27
REMARK   11  A    between atoms: C_31  and  C_34
REMARK   12  A    between atoms: C_32  and  C_33
REMARK                            x       y       z     vdW  Elec       q    Type
REMARK                         _______ _______ _______ _____ _____    ______ ____
ROOT
ATOM      1  C   UNL     1      -0.188  -6.885   5.276  0.00  0.00    -0.014 C 
ATOM      2  C   UNL     1       1.104  -6.386   5.904  0.00  0.00    +0.030 C 
ATOM      3  C   UNL     1       1.465  -7.101   7.194  0.00  0.00    +0.076 C 
ATOM      4  C   UNL     1       1.472  -8.609   7.023  0.00  0.00    +0.028 C 
ATOM      5  C   UNL     1       0.197  -9.161   6.406  0.00  0.00    -0.033 C 
ATOM      6  C   UNL     1      -0.253  -8.396   5.177  0.00  0.00    +0.014 C 
ATOM      7  C   UNL     1      -0.922  -9.239   7.448  0.00  0.00    +0.011 C 
ATOM      8  C   UNL     1       0.495 -10.615   5.963  0.00  0.00    +0.011 C 
ATOM      9  C   UNL     1      -1.407  -6.324   6.012  0.00  0.00    +0.013 C 
ENDROOT
BRANCH   3  10
ATOM     10  N   UNL     1       0.627  -6.678   8.312  0.00  0.00    -0.296 N 
ATOM     11  C   UNL     1       1.040  -6.883   9.578  0.00  0.00    +0.304 C 
ATOM     12  O   UNL     1       2.110  -7.420   9.790  0.00  0.00    -0.253 OA
ATOM     13  N   UNL     1       0.267  -6.492  10.610  0.00  0.00    -0.269 N 
ATOM     14  H   UNL     1      -0.226  -6.250   8.143  0.00  0.00    +0.151 HD
ATOM     15  H   UNL     1      -0.613  -6.119  10.443  0.00  0.00    +0.156 HD
BRANCH  13  16
ATOM     16  C   UNL     1       0.733  -6.625  11.923  0.00  0.00    +0.038 A 
ATOM     17  C   UNL     1       1.687  -7.586  12.229  0.00  0.00    +0.023 A 
ATOM     18  C   UNL     1       2.145  -7.714  13.526  0.00  0.00    +0.002 A 
ATOM     19  C   UNL     1       1.654  -6.886  14.519  0.00  0.00    +0.004 A 
ATOM     20  C   UNL     1       0.704  -5.929  14.218  0.00  0.00    -0.046 A 
ATOM     21  C   UNL     1       0.246  -5.792  12.922  0.00  0.00    -0.026 A 
ATOM     22  C   UNL     1      -0.786  -4.743  12.593  0.00  0.00    +0.046 C 
ATOM     23  C   UNL     1       0.171  -5.029  15.303  0.00  0.00    +0.044 C 
ENDBRANCH  13  16
ENDBRANCH   3  10
BRANCH   1  24
ATOM     24  C   UNL     1      -0.242  -6.324   3.833  0.00  0.00    +0.112 C 
BRANCH  24  28
ATOM     25  N   UNL     1      -0.158  -2.805   2.769  0.00  0.00    -0.269 N 
ATOM     26  C   UNL     1      -0.213  -4.151   2.730  0.00  0.00    +0.304 C 
ATOM     27  O   UNL     1      -0.292  -4.726   1.661  0.00  0.00    -0.253 OA
ATOM     28  N   UNL     1      -0.181  -4.860   3.875  0.00  0.00    -0.299 N 
ATOM     29  H   UNL     1      -0.010  -2.350   3.612  0.00  0.00    +0.156 HD
ATOM     30  H   UNL     1      -0.119  -4.402   4.728  0.00  0.00    +0.150 HD
BRANCH  25  36
ATOM     31  C   UNL     1       0.659   1.324   0.228  0.00  0.00    +0.044 C 
ATOM     32  C   UNL     1       0.072  -0.060   0.333  0.00  0.00    -0.046 A 
ATOM     33  C   UNL     1      -0.622  -0.599  -0.735  0.00  0.00    +0.004 A 
ATOM     34  C   UNL     1      -1.163  -1.868  -0.642  0.00  0.00    +0.002 A 
ATOM     35  C   UNL     1      -1.010  -2.602   0.518  0.00  0.00    +0.023 A 
ATOM     36  C   UNL     1      -0.314  -2.064   1.592  0.00  0.00    +0.038 A 
ATOM     37  C   UNL     1       0.232  -0.791   1.494  0.00  0.00    -0.026 A 
ATOM     38  C   UNL     1       0.994  -0.205   2.655  0.00  0.00    +0.046 C 
ENDBRANCH  25  36
ENDBRANCH  24  28
ENDBRANCH   1  24
TORSDOF 5
