REMARK  Name = ZINC16673026
REMARK  7 active torsions:
REMARK  status: ('A' for Active; 'I' for Inactive)
REMARK    1  A    between atoms: C_4  and  C_7
REMARK    2  A    between atoms: C_7  and  O_9
REMARK    3  A    between atoms: O_9  and  C_10
REMARK    4  A    between atoms: C_13  and  C_16
REMARK    5  A    between atoms: N_20  and  S_21
REMARK    6  A    between atoms: S_21  and  C_24
REMARK    7  A    between atoms: N_30  and  C_31
REMARK                            x       y       z     vdW  Elec       q    Type
REMARK                         _______ _______ _______ _____ _____    ______ ____
ROOT
ATOM      1  C   UNL     1       2.326   4.197   0.113  0.00  0.00    +0.063 A 
ATOM      2  C   UNL     1       2.228   5.492   0.474  0.00  0.00    +0.075 A 
ATOM      3  S   UNL     1       0.504   5.839   0.171  0.00  0.00    -0.056 S 
ATOM      4  C   UNL     1       0.025   4.226  -0.427  0.00  0.00    +0.199 A 
ATOM      5  N   UNL     1      -1.148   3.808  -0.830  0.00  0.00    -0.103 NA
ATOM      6  N   UNL     1       1.218   3.537  -0.353  0.00  0.00    -0.287 N 
ENDROOT
BRANCH   1  10
ATOM      7  C   UNL     1       6.053   2.175   0.405  0.00  0.00    +0.132 A 
ATOM      8  C   UNL     1       6.000   3.457  -0.126  0.00  0.00    +0.047 A 
ATOM      9  C   UNL     1       4.793   4.116  -0.223  0.00  0.00    +0.013 A 
ATOM     10  C   UNL     1       3.623   3.493   0.214  0.00  0.00    -0.000 A 
ATOM     11  C   UNL     1       3.681   2.206   0.752  0.00  0.00    +0.013 A 
ATOM     12  C   UNL     1       4.891   1.552   0.840  0.00  0.00    +0.047 A 
BRANCH   7  13
ATOM     13  O   UNL     1       7.245   1.529   0.499  0.00  0.00    -0.422 OA
BRANCH  13  14
ATOM     14  C   UNL     1       7.492   0.565  -0.409  0.00  0.00    +0.344 C 
ATOM     15  O   UNL     1       6.631   0.246  -1.205  0.00  0.00    -0.245 OA
BRANCH  14  19
ATOM     16  C   UNL     1      11.276  -1.359  -0.490  0.00  0.00    +0.000 A 
ATOM     17  C   UNL     1      10.299  -1.724  -1.398  0.00  0.00    +0.001 A 
ATOM     18  C   UNL     1       9.067  -1.104  -1.378  0.00  0.00    +0.015 A 
ATOM     19  C   UNL     1       8.808  -0.104  -0.438  0.00  0.00    +0.059 A 
ATOM     20  C   UNL     1       9.801   0.264   0.472  0.00  0.00    +0.015 A 
ATOM     21  C   UNL     1      11.027  -0.369   0.444  0.00  0.00    +0.001 A 
ENDBRANCH  14  19
ENDBRANCH  13  14
ENDBRANCH   7  13
ENDBRANCH   1  10
BRANCH   6  22
ATOM     22  C   UNL     1       1.295   2.193  -0.738  0.00  0.00    +0.049 A 
ATOM     23  C   UNL     1       0.345   1.285  -0.288  0.00  0.00    +0.026 A 
ATOM     24  C   UNL     1       0.424  -0.040  -0.670  0.00  0.00    +0.002 A 
ATOM     25  C   UNL     1       1.446  -0.463  -1.500  0.00  0.00    +0.000 A 
ATOM     26  C   UNL     1       2.393   0.439  -1.950  0.00  0.00    +0.002 A 
ATOM     27  C   UNL     1       2.320   1.765  -1.572  0.00  0.00    +0.026 A 
ENDBRANCH   6  22
BRANCH   5  28
ATOM     28  S   UNL     1      -2.442   4.841  -0.826  0.00  0.00    +0.101 S 
ATOM     29  O   UNL     1      -2.713   5.146   0.536  0.00  0.00    -0.146 OA
ATOM     30  O   UNL     1      -2.163   5.846  -1.791  0.00  0.00    -0.146 OA
BRANCH  28  31
ATOM     31  C   UNL     1      -3.832   3.938  -1.425  0.00  0.00    +0.113 A 
ATOM     32  C   UNL     1      -4.116   3.925  -2.778  0.00  0.00    +0.029 A 
ATOM     33  C   UNL     1      -5.203   3.213  -3.249  0.00  0.00    +0.002 A 
ATOM     34  C   UNL     1      -6.012   2.523  -2.366  0.00  0.00    +0.000 A 
ATOM     35  C   UNL     1      -5.731   2.541  -1.013  0.00  0.00    +0.002 A 
ATOM     36  C   UNL     1      -4.641   3.248  -0.542  0.00  0.00    +0.029 A 
ENDBRANCH  28  31
ENDBRANCH   5  28
TORSDOF 7
