REMARK  Name = ZINC00720028
REMARK  5 active torsions:
REMARK  status: ('A' for Active; 'I' for Inactive)
REMARK    1  A    between atoms: C_1  and  C_2
REMARK    2  A    between atoms: C_7  and  C_17
REMARK    3  A    between atoms: C_29  and  C_31
REMARK    4  A    between atoms: C_31  and  O_33
REMARK    5  A    between atoms: O_33  and  C_34
REMARK                            x       y       z     vdW  Elec       q    Type
REMARK                         _______ _______ _______ _____ _____    ______ ____
ROOT
ATOM      1  C   UNL     1      -2.130   5.210   0.937  0.00  0.00    +0.009 C 
ATOM      2  C   UNL     1      -1.402   4.673   2.171  0.00  0.00    +0.013 C 
ATOM      3  C   UNL     1      -2.039   5.242   3.437  0.00  0.00    +0.055 C 
ATOM      4  C   UNL     1      -3.505   4.845   3.500  0.00  0.00    +0.017 C 
ATOM      5  C   UNL     1      -3.911   3.665   3.003  0.00  0.00    +0.037 C 
ATOM      6  C   UNL     1      -5.325   3.136   3.020  0.00  0.00    +0.137 C 
ATOM      7  N   UNL     1      -6.327   4.114   3.391  0.00  0.00    -0.331 N 
ATOM      8  C   UNL     1      -6.345   4.679   4.665  0.00  0.00    +0.049 A 
ATOM      9  C   UNL     1      -7.366   4.407   5.561  0.00  0.00    +0.025 A 
ATOM     10  C   UNL     1      -7.287   4.903   6.851  0.00  0.00    +0.002 A 
ATOM     11  C   UNL     1      -6.201   5.663   7.245  0.00  0.00    +0.002 A 
ATOM     12  C   UNL     1      -5.189   5.952   6.345  0.00  0.00    +0.025 A 
ATOM     13  C   UNL     1      -5.274   5.472   5.050  0.00  0.00    +0.052 A 
ATOM     14  N   UNL     1      -4.316   5.762   4.085  0.00  0.00    -0.316 N 
ATOM     15  C   UNL     1      -2.983   2.796   2.383  0.00  0.00    +0.177 C 
ATOM     16  O   UNL     1      -3.375   1.726   1.960  0.00  0.00    -0.291 OA
ATOM     17  C   UNL     1      -1.534   3.146   2.228  0.00  0.00    +0.171 C 
ATOM     18  H   UNL     1      -6.996   4.380   2.742  0.00  0.00    +0.147 HD
ATOM     19  H   UNL     1      -4.221   6.687   3.810  0.00  0.00    +0.152 HD
ENDROOT
BRANCH   6  20
ATOM     20  C   UNL     1      -5.392   1.990   3.996  0.00  0.00    -0.005 A 
ATOM     21  C   UNL     1      -4.443   1.878   4.995  0.00  0.00    +0.056 A 
ATOM     22  C   UNL     1      -4.502   0.826   5.894  0.00  0.00    +0.167 A 
ATOM     23  C   UNL     1      -5.520  -0.119   5.788  0.00  0.00    +0.167 A 
ATOM     24  C   UNL     1      -6.468  -0.002   4.785  0.00  0.00    +0.065 A 
ATOM     25  C   UNL     1      -6.406   1.054   3.894  0.00  0.00    +0.027 A 
ATOM     26 BR   UNL     1      -7.705   1.216   2.530  0.00  0.00    -0.050 Br
ATOM     27  O   UNL     1      -5.361  -1.044   6.780  0.00  0.00    -0.453 OA
ATOM     28  C   UNL     1      -4.006  -0.885   7.240  0.00  0.00    +0.466 C 
ATOM     29  O   UNL     1      -3.706   0.493   6.952  0.00  0.00    -0.453 OA
ENDBRANCH   6  20
BRANCH  17  30
ATOM     30  C   UNL     1      -1.002   2.545   0.952  0.00  0.00    +0.318 C 
ATOM     31  O   UNL     1      -0.562   3.261   0.084  0.00  0.00    -0.250 OA
BRANCH  30  32
ATOM     32  O   UNL     1      -1.017   1.214   0.781  0.00  0.00    -0.467 OA
ATOM     33  C   UNL     1      -0.489   0.704  -0.472  0.00  0.00    +0.280 C 
ENDBRANCH  30  32
ENDBRANCH  17  30
TORSDOF 3
