REMARK  Name = ZINC33051755
REMARK  6 active torsions:
REMARK  status: ('A' for Active; 'I' for Inactive)
REMARK    1  A    between atoms: C_1  and  C_2
REMARK    2  A    between atoms: C_2  and  C_3
REMARK    3  A    between atoms: N_6  and  C_8
REMARK    4  A    between atoms: C_19  and  C_34
REMARK    5  A    between atoms: N_25  and  C_26
REMARK    6  A    between atoms: C_37  and  C_40
REMARK                            x       y       z     vdW  Elec       q    Type
REMARK                         _______ _______ _______ _____ _____    ______ ____
ROOT
ATOM      1  C   UNL     1      -4.611   6.239   0.183  0.00  0.00    +0.070 A 
ATOM      2  C   UNL     1      -5.004   5.088  -0.491  0.00  0.00    +0.036 A 
ATOM      3  C   UNL     1      -3.976   4.193  -0.409  0.00  0.00    +0.146 A 
ATOM      4  N   UNL     1      -2.995   4.746   0.327  0.00  0.00    -0.215 N 
ATOM      5  N   UNL     1      -3.413   6.040   0.679  0.00  0.00    -0.169 NA
ATOM      6  N   UNL     1      -4.044   2.969  -1.085  0.00  0.00    -0.303 N 
ATOM      7  C   UNL     1      -3.731   1.719  -0.673  0.00  0.00    +0.093 A 
ATOM      8  C   UNL     1      -4.069   0.859  -1.662  0.00  0.00    +0.020 A 
ATOM      9  C   UNL     1      -4.584   1.623  -2.732  0.00  0.00    +0.025 A 
ATOM     10  C   UNL     1      -4.525   2.914  -2.369  0.00  0.00    +0.050 A 
ATOM     11  C   UNL     1      -4.889   4.135  -3.163  0.00  0.00    +0.155 C 
ATOM     12  N   UNL     1      -6.133   4.763  -2.659  0.00  0.00    -0.268 N 
ATOM     13  C   UNL     1      -6.300   4.792  -1.187  0.00  0.00    +0.151 C 
ATOM     14  C   UNL     1      -7.058   5.279  -3.491  0.00  0.00    +0.308 C 
ATOM     15  O   UNL     1      -6.886   5.237  -4.694  0.00  0.00    -0.252 OA
ATOM     16  N   UNL     1      -8.176   5.843  -2.990  0.00  0.00    -0.267 N 
ATOM     17  H   UNL     1      -8.305   5.934  -1.902  0.00  0.00    +0.156 HD
ENDROOT
BRANCH  16  18
ATOM     18  C   UNL     1      -9.173   6.311  -3.856  0.00  0.00    +0.073 A 
ATOM     19  C   UNL     1      -8.844   6.712  -5.143  0.00  0.00    +0.064 A 
ATOM     20  C   UNL     1      -9.830   7.173  -5.996  0.00  0.00    +0.125 A 
ATOM     21  C   UNL     1     -11.145   7.236  -5.566  0.00  0.00    +0.041 A 
ATOM     22  C   UNL     1     -11.476   6.838  -4.284  0.00  0.00    +0.043 A 
ATOM     23  C   UNL     1     -10.495   6.370  -3.429  0.00  0.00    +0.145 A 
ATOM     24  F   UNL     1     -10.819   5.975  -2.178  0.00  0.00    -0.204 F 
ATOM     25  F   UNL     1      -9.511   7.563  -7.249  0.00  0.00    -0.205 F 
ENDBRANCH  16  18
BRANCH  11  26
ATOM     26  C   UNL     1      -3.763   5.133  -3.075  0.00  0.00    -0.021 A 
ATOM     27  C   UNL     1      -4.040   6.487  -3.057  0.00  0.00    +0.006 A 
ATOM     28  C   UNL     1      -3.007   7.402  -2.971  0.00  0.00    +0.004 A 
ATOM     29  C   UNL     1      -1.698   6.964  -2.914  0.00  0.00    -0.050 A 
ATOM     30  C   UNL     1      -1.421   5.609  -2.937  0.00  0.00    +0.004 A 
ATOM     31  C   UNL     1      -2.454   4.694  -3.018  0.00  0.00    +0.006 A 
ATOM     32  C   UNL     1      -0.572   7.961  -2.827  0.00  0.00    +0.044 C 
ENDBRANCH  11  26
BRANCH   4  33
ATOM     33  C   UNL     1      -1.782   4.140   0.683  0.00  0.00    +0.068 A 
ATOM     34  C   UNL     1      -1.254   4.333   1.953  0.00  0.00    +0.028 A 
ATOM     35  C   UNL     1      -0.056   3.740   2.298  0.00  0.00    +0.002 A 
ATOM     36  C   UNL     1       0.613   2.945   1.385  0.00  0.00    +0.000 A 
ATOM     37  C   UNL     1       0.086   2.746   0.122  0.00  0.00    +0.002 A 
ATOM     38  C   UNL     1      -1.109   3.342  -0.232  0.00  0.00    +0.028 A 
ENDBRANCH   4  33
BRANCH   1  40
ATOM     39  C   UNL     1      -6.285   7.412   1.588  0.00  0.00    +0.010 C 
ATOM     40  C   UNL     1      -5.426   7.499   0.325  0.00  0.00    +0.054 C 
ENDBRANCH   1  40
TORSDOF 4
