REMARK  Name = ZINC39567336
REMARK  15 active torsions:
REMARK  status: ('A' for Active; 'I' for Inactive)
REMARK    1  A    between atoms: C_1  and  C_2
REMARK    2  A    between atoms: C_2  and  C_4
REMARK    3  A    between atoms: C_2  and  N_28
REMARK    4  A    between atoms: C_7  and  S_16
REMARK    5  A    between atoms: N_8  and  C_9
REMARK    6  A    between atoms: S_16  and  C_17
REMARK    7  A    between atoms: C_17  and  C_18
REMARK    8  A    between atoms: N_20  and  C_21
REMARK    9  A    between atoms: C_21  and  C_22
REMARK   10  A    between atoms: C_21  and  C_23
REMARK   11  A    between atoms: C_21  and  C_25
REMARK   12  A    between atoms: C_25  and  C_26
REMARK   13  A    between atoms: C_25  and  C_27
REMARK   14  A    between atoms: N_28  and  C_29
REMARK   15  A    between atoms: N_28  and  C_30
REMARK                            x       y       z     vdW  Elec       q    Type
REMARK                         _______ _______ _______ _____ _____    ______ ____
ROOT
ATOM      1  C   UNL     1       0.707  -0.490  -1.238  0.00  0.00    +0.125 A 
ATOM      2  N   UNL     1       1.993  -0.478  -1.450  0.00  0.00    -0.135 NA
ATOM      3  N   UNL     1       2.255  -0.965  -2.610  0.00  0.00    -0.122 NA
ATOM      4  C   UNL     1       1.141  -1.319  -3.208  0.00  0.00    +0.197 A 
ATOM      5  N   UNL     1       0.117  -1.032  -2.349  0.00  0.00    -0.275 N 
ENDROOT
BRANCH   5   6
ATOM      6  C   UNL     1      -1.254  -1.245  -2.561  0.00  0.00    +0.050 A 
ATOM      7  C   UNL     1      -1.948  -2.146  -1.766  0.00  0.00    +0.028 A 
ATOM      8  C   UNL     1      -3.298  -2.354  -1.977  0.00  0.00    +0.022 A 
ATOM      9  C   UNL     1      -3.956  -1.665  -2.980  0.00  0.00    +0.041 A 
ATOM     10  C   UNL     1      -3.266  -0.766  -3.774  0.00  0.00    +0.022 A 
ATOM     11  C   UNL     1      -1.918  -0.551  -3.563  0.00  0.00    +0.028 A 
ATOM     12 CL   UNL     1      -5.652  -1.929  -3.243  0.00  0.00    -0.084 Cl
ENDBRANCH   5   6
BRANCH   1  14
ATOM     13  C   UNL     1      -0.019   1.526   0.010  0.00  0.00    -0.005 C 
ATOM     14  C   UNL     1       0.002  -0.004   0.002  0.00  0.00    -0.003 C 
BRANCH  14  15
ATOM     15  N   UNL     1       0.713  -0.491   1.192  0.00  0.00    +0.382 N 
ATOM     16  C   UNL     1       0.025  -0.017   2.401  0.00  0.00    -0.096 C 
ATOM     17  C   UNL     1       0.733  -1.960   1.184  0.00  0.00    -0.096 C 
ATOM     18  H   UNL     1       1.659  -0.141   1.185  0.00  0.00    -0.082 HD
ENDBRANCH  14  15
ENDBRANCH   1  14
BRANCH   4  19
ATOM     19  S   UNL     1       0.994  -2.034  -4.812  0.00  0.00    -0.076 S 
BRANCH  19  20
ATOM     20  C   UNL     1       2.707  -2.152  -5.399  0.00  0.00    +0.173 C 
BRANCH  20  21
ATOM     21  C   UNL     1       2.724  -2.756  -6.779  0.00  0.00    +0.224 C 
ATOM     22  O   UNL     1       1.684  -3.075  -7.315  0.00  0.00    -0.275 OA
ATOM     23  N   UNL     1       3.896  -2.941  -7.419  0.00  0.00    -0.297 N 
ATOM     24  H   UNL     1       4.728  -2.686  -6.990  0.00  0.00    +0.150 HD
BRANCH  23  25
ATOM     25  C   UNL     1       3.913  -3.528  -8.761  0.00  0.00    +0.121 C 
ATOM     26  C   UNL     1       3.107  -2.644  -9.715  0.00  0.00    +0.048 C 
BRANCH  25  27
ATOM     27  C   UNL     1       5.357  -3.628  -9.255  0.00  0.00    +0.020 C 
ATOM     28  C   UNL     1       6.132  -4.610  -8.374  0.00  0.00    +0.010 C 
ATOM     29  C   UNL     1       5.368  -4.124 -10.703  0.00  0.00    +0.010 C 
ENDBRANCH  25  27
BRANCH  25  30
ATOM     30  C   UNL     1       3.316  -4.873  -8.716  0.00  0.00    +0.088 C 
ATOM     31  N   UNL     1       2.855  -5.911  -8.681  0.00  0.00    -0.194 NA
ENDBRANCH  25  30
ENDBRANCH  23  25
ENDBRANCH  20  21
ENDBRANCH  19  20
ENDBRANCH   4  19
TORSDOF 9
