REMARK  Name = ZINC39506707
REMARK  4 active torsions:
REMARK  status: ('A' for Active; 'I' for Inactive)
REMARK    1  A    between atoms: C_4  and  O_7
REMARK    2  A    between atoms: O_7  and  S_8
REMARK    3  A    between atoms: S_8  and  C_11
REMARK    4  A    between atoms: C_18  and  O_23
REMARK                            x       y       z     vdW  Elec       q    Type
REMARK                         _______ _______ _______ _____ _____    ______ ____
ROOT
ATOM      1  C   UNL     1       3.125  -2.313   1.960  0.00  0.00    +0.173 C 
ATOM      2  C   UNL     1       3.316  -3.574   1.079  0.00  0.00    +0.031 C 
ATOM      3  C   UNL     1       2.940  -4.747   2.010  0.00  0.00    +0.025 C 
ATOM      4  C   UNL     1       3.139  -4.242   3.444  0.00  0.00    +0.037 C 
ATOM      5  C   UNL     1       3.620  -2.783   3.352  0.00  0.00    +0.053 C 
ATOM      6  C   UNL     1       1.814  -4.309   4.222  0.00  0.00    +0.056 C 
ATOM      7  C   UNL     1       1.957  -5.624   5.036  0.00  0.00    +0.131 C 
ATOM      8  C   UNL     1       3.472  -5.628   5.364  0.00  0.00    +0.129 C 
ATOM      9  N   UNL     1       4.122  -5.069   4.157  0.00  0.00    -0.233 NA
ATOM     10 BR   UNL     1       5.618  -4.079   4.608  0.00  0.00    +0.013 Br
ENDROOT
BRANCH   1  11
ATOM     11  S   UNL     1       4.140  -0.941   1.346  0.00  0.00    +0.124 S 
ATOM     12  O   UNL     1       5.471  -1.383   1.113  0.00  0.00    -0.136 OA
ATOM     13  O   UNL     1       3.889   0.232   2.108  0.00  0.00    -0.136 OA
BRANCH  11  14
ATOM     14  O   UNL     1       3.586  -0.632  -0.037  0.00  0.00    -0.346 OA
BRANCH  14  18
ATOM     15  C   UNL     1      -0.017   1.378   0.010  0.00  0.00    +0.000 A 
ATOM     16  C   UNL     1       1.170   2.088   0.002  0.00  0.00    +0.004 A 
ATOM     17  C   UNL     1       2.377   1.417  -0.013  0.00  0.00    +0.048 A 
ATOM     18  C   UNL     1       2.399   0.030  -0.021  0.00  0.00    +0.156 A 
ATOM     19  C   UNL     1       1.207  -0.680  -0.013  0.00  0.00    +0.048 A 
ATOM     20  C   UNL     1       0.002  -0.004   0.002  0.00  0.00    +0.004 A 
ENDBRANCH  14  18
ENDBRANCH  11  14
ENDBRANCH   1  11
BRANCH   7  21
ATOM     21  O   UNL     1       1.175  -5.574   6.230  0.00  0.00    -0.390 OA
ATOM     22  H   UNL     1       1.232  -6.373   6.771  0.00  0.00    +0.210 HD
ENDBRANCH   7  21
TORSDOF 4
