REMARK  Name = ZINC45357374
REMARK  16 active torsions:
REMARK  status: ('A' for Active; 'I' for Inactive)
REMARK    1  A    between atoms: C_1  and  C_2
REMARK    2  A    between atoms: C_9  and  C_20
REMARK    3  A    between atoms: C_10  and  N_11
REMARK    4  A    between atoms: N_11  and  C_12
REMARK    5  A    between atoms: C_12  and  C_13
REMARK    6  A    between atoms: C_12  and  C_14
REMARK    7  A    between atoms: C_12  and  C_15
REMARK    8  A    between atoms: C_15  and  C_16
REMARK    9  A    between atoms: C_16  and  C_17
REMARK   10  A    between atoms: C_16  and  C_18
REMARK   11  A    between atoms: C_16  and  C_19
REMARK   12  A    between atoms: C_25  and  O_26
REMARK   13  A    between atoms: O_26  and  C_27
REMARK   14  A    between atoms: C_27  and  C_29
REMARK   15  A    between atoms: C_30  and  C_31
REMARK   16  A    between atoms: C_34  and  N_37
REMARK                            x       y       z     vdW  Elec       q    Type
REMARK                         _______ _______ _______ _____ _____    ______ ____
ROOT
ATOM      1  C   UNL     1      -1.084   1.453  -3.750  0.00  0.00    +0.044 C 
ATOM      2  C   UNL     1      -1.175   0.064  -3.172  0.00  0.00    -0.046 A 
ATOM      3  C   UNL     1      -0.681  -1.025  -3.883  0.00  0.00    +0.021 A 
ATOM      4  C   UNL     1      -0.770  -2.287  -3.345  0.00  0.00    +0.094 A 
ATOM      5  N   UNL     1      -1.337  -2.480  -2.122  0.00  0.00    -0.289 N 
ATOM      6  C   UNL     1      -1.831  -1.429  -1.399  0.00  0.00    +0.117 A 
ATOM      7  C   UNL     1      -1.749  -0.140  -1.918  0.00  0.00    +0.048 A 
ATOM      8  N   UNL     1      -2.340  -1.868  -0.228  0.00  0.00    -0.338 N 
ATOM      9  C   UNL     1      -2.209  -3.169  -0.129  0.00  0.00    +0.090 A 
ATOM     10  C   UNL     1      -1.541  -3.628  -1.378  0.00  0.00    +0.129 A 
ATOM     11  H   UNL     1      -2.744  -1.300   0.447  0.00  0.00    +0.167 HD
ENDROOT
BRANCH   9  12
ATOM     12  C   UNL     1      -2.640  -4.012   0.997  0.00  0.00    +0.044 A 
ATOM     13  C   UNL     1      -4.002  -4.141   1.301  0.00  0.00    +0.014 A 
ATOM     14  C   UNL     1      -4.397  -4.931   2.356  0.00  0.00    +0.001 A 
ATOM     15  C   UNL     1      -3.453  -5.602   3.122  0.00  0.00    +0.004 A 
ATOM     16  C   UNL     1      -2.107  -5.485   2.834  0.00  0.00    +0.047 A 
ATOM     17  C   UNL     1      -1.688  -4.699   1.772  0.00  0.00    +0.141 A 
BRANCH  17  18
ATOM     18  O   UNL     1      -0.367  -4.589   1.486  0.00  0.00    -0.422 OA
BRANCH  18  19
ATOM     19  C   UNL     1       0.323  -3.580   2.058  0.00  0.00    +0.337 C 
ATOM     20  O   UNL     1      -0.218  -2.861   2.876  0.00  0.00    -0.245 OA
BRANCH  19  21
ATOM     21  C   UNL     1       1.721  -3.353   1.696  0.00  0.00    +0.092 C 
ATOM     22  C   UNL     1       2.411  -2.345   2.268  0.00  0.00    +0.015 C 
BRANCH  22  23
ATOM     23  C   UNL     1       3.818  -2.116   1.903  0.00  0.00    -0.025 A 
ATOM     24  C   UNL     1       4.442  -2.938   0.959  0.00  0.00    +0.010 A 
ATOM     25  C   UNL     1       5.761  -2.717   0.622  0.00  0.00    +0.033 A 
ATOM     26  C   UNL     1       6.468  -1.686   1.216  0.00  0.00    +0.126 A 
ATOM     27  C   UNL     1       5.857  -0.868   2.152  0.00  0.00    +0.033 A 
ATOM     28  C   UNL     1       4.537  -1.072   2.494  0.00  0.00    +0.010 A 
BRANCH  26  29
ATOM     29  N   UNL     1       7.883  -1.456   0.850  0.00  0.00    +0.056 N 
ATOM     30  O   UNL     1       8.467  -2.232  -0.040  0.00  0.00    -0.126 OA
ATOM     31  O   UNL     1       8.558  -0.475   1.413  0.00  0.00    -0.126 OA
ENDBRANCH  26  29
ENDBRANCH  22  23
ENDBRANCH  19  21
ENDBRANCH  18  19
ENDBRANCH  17  18
ENDBRANCH   9  12
BRANCH  10  32
ATOM     32  N   UNL     1      -1.211  -4.873  -1.708  0.00  0.00    -0.323 N 
ATOM     33  H   UNL     1      -1.494  -5.614  -1.149  0.00  0.00    +0.148 HD
BRANCH  32  34
ATOM     34  C   UNL     1      -0.421  -5.126  -2.915  0.00  0.00    +0.028 C 
ATOM     35  C   UNL     1      -1.265  -4.815  -4.152  0.00  0.00    +0.031 C 
ATOM     36  C   UNL     1       0.822  -4.234  -2.908  0.00  0.00    +0.031 C 
BRANCH  34  37
ATOM     37  C   UNL     1       0.006  -6.595  -2.946  0.00  0.00    +0.031 C 
BRANCH  37  38
ATOM     38  C   UNL     1       0.756  -6.936  -1.657  0.00  0.00    -0.036 C 
ATOM     39  C   UNL     1       0.082  -6.236  -0.475  0.00  0.00    +0.010 C 
ATOM     40  C   UNL     1       0.729  -8.449  -1.435  0.00  0.00    +0.010 C 
ATOM     41  C   UNL     1       2.206  -6.462  -1.770  0.00  0.00    +0.010 C 
ENDBRANCH  37  38
ENDBRANCH  34  37
ENDBRANCH  32  34
ENDBRANCH  10  32
TORSDOF 10
