REMARK  Name = ZINC39696273
REMARK  11 active torsions:
REMARK  status: ('A' for Active; 'I' for Inactive)
REMARK    1  A    between atoms: C_1  and  C_2
REMARK    2  A    between atoms: C_2  and  C_3
REMARK    3  A    between atoms: C_6  and  C_9
REMARK    4  A    between atoms: C_9  and  C_11
REMARK    5  A    between atoms: C_9  and  N_12
REMARK    6  A    between atoms: C_13  and  C_15
REMARK    7  A    between atoms: C_26  and  C_28
REMARK    8  A    between atoms: C_28  and  C_29
REMARK    9  A    between atoms: C_29  and  C_30
REMARK   10  A    between atoms: C_33  and  O_36
REMARK   11  A    between atoms: O_36  and  C_37
REMARK                            x       y       z     vdW  Elec       q    Type
REMARK                         _______ _______ _______ _____ _____    ______ ____
ROOT
ATOM      1  C   UNL     1      -8.330  -0.554  -1.977  0.00  0.00    +0.100 C 
ATOM      2  C   UNL     1      -8.096  -1.248  -3.338  0.00  0.00    +0.121 C 
ATOM      3  N   UNL     1      -9.217  -2.208  -3.466  0.00  0.00    -0.300 N 
ATOM      4  C   UNL     1     -10.390  -1.482  -2.922  0.00  0.00    +0.115 C 
ATOM      5  C   UNL     1      -9.836  -0.707  -1.709  0.00  0.00    -0.004 C 
ATOM      6  C   UNL     1     -10.497   0.665  -1.613  0.00  0.00    -0.010 C 
ATOM      7  C   UNL     1     -11.983   0.489  -1.288  0.00  0.00    -0.082 C 
ATOM      8  N   UNL     1     -12.127  -0.236  -0.020  0.00  0.00    +0.379 N 
ATOM      9  C   UNL     1     -11.571  -1.588  -0.150  0.00  0.00    -0.082 C 
ATOM     10  C   UNL     1     -10.068  -1.500  -0.427  0.00  0.00    -0.010 C 
ATOM     11  C   UNL     1      -9.180  -3.460  -3.964  0.00  0.00    +0.216 C 
ATOM     12  O   UNL     1     -10.192  -4.128  -4.002  0.00  0.00    -0.276 OA
ATOM     13  H   UNL     1     -11.633   0.260   0.707  0.00  0.00    -0.086 HD
ATOM     14  H   UNL     1     -13.104  -0.297   0.223  0.00  0.00    -0.086 HD
ENDROOT
BRANCH   1  16
ATOM     15  N   UNL     1      -7.119  -0.541   0.180  0.00  0.00    -0.308 N 
ATOM     16  C   UNL     1      -7.533  -1.239  -0.896  0.00  0.00    +0.219 C 
ATOM     17  O   UNL     1      -7.264  -2.417  -0.995  0.00  0.00    -0.275 OA
ATOM     18  H   UNL     1      -7.334   0.402   0.259  0.00  0.00    +0.149 HD
BRANCH  15  19
ATOM     19  C   UNL     1      -6.345  -1.206   1.231  0.00  0.00    +0.100 C 
ATOM     20  C   UNL     1      -4.864  -1.210   0.848  0.00  0.00    +0.033 C 
BRANCH  19  24
ATOM     21  C   UNL     1      -6.853   0.889   4.919  0.00  0.00    -0.048 A 
ATOM     22  C   UNL     1      -6.825  -0.493   4.907  0.00  0.00    +0.004 A 
ATOM     23  C   UNL     1      -6.661  -1.171   3.714  0.00  0.00    +0.006 A 
ATOM     24  C   UNL     1      -6.525  -0.467   2.532  0.00  0.00    -0.027 A 
ATOM     25  C   UNL     1      -6.553   0.915   2.544  0.00  0.00    +0.006 A 
ATOM     26  C   UNL     1      -6.721   1.593   3.736  0.00  0.00    +0.004 A 
BRANCH  21  28
ATOM     27  C   UNL     1      -8.523   1.846   6.482  0.00  0.00    +0.009 C 
ATOM     28  C   UNL     1      -7.032   1.628   6.220  0.00  0.00    +0.032 C 
ENDBRANCH  21  28
ENDBRANCH  19  24
ENDBRANCH  15  19
ENDBRANCH   1  16
BRANCH  11  29
ATOM     29  C   UNL     1      -7.882  -4.029  -4.475  0.00  0.00    +0.100 C 
BRANCH  29  30
ATOM     30  C   UNL     1      -8.114  -5.454  -4.981  0.00  0.00    +0.044 C 
BRANCH  30  31
ATOM     31  C   UNL     1      -6.815  -6.024  -5.492  0.00  0.00    -0.047 A 
ATOM     32  C   UNL     1      -6.459  -5.851  -6.817  0.00  0.00    +0.007 A 
ATOM     33  C   UNL     1      -5.270  -6.373  -7.287  0.00  0.00    +0.046 A 
ATOM     34  C   UNL     1      -4.431  -7.069  -6.428  0.00  0.00    +0.120 A 
ATOM     35  C   UNL     1      -4.790  -7.240  -5.099  0.00  0.00    +0.046 A 
ATOM     36  C   UNL     1      -5.979  -6.713  -4.633  0.00  0.00    +0.007 A 
BRANCH  34  37
ATOM     37  O   UNL     1      -3.261  -7.584  -6.889  0.00  0.00    -0.495 OA
ATOM     38  C   UNL     1      -2.448  -8.289  -5.949  0.00  0.00    +0.277 C 
ENDBRANCH  34  37
ENDBRANCH  30  31
ENDBRANCH  29  30
ENDBRANCH  11  29
TORSDOF 8
