REMARK  Name = ZINC13495802
REMARK  11 active torsions:
REMARK  status: ('A' for Active; 'I' for Inactive)
REMARK    1  A    between atoms: C_1  and  C_2
REMARK    2  A    between atoms: C_2  and  C_3
REMARK    3  A    between atoms: C_3  and  C_5
REMARK    4  A    between atoms: C_3  and  N_69
REMARK    5  A    between atoms: N_9  and  C_10
REMARK    6  A    between atoms: C_15  and  C_16
REMARK    7  A    between atoms: C_15  and  N_69
REMARK    8  A    between atoms: C_16  and  C_17
REMARK    9  A    between atoms: C_23  and  C_24
REMARK   10  A    between atoms: C_23  and  N_69
REMARK   11  A    between atoms: C_30  and  C_36
REMARK                            x       y       z     vdW  Elec       q    Type
REMARK                         _______ _______ _______ _____ _____    ______ ____
ROOT
ATOM      1  N   UNL     1       1.457   3.819   0.902  0.00  0.00    +0.389 N 
ATOM      2  H   UNL     1       1.651   3.366   1.803  0.00  0.00    -0.080 HD
ENDROOT
BRANCH   1   3
ATOM      3  C   UNL     1       2.090   3.033  -0.177  0.00  0.00    +0.003 C 
BRANCH   3   4
ATOM      4  C   UNL     1       2.132   1.587   0.244  0.00  0.00    +0.138 A 
ATOM      5  N   UNL     1       1.440   1.032   1.209  0.00  0.00    -0.115 NA
ATOM      6  N   UNL     1       1.754  -0.217   1.257  0.00  0.00    -0.023 NA
ATOM      7  N   UNL     1       2.628  -0.473   0.347  0.00  0.00    -0.044 NA
ATOM      8  N   UNL     1       2.887   0.613  -0.299  0.00  0.00    -0.228 N 
BRANCH   8   9
ATOM      9  C   UNL     1       3.826   0.760  -1.414  0.00  0.00    +0.111 C 
ATOM     10  C   UNL     1       3.436  -0.193  -2.562  0.00  0.00    +0.027 C 
ATOM     11  C   UNL     1       4.793  -0.677  -3.132  0.00  0.00    +0.002 C 
ATOM     12  C   UNL     1       5.663  -0.831  -1.859  0.00  0.00    +0.002 C 
ATOM     13  C   UNL     1       5.242   0.355  -0.967  0.00  0.00    +0.027 C 
ENDBRANCH   8   9
ENDBRANCH   3   4
BRANCH   3  15
ATOM     14  C   UNL     1       1.355   4.609  -1.972  0.00  0.00    +0.002 C 
ATOM     15  C   UNL     1       1.287   3.164  -1.473  0.00  0.00    -0.011 C 
ENDBRANCH   3  15
ENDBRANCH   1   3
BRANCH   1  16
ATOM     16  C   UNL     1      -0.006   3.872   0.697  0.00  0.00    -0.073 C 
BRANCH  16  17
ATOM     17  C   UNL     1      -0.600   2.504   1.040  0.00  0.00    +0.016 C 
BRANCH  17  18
ATOM     18  C   UNL     1      -2.104   2.581   0.982  0.00  0.00    -0.049 A 
ATOM     19  C   UNL     1      -2.823   2.913   2.115  0.00  0.00    +0.003 A 
ATOM     20  C   UNL     1      -4.202   2.989   2.060  0.00  0.00    +0.000 A 
ATOM     21  C   UNL     1      -4.863   2.721   0.876  0.00  0.00    +0.000 A 
ATOM     22  C   UNL     1      -4.144   2.383  -0.255  0.00  0.00    +0.000 A 
ATOM     23  C   UNL     1      -2.765   2.313  -0.202  0.00  0.00    +0.003 A 
ENDBRANCH  17  18
ENDBRANCH  16  17
ENDBRANCH   1  16
BRANCH   1  24
ATOM     24  C   UNL     1       2.014   5.188   0.924  0.00  0.00    -0.037 C 
BRANCH  24  25
ATOM     25  C   UNL     1       3.367   5.148   1.585  0.00  0.00    +0.001 A 
ATOM     26  C   UNL     1       4.488   5.069   0.825  0.00  0.00    +0.017 A 
ATOM     27  C   UNL     1       5.788   5.037   1.498  0.00  0.00    -0.001 A 
ATOM     28  C   UNL     1       6.979   4.962   0.768  0.00  0.00    +0.010 A 
ATOM     29  C   UNL     1       8.175   4.929   1.426  0.00  0.00    +0.001 A 
ATOM     30  C   UNL     1       8.220   4.968   2.813  0.00  0.00    +0.005 A 
ATOM     31  C   UNL     1       7.060   5.043   3.553  0.00  0.00    -0.026 A 
ATOM     32  C   UNL     1       5.829   5.078   2.904  0.00  0.00    +0.052 A 
ATOM     33  N   UNL     1       4.653   5.152   3.619  0.00  0.00    -0.322 N 
ATOM     34  H   UNL     1       4.683   5.180   4.588  0.00  0.00    +0.169 HD
ATOM     35  C   UNL     1       3.464   5.187   2.992  0.00  0.00    +0.251 A 
ATOM     36  O   UNL     1       2.444   5.253   3.656  0.00  0.00    -0.268 OA
ATOM     37  C   UNL     1       7.123   5.085   5.058  0.00  0.00    +0.046 C 
ENDBRANCH  24  25
ENDBRANCH   1  24
TORSDOF 9
