REMARK  Name = ZINC64502376
REMARK  7 active torsions:
REMARK  status: ('A' for Active; 'I' for Inactive)
REMARK    1  A    between atoms: C_1  and  C_2
REMARK    2  A    between atoms: C_8  and  C_11
REMARK    3  A    between atoms: C_11  and  C_12
REMARK    4  A    between atoms: C_12  and  N_13
REMARK    5  A    between atoms: C_14  and  C_16
REMARK    6  A    between atoms: N_21  and  C_23
REMARK    7  A    between atoms: N_27  and  C_35
REMARK                            x       y       z     vdW  Elec       q    Type
REMARK                         _______ _______ _______ _____ _____    ______ ____
ROOT
ATOM      1  C   UNL     1      -2.534  -2.338   7.783  0.00  0.00    +0.058 C 
ATOM      2  C   UNL     1      -1.944  -0.952   8.058  0.00  0.00    +0.009 C 
ATOM      3  C   UNL     1      -2.017  -0.665   9.561  0.00  0.00    -0.018 C 
ATOM      4  C   UNL     1      -3.471  -0.778  10.025  0.00  0.00    -0.075 C 
ATOM      5  N   UNL     1      -3.970  -2.133   9.759  0.00  0.00    +0.398 N 
ATOM      6  C   UNL     1      -3.969  -2.390   8.314  0.00  0.00    -0.063 C 
ATOM      7  H   UNL     1      -3.375  -2.806  10.219  0.00  0.00    -0.078 HD
ENDROOT
BRANCH   5   8
ATOM      8  C   UNL     1      -5.339  -2.260  10.277  0.00  0.00    +0.105 C 
ATOM      9  C   UNL     1      -5.341  -2.010  11.763  0.00  0.00    +0.223 C 
ATOM     10  O   UNL     1      -5.488  -0.882  12.181  0.00  0.00    -0.275 OA
ATOM     11  N   UNL     1      -5.181  -3.027  12.632  0.00  0.00    -0.273 N 
ATOM     12  C   UNL     1      -5.060  -4.345  12.176  0.00  0.00    +0.057 A 
ATOM     13  C   UNL     1      -4.609  -5.348  13.019  0.00  0.00    +0.025 A 
ATOM     14  C   UNL     1      -4.501  -6.644  12.550  0.00  0.00    +0.002 A 
ATOM     15  C   UNL     1      -4.841  -6.946  11.244  0.00  0.00    +0.002 A 
ATOM     16  C   UNL     1      -5.290  -5.950  10.394  0.00  0.00    +0.025 A 
ATOM     17  C   UNL     1      -5.398  -4.651  10.856  0.00  0.00    +0.048 A 
ATOM     18  N   UNL     1      -5.840  -3.617  10.015  0.00  0.00    -0.348 N 
ATOM     19  C   UNL     1      -5.133  -2.750  14.070  0.00  0.00    +0.138 C 
ATOM     20  H   UNL     1      -6.456  -3.792   9.287  0.00  0.00    +0.145 HD
ENDBRANCH   5   8
BRANCH   1  22
ATOM     21  N   UNL     1      -1.377  -2.600   5.613  0.00  0.00    -0.315 N 
ATOM     22  C   UNL     1      -2.537  -2.599   6.299  0.00  0.00    +0.214 C 
ATOM     23  O   UNL     1      -3.583  -2.808   5.722  0.00  0.00    -0.276 OA
ATOM     24  H   UNL     1      -0.540  -2.433   6.075  0.00  0.00    +0.149 HD
BRANCH  21  25
ATOM     25  C   UNL     1      -1.379  -2.854   4.170  0.00  0.00    +0.108 C 
BRANCH  25  26
ATOM     26  C   UNL     1       0.055  -2.799   3.641  0.00  0.00    +0.052 C 
BRANCH  26  34
ATOM     27  C   UNL     1      -0.018   1.503   0.010  0.00  0.00    +0.044 C 
ATOM     28  C   UNL     1       0.002  -0.004   0.002  0.00  0.00    -0.050 A 
ATOM     29  C   UNL     1       0.005  -0.680  -1.226  0.00  0.00    +0.005 A 
ATOM     30  C   UNL     1       0.023  -2.026  -1.317  0.00  0.00    +0.026 A 
ATOM     31  C   UNL     1       0.039  -2.826  -0.141  0.00  0.00    +0.043 A 
ATOM     32  N   UNL     1       0.057  -4.126   0.030  0.00  0.00    -0.380 N 
ATOM     33  C   UNL     1       0.067  -4.408   1.470  0.00  0.00    +0.144 C 
ATOM     34  C   UNL     1       0.052  -3.060   2.156  0.00  0.00    -0.040 C 
ATOM     35  C   UNL     1       0.036  -2.137   1.168  0.00  0.00    -0.001 A 
ATOM     36  C   UNL     1       0.022  -0.669   1.180  0.00  0.00    +0.013 A 
ATOM     37  H   UNL     1       0.062  -4.790  -0.677  0.00  0.00    +0.160 HD
ENDBRANCH  26  34
ENDBRANCH  25  26
ENDBRANCH  21  25
ENDBRANCH   1  22
TORSDOF 5
