REMARK  Name = ZINC63581951
REMARK  9 active torsions:
REMARK  status: ('A' for Active; 'I' for Inactive)
REMARK    1  A    between atoms: C_1  and  C_2
REMARK    2  A    between atoms: C_2  and  O_3
REMARK    3  A    between atoms: O_3  and  C_4
REMARK    4  A    between atoms: C_6  and  C_19
REMARK    5  A    between atoms: C_9  and  O_10
REMARK    6  A    between atoms: O_10  and  C_11
REMARK    7  A    between atoms: C_11  and  C_12
REMARK    8  A    between atoms: C_26  and  O_31
REMARK    9  A    between atoms: O_31  and  C_32
REMARK                            x       y       z     vdW  Elec       q    Type
REMARK                         _______ _______ _______ _____ _____    ______ ____
ROOT
ATOM      1  C   UNL     1      -1.498  -1.849   0.010  0.00  0.00    +0.162 A 
ATOM      2  C   UNL     1      -0.389  -2.680   0.001  0.00  0.00    +0.054 A 
ATOM      3  C   UNL     1      -0.553  -4.052  -0.008  0.00  0.00    -0.024 A 
ATOM      4  C   UNL     1      -1.823  -4.600  -0.008  0.00  0.00    +0.009 A 
ATOM      5  C   UNL     1      -2.934  -3.777   0.001  0.00  0.00    +0.050 A 
ATOM      6  C   UNL     1      -2.776  -2.400   0.016  0.00  0.00    +0.162 A 
ENDROOT
BRANCH   3   7
ATOM      7  C   UNL     1       0.654  -4.954  -0.018  0.00  0.00    +0.111 C 
ATOM      8  C   UNL     1       0.553  -5.937  -1.187  0.00  0.00    +0.128 C 
ATOM      9  C   UNL     1      -0.635  -6.842  -0.881  0.00  0.00    -0.035 C 
ATOM     10  C   UNL     1      -1.433  -6.784  -1.938  0.00  0.00    +0.003 A 
ATOM     11  C   UNL     1      -2.677  -7.493  -2.273  0.00  0.00    +0.055 A 
ATOM     12  C   UNL     1      -3.260  -7.176  -3.462  0.00  0.00    +0.121 A 
ATOM     13  C   UNL     1      -2.745  -6.230  -4.360  0.00  0.00    +0.047 A 
ATOM     14  C   UNL     1      -1.604  -5.524  -4.155  0.00  0.00    +0.029 A 
ATOM     15  C   UNL     1      -0.879  -5.783  -2.903  0.00  0.00    +0.043 A 
ATOM     16  N   UNL     1       0.251  -5.275  -2.455  0.00  0.00    -0.376 N 
ATOM     17  C   UNL     1      -0.786  -7.527   0.456  0.00  0.00    +0.048 C 
ATOM     18  C   UNL     1      -0.538  -6.445   1.523  0.00  0.00    +0.086 C 
ATOM     19  N   UNL     1       0.707  -5.725   1.234  0.00  0.00    -0.307 NA
ATOM     20  H   UNL     1       1.497  -6.354   1.238  0.00  0.00    +0.123 HD
ATOM     21  H   UNL     1       0.787  -4.586  -2.877  0.00  0.00    +0.160 HD
BRANCH  12  22
ATOM     22  O   UNL     1      -4.411  -7.816  -3.799  0.00  0.00    -0.495 OA
ATOM     23  C   UNL     1      -5.004  -7.467  -5.051  0.00  0.00    +0.277 C 
ENDBRANCH  12  22
ENDBRANCH   3   7
BRANCH   1  24
ATOM     24  O   UNL     1      -1.339  -0.499   0.019  0.00  0.00    -0.489 OA
BRANCH  24  26
ATOM     25  C   UNL     1      -0.019   1.526   0.024  0.00  0.00    +0.048 C 
ATOM     26  C   UNL     1       0.002  -0.004   0.012  0.00  0.00    +0.226 C 
ENDBRANCH  24  26
ENDBRANCH   1  24
BRANCH   6  27
ATOM     27  O   UNL     1      -3.868  -1.589   0.030  0.00  0.00    -0.484 OA
BRANCH  27  28
ATOM     28  C   UNL     1      -5.148  -2.225   0.036  0.00  0.00    +0.266 C 
BRANCH  28  29
ATOM     29  C   UNL     1      -6.229  -1.175   0.052  0.00  0.00    +0.008 A 
ATOM     30  C   UNL     1      -5.892   0.165   0.054  0.00  0.00    +0.008 A 
ATOM     31  C   UNL     1      -6.884   1.128   0.069  0.00  0.00    +0.000 A 
ATOM     32  C   UNL     1      -8.214   0.750   0.082  0.00  0.00    +0.001 A 
ATOM     33  C   UNL     1      -8.553  -0.589   0.080  0.00  0.00    +0.020 A 
ATOM     34  C   UNL     1      -7.560  -1.553   0.060  0.00  0.00    +0.047 A 
ATOM     35 CL   UNL     1      -7.985  -3.237   0.051  0.00  0.00    -0.083 Cl
ENDBRANCH  28  29
ENDBRANCH  27  28
ENDBRANCH   6  27
TORSDOF 7
