REMARK  Name = ZINC06551590
REMARK  6 active torsions:
REMARK  status: ('A' for Active; 'I' for Inactive)
REMARK    1  A    between atoms: C_3  and  C_6
REMARK    2  A    between atoms: C_6  and  N_7
REMARK    3  A    between atoms: C_8  and  C_12
REMARK    4  A    between atoms: C_12  and  N_13
REMARK    5  A    between atoms: C_21  and  N_23
REMARK    6  A    between atoms: N_26  and  C_27
REMARK                            x       y       z     vdW  Elec       q    Type
REMARK                         _______ _______ _______ _____ _____    ______ ____
ROOT
ATOM      1  N   UNL     1       2.931   3.618   2.046  0.00  0.00    +0.388 N 
ATOM      2  C   UNL     1       2.784   3.752   3.520  0.00  0.00    -0.066 C 
ATOM      3  C   UNL     1       3.550   5.050   3.862  0.00  0.00    -0.017 C 
ATOM      4  C   UNL     1       3.521   5.880   2.562  0.00  0.00    -0.017 C 
ATOM      5  C   UNL     1       2.740   5.008   1.552  0.00  0.00    -0.066 C 
ATOM      6  C   UNL     1       1.247   5.342   1.698  0.00  0.00    +0.007 C 
ATOM      7  C   UNL     1       0.879   5.330   3.184  0.00  0.00    +0.071 C 
ATOM      8  C   UNL     1       1.291   3.979   3.810  0.00  0.00    +0.007 C 
ATOM      9  H   UNL     1       2.222   3.007   1.670  0.00  0.00    -0.080 HD
ENDROOT
BRANCH   7  10
ATOM     10  N   UNL     1      -0.568   5.508   3.329  0.00  0.00    -0.297 N 
ATOM     11  C   UNL     1      -1.073   6.024   4.467  0.00  0.00    +0.300 C 
ATOM     12  O   UNL     1      -0.327   6.343   5.373  0.00  0.00    -0.253 OA
ATOM     13  N   UNL     1      -2.404   6.188   4.601  0.00  0.00    -0.294 N 
ATOM     14  H   UNL     1      -1.163   5.253   2.606  0.00  0.00    +0.151 HD
ATOM     15  H   UNL     1      -2.998   5.934   3.878  0.00  0.00    +0.151 HD
BRANCH  13  16
ATOM     16  C   UNL     1      -2.952   6.750   5.838  0.00  0.00    +0.037 C 
ATOM     17  C   UNL     1      -2.384   8.153   6.056  0.00  0.00    +0.029 C 
ATOM     18  C   UNL     1      -2.957   8.740   7.348  0.00  0.00    -0.008 C 
ATOM     19  C   UNL     1      -4.481   8.818   7.241  0.00  0.00    +0.007 C 
ATOM     20  C   UNL     1      -5.049   7.415   7.022  0.00  0.00    -0.008 C 
ATOM     21  C   UNL     1      -4.476   6.828   5.730  0.00  0.00    +0.029 C 
ATOM     22  C   UNL     1      -4.667   6.519   8.202  0.00  0.00    +0.007 C 
ATOM     23  C   UNL     1      -3.143   6.441   8.310  0.00  0.00    -0.008 C 
ATOM     24  C   UNL     1      -2.574   7.845   8.528  0.00  0.00    +0.007 C 
ATOM     25  C   UNL     1      -2.570   5.854   7.018  0.00  0.00    +0.029 C 
ENDBRANCH  13  16
ENDBRANCH   7  10
BRANCH   1  26
ATOM     26  C   UNL     1       4.272   3.126   1.703  0.00  0.00    +0.001 C 
BRANCH  26  28
ATOM     27  N   UNL     1       4.101   0.607   1.347  0.00  0.00    -0.224 N 
ATOM     28  C   UNL     1       4.394   1.679   2.105  0.00  0.00    +0.136 A 
ATOM     29  N   UNL     1       4.809   1.220   3.261  0.00  0.00    -0.115 NA
ATOM     30  N   UNL     1       4.771  -0.067   3.215  0.00  0.00    -0.023 NA
ATOM     31  N   UNL     1       4.339  -0.441   2.062  0.00  0.00    -0.044 NA
BRANCH  27  32
ATOM     32  C   UNL     1       3.599   0.625  -0.029  0.00  0.00    +0.221 C 
BRANCH  32  35
ATOM     33  C   UNL     1      -0.016   1.341   0.009  0.00  0.00    +0.041 A 
ATOM     34  C   UNL     1       1.331   1.769  -0.001  0.00  0.00    +0.046 A 
ATOM     35  C   UNL     1       2.092   0.660  -0.014  0.00  0.00    +0.126 A 
ATOM     36  O   UNL     1       1.282  -0.411  -0.012  0.00  0.00    -0.466 OA
ATOM     37  C   UNL     1       0.002  -0.004   0.002  0.00  0.00    +0.195 A 
ENDBRANCH  32  35
ENDBRANCH  27  32
ENDBRANCH  26  28
ENDBRANCH   1  26
TORSDOF 6
