REMARK  Name = ZINC36501908
REMARK  19 active torsions:
REMARK  status: ('A' for Active; 'I' for Inactive)
REMARK    1  A    between atoms: C_1  and  C_2
REMARK    2  A    between atoms: C_2  and  C_4
REMARK    3  A    between atoms: C_2  and  C_35
REMARK    4  A    between atoms: C_4  and  C_5
REMARK    5  A    between atoms: N_7  and  C_8
REMARK    6  A    between atoms: N_7  and  C_14
REMARK    7  A    between atoms: C_8  and  C_9
REMARK    8  A    between atoms: C_14  and  C_16
REMARK    9  A    between atoms: C_14  and  C_24
REMARK   10  A    between atoms: C_19  and  O_22
REMARK   11  A    between atoms: O_22  and  C_23
REMARK   12  A    between atoms: N_26  and  C_27
REMARK   13  A    between atoms: C_27  and  C_28
REMARK   14  A    between atoms: C_27  and  C_29
REMARK   15  A    between atoms: C_27  and  C_30
REMARK   16  A    between atoms: C_30  and  C_31
REMARK   17  A    between atoms: C_31  and  C_32
REMARK   18  A    between atoms: C_31  and  C_33
REMARK   19  A    between atoms: C_31  and  C_34
REMARK                            x       y       z     vdW  Elec       q    Type
REMARK                         _______ _______ _______ _____ _____    ______ ____
ROOT
ATOM      1  C   UNL     1       1.341   0.317  -5.115  0.00  0.00    +0.193 C 
ENDROOT
BRANCH   1   2
ATOM      2  C   UNL     1       1.718  -0.870  -5.964  0.00  0.00    -0.018 A 
ATOM      3  C   UNL     1       2.894  -0.852  -6.691  0.00  0.00    +0.009 A 
ATOM      4  C   UNL     1       3.242  -1.938  -7.470  0.00  0.00    +0.046 A 
ATOM      5  C   UNL     1       2.411  -3.048  -7.522  0.00  0.00    +0.120 A 
ATOM      6  C   UNL     1       1.232  -3.063  -6.791  0.00  0.00    +0.046 A 
ATOM      7  C   UNL     1       0.891  -1.976  -6.010  0.00  0.00    +0.009 A 
BRANCH   5   8
ATOM      8  O   UNL     1       2.751  -4.117  -8.288  0.00  0.00    -0.495 OA
ATOM      9  C   UNL     1       1.848  -5.225  -8.294  0.00  0.00    +0.277 C 
ENDBRANCH   5   8
ENDBRANCH   1   2
BRANCH   1  10
ATOM     10  C   UNL     1       0.853   1.434  -6.002  0.00  0.00    +0.239 C 
ATOM     11  O   UNL     1       1.559   2.398  -6.207  0.00  0.00    -0.273 OA
ATOM     12  N   UNL     1      -0.369   1.361  -6.566  0.00  0.00    -0.308 N 
ATOM     13  H   UNL     1      -0.934   0.590  -6.402  0.00  0.00    +0.149 HD
BRANCH  12  14
ATOM     14  C   UNL     1      -0.843   2.447  -7.428  0.00  0.00    +0.030 C 
ATOM     15  C   UNL     1      -1.010   3.721  -6.598  0.00  0.00    +0.031 C 
ATOM     16  C   UNL     1       0.175   2.695  -8.543  0.00  0.00    +0.031 C 
BRANCH  14  17
ATOM     17  C   UNL     1      -2.189   2.059  -8.044  0.00  0.00    +0.031 C 
BRANCH  17  18
ATOM     18  C   UNL     1      -2.172   0.574  -8.413  0.00  0.00    -0.036 C 
ATOM     19  C   UNL     1      -2.653  -0.254  -7.219  0.00  0.00    +0.010 C 
ATOM     20  C   UNL     1      -3.099   0.334  -9.606  0.00  0.00    +0.010 C 
ATOM     21  C   UNL     1      -0.747   0.157  -8.782  0.00  0.00    +0.010 C 
ENDBRANCH  17  18
ENDBRANCH  14  17
ENDBRANCH  12  14
ENDBRANCH   1  10
BRANCH   1  24
ATOM     22  C   UNL     1       3.194  -0.101  -3.590  0.00  0.00    +0.217 C 
ATOM     23  O   UNL     1       2.840  -1.259  -3.523  0.00  0.00    -0.276 OA
ATOM     24  N   UNL     1       2.511   0.769  -4.359  0.00  0.00    -0.279 N 
BRANCH  22  25
ATOM     25  C   UNL     1       4.399   0.364  -2.813  0.00  0.00    +0.104 C 
BRANCH  25  27
ATOM     26  C   UNL     1       3.977  -1.275  -0.975  0.00  0.00    +0.013 C 
ATOM     27  C   UNL     1       4.985  -0.812  -2.029  0.00  0.00    +0.025 C 
BRANCH  27  28
ATOM     28  C   UNL     1       6.258  -0.378  -1.349  0.00  0.00    -0.044 A 
ATOM     29  C   UNL     1       6.234   0.653  -0.428  0.00  0.00    +0.004 A 
ATOM     30  C   UNL     1       7.402   1.051   0.194  0.00  0.00    +0.000 A 
ATOM     31  C   UNL     1       8.594   0.418  -0.103  0.00  0.00    +0.000 A 
ATOM     32  C   UNL     1       8.618  -0.613  -1.023  0.00  0.00    +0.000 A 
ATOM     33  C   UNL     1       7.450  -1.014  -1.643  0.00  0.00    +0.004 A 
ENDBRANCH  27  28
ENDBRANCH  25  27
ENDBRANCH  22  25
BRANCH  24  34
ATOM     34  C   UNL     1       2.940   2.168  -4.440  0.00  0.00    +0.183 C 
BRANCH  34  35
ATOM     35  C   UNL     1       4.005   2.307  -5.497  0.00  0.00    +0.122 A 
ATOM     36  C   UNL     1       3.809   2.718  -6.762  0.00  0.00    +0.046 A 
ATOM     37  C   UNL     1       5.072   2.699  -7.399  0.00  0.00    +0.041 A 
ATOM     38  C   UNL     1       5.963   2.277  -6.485  0.00  0.00    +0.195 A 
ATOM     39  O   UNL     1       5.313   2.046  -5.333  0.00  0.00    -0.466 OA
ENDBRANCH  34  35
ENDBRANCH  24  34
ENDBRANCH   1  24
TORSDOF 12
