REMARK  Name = ZINC04142537
REMARK  14 active torsions:
REMARK  status: ('A' for Active; 'I' for Inactive)
REMARK    1  A    between atoms: C_1  and  C_2
REMARK    2  A    between atoms: C_2  and  C_3
REMARK    3  A    between atoms: C_2  and  O_4
REMARK    4  A    between atoms: O_4  and  C_5
REMARK    5  A    between atoms: C_5  and  C_7
REMARK    6  A    between atoms: C_9  and  C_25
REMARK    7  A    between atoms: C_11  and  C_19
REMARK    8  A    between atoms: C_13  and  C_17
REMARK    9  A    between atoms: C_13  and  O_18
REMARK   10  A    between atoms: C_19  and  O_21
REMARK   11  A    between atoms: O_21  and  C_22
REMARK   12  A    between atoms: C_22  and  C_23
REMARK   13  A    between atoms: C_22  and  C_24
REMARK   14  A    between atoms: C_28  and  N_31
REMARK                            x       y       z     vdW  Elec       q    Type
REMARK                         _______ _______ _______ _____ _____    ______ ____
ROOT
ATOM      1  C   UNL     1      -2.537  -2.431  -0.489  0.00  0.00    +0.172 C 
ATOM      2  C   UNL     1      -2.947  -3.545  -1.459  0.00  0.00    +0.056 C 
ATOM      3  C   UNL     1      -2.394  -4.881  -0.961  0.00  0.00    +0.138 C 
ATOM      4  C   UNL     1      -3.023  -5.231   0.389  0.00  0.00    +0.083 C 
ATOM      5  C   UNL     1      -2.616  -4.181   1.428  0.00  0.00    +0.110 C 
ATOM      6  C   UNL     1      -2.991  -2.809   0.903  0.00  0.00    +0.150 C 
ATOM      7  O   UNL     1      -3.636  -2.039   1.574  0.00  0.00    -0.296 OA
ATOM      8  C   UNL     1      -4.547  -5.250   0.253  0.00  0.00    +0.042 C 
ENDROOT
BRANCH   2   9
ATOM      9  C   UNL     1      -2.391  -3.250  -2.828  0.00  0.00    -0.042 A 
ATOM     10  C   UNL     1      -1.053  -3.476  -3.094  0.00  0.00    +0.006 A 
ATOM     11  C   UNL     1      -0.543  -3.205  -4.350  0.00  0.00    +0.033 A 
ATOM     12  C   UNL     1      -1.370  -2.708  -5.340  0.00  0.00    +0.126 A 
ATOM     13  C   UNL     1      -2.708  -2.483  -5.074  0.00  0.00    +0.033 A 
ATOM     14  C   UNL     1      -3.219  -2.758  -3.819  0.00  0.00    +0.006 A 
BRANCH  12  15
ATOM     15  N   UNL     1      -0.824  -2.417  -6.684  0.00  0.00    +0.056 N 
ATOM     16  O   UNL     1       0.346  -2.614  -6.917  0.00  0.00    -0.126 OA
ATOM     17  O   UNL     1      -1.547  -1.983  -7.550  0.00  0.00    -0.126 OA
ENDBRANCH  12  15
ENDBRANCH   2   9
BRANCH   1  18
ATOM     18  C   UNL     1      -1.039  -2.271  -0.507  0.00  0.00    +0.318 C 
ATOM     19  O   UNL     1      -0.344  -3.017   0.141  0.00  0.00    -0.250 OA
BRANCH  18  20
ATOM     20  O   UNL     1      -0.476  -1.300  -1.243  0.00  0.00    -0.461 OA
BRANCH  20  22
ATOM     21  C   UNL     1       1.452  -0.649  -2.546  0.00  0.00    +0.052 C 
ATOM     22  C   UNL     1       0.949  -1.206  -1.213  0.00  0.00    +0.170 C 
ATOM     23  C   UNL     1       1.375  -0.273  -0.078  0.00  0.00    +0.052 C 
ENDBRANCH  20  22
ENDBRANCH  18  20
ENDBRANCH   1  18
BRANCH   4  24
ATOM     24  O   UNL     1      -2.565  -6.519   0.808  0.00  0.00    -0.388 OA
ATOM     25  H   UNL     1      -2.924  -6.806   1.659  0.00  0.00    +0.210 HD
ENDBRANCH   4  24
BRANCH   3  26
ATOM     26  C   UNL     1      -2.721  -5.962  -1.959  0.00  0.00    +0.314 C 
ATOM     27  O   UNL     1      -3.333  -5.690  -2.965  0.00  0.00    -0.250 OA
BRANCH  26  28
ATOM     28  O   UNL     1      -2.332  -7.226  -1.731  0.00  0.00    -0.462 OA
BRANCH  28  29
ATOM     29  C   UNL     1      -2.676  -8.199  -2.719  0.00  0.00    +0.170 C 
ATOM     30  C   UNL     1      -1.618  -9.304  -2.736  0.00  0.00    +0.052 C 
ATOM     31  C   UNL     1      -4.041  -8.805  -2.386  0.00  0.00    +0.052 C 
ENDBRANCH  28  29
ENDBRANCH  26  28
ENDBRANCH   3  26
TORSDOF 9
