REMARK  Name = ZINC16024811
REMARK  7 active torsions:
REMARK  status: ('A' for Active; 'I' for Inactive)
REMARK    1  A    between atoms: C_1  and  C_2
REMARK    2  A    between atoms: C_2  and  C_3
REMARK    3  A    between atoms: C_3  and  C_4
REMARK    4  A    between atoms: C_4  and  N_5
REMARK    5  A    between atoms: C_10  and  C_28
REMARK    6  A    between atoms: C_28  and  C_29
REMARK    7  A    between atoms: C_32  and  O_35
REMARK                            x       y       z     vdW  Elec       q    Type
REMARK                         _______ _______ _______ _____ _____    ______ ____
ROOT
ATOM      1  N   UNL     1       1.471  -2.526   2.420  0.00  0.00    -0.242 N 
ATOM      2  C   UNL     1       2.791  -2.744   2.436  0.00  0.00    +0.227 C 
ATOM      3  O   UNL     1       3.541  -2.570   1.499  0.00  0.00    -0.275 OA
ATOM      4  C   UNL     1       3.203  -3.240   3.804  0.00  0.00    +0.107 C 
ATOM      5  C   UNL     1       3.643  -4.716   3.695  0.00  0.00    +0.072 C 
ATOM      6  N   UNL     1       2.968  -5.399   4.830  0.00  0.00    -0.295 NA
ATOM      7  C   UNL     1       1.637  -4.768   4.894  0.00  0.00    +0.136 C 
ATOM      8  C   UNL     1       1.863  -3.265   4.593  0.00  0.00    +0.122 C 
ATOM      9  C   UNL     1       0.852  -2.782   3.578  0.00  0.00    +0.228 C 
ATOM     10  O   UNL     1      -0.336  -2.650   3.781  0.00  0.00    -0.275 OA
ATOM     11  C   UNL     1       0.998  -4.965   6.239  0.00  0.00    +0.005 A 
ATOM     12  C   UNL     1       1.365  -4.622   7.521  0.00  0.00    +0.027 A 
ATOM     13  C   UNL     1       0.544  -4.950   8.587  0.00  0.00    +0.041 A 
ATOM     14  C   UNL     1      -0.645  -5.621   8.359  0.00  0.00    +0.022 A 
ATOM     15  C   UNL     1      -1.015  -5.965   7.076  0.00  0.00    +0.025 A 
ATOM     16  C   UNL     1      -0.195  -5.639   5.999  0.00  0.00    +0.039 A 
ATOM     17  N   UNL     1      -0.349  -5.875   4.630  0.00  0.00    -0.283 N 
ATOM     18  C   UNL     1       0.685  -5.395   3.913  0.00  0.00    +0.243 C 
ATOM     19  O   UNL     1       0.822  -5.457   2.709  0.00  0.00    -0.273 OA
ATOM     20 CL   UNL     1       1.004  -4.520  10.205  0.00  0.00    -0.084 Cl
ATOM     21  H   UNL     1       2.890  -6.391   4.661  0.00  0.00    +0.124 HD
ATOM     22  H   UNL     1      -1.112  -6.331   4.242  0.00  0.00    +0.155 HD
ENDROOT
BRANCH   1  23
ATOM     23  C   UNL     1       0.763  -2.041   1.233  0.00  0.00    +0.116 C 
BRANCH  23  24
ATOM     24  C   UNL     1       0.742  -0.511   1.242  0.00  0.00    +0.019 C 
BRANCH  24  26
ATOM     25  C   UNL     1      -0.019   1.526   0.010  0.00  0.00    +0.004 C 
ATOM     26  C   UNL     1       0.002  -0.004   0.002  0.00  0.00    -0.002 C 
ENDBRANCH  24  26
ENDBRANCH  23  24
ENDBRANCH   1  23
BRANCH   5  27
ATOM     27  C   UNL     1       5.162  -4.830   3.829  0.00  0.00    +0.054 C 
BRANCH  27  28
ATOM     28  C   UNL     1       5.582  -6.259   3.598  0.00  0.00    -0.046 A 
ATOM     29  C   UNL     1       5.648  -7.139   4.662  0.00  0.00    +0.007 A 
ATOM     30  C   UNL     1       6.032  -8.449   4.454  0.00  0.00    +0.045 A 
ATOM     31  C   UNL     1       6.352  -8.882   3.175  0.00  0.00    +0.117 A 
ATOM     32  C   UNL     1       6.284  -7.997   2.108  0.00  0.00    +0.045 A 
ATOM     33  C   UNL     1       5.894  -6.689   2.322  0.00  0.00    +0.007 A 
BRANCH  31  34
ATOM     34  O   UNL     1       6.731 -10.170   2.966  0.00  0.00    -0.507 OA
ATOM     35  H   UNL     1       5.997 -10.770   2.772  0.00  0.00    +0.292 HD
ENDBRANCH  31  34
ENDBRANCH  27  28
ENDBRANCH   5  27
TORSDOF 6
