REMARK  Name = ZINC39686476
REMARK  12 active torsions:
REMARK  status: ('A' for Active; 'I' for Inactive)
REMARK    1  A    between atoms: C_1  and  C_2
REMARK    2  A    between atoms: C_2  and  C_4
REMARK    3  A    between atoms: C_2  and  N_13
REMARK    4  A    between atoms: C_4  and  C_5
REMARK    5  A    between atoms: C_10  and  O_11
REMARK    6  A    between atoms: O_11  and  C_12
REMARK    7  A    between atoms: C_14  and  C_16
REMARK    8  A    between atoms: C_27  and  C_29
REMARK    9  A    between atoms: C_32  and  O_37
REMARK   10  A    between atoms: C_34  and  O_35
REMARK   11  A    between atoms: O_35  and  C_36
REMARK   12  A    between atoms: O_37  and  C_38
REMARK                            x       y       z     vdW  Elec       q    Type
REMARK                         _______ _______ _______ _____ _____    ______ ____
ROOT
ATOM      1  C   UNL     1       0.787  -1.134   3.574  0.00  0.00    +0.100 C 
ATOM      2  C   UNL     1       1.978  -0.209   3.911  0.00  0.00    +0.121 C 
ATOM      3  N   UNL     1       1.444   0.739   4.917  0.00  0.00    -0.296 N 
ATOM      4  C   UNL     1       0.571  -0.092   5.780  0.00  0.00    +0.115 C 
ATOM      5  C   UNL     1      -0.133  -1.057   4.804  0.00  0.00    -0.004 C 
ATOM      6  C   UNL     1      -1.498  -0.503   4.409  0.00  0.00    -0.010 C 
ATOM      7  C   UNL     1      -2.413  -0.490   5.638  0.00  0.00    -0.082 C 
ATOM      8  N   UNL     1      -2.549  -1.854   6.164  0.00  0.00    +0.379 N 
ATOM      9  C   UNL     1      -1.245  -2.344   6.627  0.00  0.00    -0.082 C 
ATOM     10  C   UNL     1      -0.281  -2.436   5.441  0.00  0.00    -0.010 C 
ATOM     11  C   UNL     1       1.694   2.059   5.023  0.00  0.00    +0.250 C 
ATOM     12  O   UNL     1       2.361   2.622   4.175  0.00  0.00    -0.270 OA
ATOM     13  H   UNL     1      -3.199  -1.852   6.935  0.00  0.00    -0.086 HD
ATOM     14  H   UNL     1      -2.896  -2.460   5.436  0.00  0.00    -0.086 HD
ENDROOT
BRANCH  11  15
ATOM     15  C   UNL     1       1.160   2.821   6.165  0.00  0.00    +0.079 A 
ATOM     16  C   UNL     1       1.062   2.221   7.425  0.00  0.00    +0.020 A 
ATOM     17  C   UNL     1       0.564   2.935   8.489  0.00  0.00    +0.046 A 
ATOM     18  C   UNL     1       0.156   4.255   8.318  0.00  0.00    +0.124 A 
ATOM     19  C   UNL     1       0.248   4.859   7.073  0.00  0.00    +0.092 A 
ATOM     20  C   UNL     1       0.754   4.153   5.995  0.00  0.00    +0.136 A 
BRANCH  20  21
ATOM     21  O   UNL     1       0.850   4.744   4.778  0.00  0.00    -0.494 OA
ATOM     22  C   UNL     1       0.417   6.103   4.681  0.00  0.00    +0.277 C 
ENDBRANCH  20  21
BRANCH  18  23
ATOM     23  O   UNL     1      -0.335   4.952   9.373  0.00  0.00    -0.495 OA
ATOM     24  C   UNL     1      -0.404   4.270  10.627  0.00  0.00    +0.277 C 
ENDBRANCH  18  23
ENDBRANCH  11  15
BRANCH   1  26
ATOM     25  N   UNL     1      -0.552  -1.508   1.528  0.00  0.00    -0.312 N 
ATOM     26  C   UNL     1       0.066  -0.635   2.348  0.00  0.00    +0.218 C 
ATOM     27  O   UNL     1       0.042   0.551   2.099  0.00  0.00    -0.275 OA
ATOM     28  H   UNL     1      -0.532  -2.458   1.727  0.00  0.00    +0.149 HD
BRANCH  25  30
ATOM     29  C   UNL     1      -0.256  -0.873  -0.815  0.00  0.00    +0.028 C 
ATOM     30  C   UNL     1      -1.252  -1.024   0.336  0.00  0.00    +0.074 C 
BRANCH  30  31
ATOM     31  C   UNL     1      -2.340  -2.025  -0.058  0.00  0.00    +0.060 C 
BRANCH  31  32
ATOM     32  C   UNL     1      -3.387  -2.082   1.024  0.00  0.00    -0.004 A 
ATOM     33  C   UNL     1      -3.311  -3.048   2.010  0.00  0.00    +0.007 A 
ATOM     34  C   UNL     1      -4.271  -3.101   3.003  0.00  0.00    +0.000 A 
ATOM     35  C   UNL     1      -5.310  -2.188   3.013  0.00  0.00    +0.004 A 
ATOM     36  C   UNL     1      -5.390  -1.221   2.030  0.00  0.00    +0.046 A 
ATOM     37  C   UNL     1      -4.425  -1.162   1.035  0.00  0.00    +0.123 A 
BRANCH  37  38
ATOM     38  O   UNL     1      -4.499  -0.208   0.071  0.00  0.00    -0.495 OA
ATOM     39  C   UNL     1      -5.595   0.706   0.145  0.00  0.00    +0.277 C 
ENDBRANCH  37  38
ENDBRANCH  31  32
ENDBRANCH  30  31
ENDBRANCH  25  30
ENDBRANCH   1  26
TORSDOF 8
