REMARK  Name = ZINC12346110
REMARK  7 active torsions:
REMARK  status: ('A' for Active; 'I' for Inactive)
REMARK    1  A    between atoms: C_1  and  C_2
REMARK    2  A    between atoms: C_2  and  C_13
REMARK    3  A    between atoms: C_5  and  C_10
REMARK    4  A    between atoms: C_7  and  C_8
REMARK    5  A    between atoms: C_7  and  C_9
REMARK    6  A    between atoms: N_15  and  C_16
REMARK    7  A    between atoms: C_19  and  S_22
REMARK                            x       y       z     vdW  Elec       q    Type
REMARK                         _______ _______ _______ _____ _____    ______ ____
ROOT
ATOM      1  C   UNL     1       1.240  -0.281  -1.407  0.00  0.00    +0.224 C 
ATOM      2  O   UNL     1       0.762  -0.936  -2.308  0.00  0.00    -0.275 OA
ATOM      3  N   UNL     1       2.570  -0.061  -1.365  0.00  0.00    -0.285 N 
ATOM      4  H   UNL     1       2.960   0.407  -0.610  0.00  0.00    +0.155 HD
ENDROOT
BRANCH   1   6
ATOM      5  C   UNL     1       0.601   1.788  -0.181  0.00  0.00    +0.021 C 
ATOM      6  C   UNL     1       0.348   0.286  -0.333  0.00  0.00    +0.050 C 
ATOM      7  C   UNL     1      -1.132   0.033  -0.685  0.00  0.00    +0.017 C 
ATOM      8  C   UNL     1      -1.801  -0.267   0.679  0.00  0.00    +0.016 C 
ATOM      9  C   UNL     1      -0.719  -1.093   1.417  0.00  0.00    +0.109 C 
ATOM     10  C   UNL     1       0.611  -0.430   1.004  0.00  0.00    -0.008 C 
ATOM     11  C   UNL     1       1.695  -1.495   0.824  0.00  0.00    +0.013 C 
ATOM     12  C   UNL     1       1.043   0.584   2.065  0.00  0.00    +0.013 C 
BRANCH   9  13
ATOM     13  C   UNL     1      -0.914  -1.006   2.909  0.00  0.00    +0.360 C 
ATOM     14  O   UNL     1      -0.638  -1.960   3.616  0.00  0.00    -0.246 OA
ATOM     15  O   UNL     1      -1.348   0.018   3.408  0.00  0.00    -0.246 OA
ENDBRANCH   9  13
ENDBRANCH   1   6
BRANCH   3  16
ATOM     16  C   UNL     1       3.386  -0.509  -2.409  0.00  0.00    +0.034 A 
ATOM     17  C   UNL     1       4.489   0.240  -2.800  0.00  0.00    +0.025 A 
ATOM     18  C   UNL     1       5.293  -0.204  -3.831  0.00  0.00    +0.031 A 
ATOM     19  C   UNL     1       5.000  -1.393  -4.475  0.00  0.00    +0.120 A 
ATOM     20  C   UNL     1       3.903  -2.140  -4.089  0.00  0.00    +0.031 A 
ATOM     21  C   UNL     1       3.099  -1.705  -3.054  0.00  0.00    +0.025 A 
BRANCH  19  22
ATOM     22  S   UNL     1       6.029  -1.956  -5.790  0.00  0.00    +0.140 S 
ATOM     23  O   UNL     1       5.180  -2.720  -6.692  0.00  0.00    -0.140 OA
ATOM     24  O   UNL     1       6.578  -0.772  -6.434  0.00  0.00    -0.140 OA
ATOM     25  O   UNL     1       7.067  -2.780  -5.192  0.00  0.00    -0.043 OA
ENDBRANCH  19  22
ENDBRANCH   3  16
TORSDOF 4
