REMARK  Name = ZINC15379114
REMARK  11 active torsions:
REMARK  status: ('A' for Active; 'I' for Inactive)
REMARK    1  A    between atoms: C_1  and  C_2
REMARK    2  A    between atoms: C_7  and  N_24
REMARK    3  A    between atoms: C_8  and  C_13
REMARK    4  A    between atoms: N_17  and  C_21
REMARK    5  A    between atoms: C_21  and  C_22
REMARK    6  A    between atoms: C_21  and  C_23
REMARK    7  A    between atoms: N_24  and  C_25
REMARK    8  A    between atoms: C_27  and  C_32
REMARK    9  A    between atoms: C_27  and  C_33
REMARK   10  A    between atoms: C_28  and  C_30
REMARK   11  A    between atoms: C_28  and  C_31
REMARK                            x       y       z     vdW  Elec       q    Type
REMARK                         _______ _______ _______ _____ _____    ______ ____
ROOT
ATOM      1  C   UNL     1       1.240   6.054  -0.862  0.00  0.00    +0.045 C 
ATOM      2  C   UNL     1       1.505   4.583  -0.673  0.00  0.00    -0.034 A 
ATOM      3  C   UNL     1       2.824   4.112  -0.613  0.00  0.00    +0.008 A 
ATOM      4  C   UNL     1       3.054   2.779  -0.443  0.00  0.00    +0.047 A 
ATOM      5  C   UNL     1       1.965   1.895  -0.330  0.00  0.00    +0.142 A 
ATOM      6  N   UNL     1       2.201   0.594  -0.163  0.00  0.00    -0.214 NA
ATOM      7  C   UNL     1       1.213  -0.283  -0.051  0.00  0.00    +0.134 A 
ATOM      8  C   UNL     1      -0.127   0.166  -0.107  0.00  0.00    +0.081 A 
ATOM      9  C   UNL     1      -0.365   1.550  -0.284  0.00  0.00    +0.267 A 
ATOM     10  O   UNL     1      -1.504   1.980  -0.344  0.00  0.00    -0.267 OA
ATOM     11  N   UNL     1       0.690   2.385  -0.392  0.00  0.00    -0.267 N 
ATOM     12  C   UNL     1       0.471   3.720  -0.562  0.00  0.00    +0.099 A 
ENDROOT
BRANCH   8  13
ATOM     13  C   UNL     1      -1.202  -0.746   0.009  0.00  0.00    +0.037 C 
ATOM     14  C   UNL     1      -2.035  -0.684   1.089  0.00  0.00    +0.077 C 
ATOM     15  C   UNL     1      -1.940   0.118   2.261  0.00  0.00    +0.259 C 
ATOM     16  O   UNL     1      -1.014   0.895   2.416  0.00  0.00    -0.269 OA
ATOM     17  N   UNL     1      -2.887  -0.002   3.176  0.00  0.00    -0.253 N 
ATOM     18  C   UNL     1      -3.910  -0.869   3.008  0.00  0.00    +0.121 C 
ATOM     19  S   UNL     1      -5.227  -1.190   4.053  0.00  0.00    -0.027 S 
ATOM     20  S   UNL     1      -3.538  -1.594   1.418  0.00  0.00    -0.061 S 
BRANCH  17  21
ATOM     21  C   UNL     1      -2.822   0.812   4.393  0.00  0.00    +0.077 C 
ATOM     22  C   UNL     1      -4.074   1.686   4.489  0.00  0.00    +0.028 C 
ATOM     23  C   UNL     1      -2.744  -0.104   5.616  0.00  0.00    +0.028 C 
ENDBRANCH  17  21
ENDBRANCH   8  13
BRANCH   7  24
ATOM     24  N   UNL     1       1.490  -1.621   0.121  0.00  0.00    -0.326 N 
ATOM     25  H   UNL     1       0.765  -2.260   0.203  0.00  0.00    +0.148 HD
BRANCH  24  26
ATOM     26  C   UNL     1       2.883  -2.081   0.180  0.00  0.00    +0.069 C 
ATOM     27  C   UNL     1       3.394  -2.321  -1.241  0.00  0.00    +0.009 C 
ATOM     28  C   UNL     1       4.837  -2.820  -1.209  0.00  0.00    -0.072 C 
ATOM     29  C   UNL     1       4.382  -3.917   1.004  0.00  0.00    -0.072 C 
ATOM     30  C   UNL     1       2.946  -3.401   0.947  0.00  0.00    +0.009 C 
ATOM     31  C   UNL     1       5.181  -3.096   2.024  0.00  0.00    -0.010 C 
ATOM     32  C   UNL     1       4.334  -5.370   1.525  0.00  0.00    -0.010 C 
ATOM     33  C   UNL     1       5.776  -1.653  -0.885  0.00  0.00    -0.010 C 
ATOM     34  C   UNL     1       5.191  -3.311  -2.631  0.00  0.00    -0.010 C 
ATOM     35  N   UNL     1       5.078  -3.980  -0.309  0.00  0.00    +0.386 N 
ATOM     36  H   UNL     1       6.088  -4.039  -0.131  0.00  0.00    -0.084 HD
ATOM     37  H   UNL     1       4.766  -4.829  -0.794  0.00  0.00    -0.084 HD
ENDBRANCH  24  26
ENDBRANCH   7  24
TORSDOF 4
