REMARK  Name = ZINC52345106
REMARK  6 active torsions:
REMARK  status: ('A' for Active; 'I' for Inactive)
REMARK    1  A    between atoms: C_1  and  C_2
REMARK    2  A    between atoms: C_2  and  C_4
REMARK    3  A    between atoms: C_2  and  N_10
REMARK    4  A    between atoms: C_11  and  C_13
REMARK    5  A    between atoms: C_18  and  N_19
REMARK    6  A    between atoms: N_19  and  N_20
REMARK                            x       y       z     vdW  Elec       q    Type
REMARK                         _______ _______ _______ _____ _____    ______ ____
ROOT
ATOM      1  N   UNL     1      -1.355  -0.560   0.014  0.00  0.00    -0.308 N 
ATOM      2  C   UNL     1      -2.021  -0.676   1.181  0.00  0.00    +0.248 C 
ATOM      3  O   UNL     1      -1.477  -0.369   2.224  0.00  0.00    -0.270 OA
ATOM      4  H   UNL     1      -1.789  -0.805  -0.818  0.00  0.00    +0.149 HD
ENDROOT
BRANCH   2   5
ATOM      5  C   UNL     1      -3.408  -1.176   1.191  0.00  0.00    +0.079 A 
ATOM      6  C   UNL     1      -4.088  -1.416  -0.009  0.00  0.00    +0.033 A 
ATOM      7  C   UNL     1      -5.389  -1.885   0.056  0.00  0.00    +0.037 A 
ATOM      8  C   UNL     1      -5.975  -2.102   1.291  0.00  0.00    +0.128 A 
ATOM      9  N   UNL     1      -5.317  -1.869   2.410  0.00  0.00    -0.237 NA
ATOM     10  C   UNL     1      -4.069  -1.425   2.405  0.00  0.00    +0.144 A 
ATOM     11 BR   UNL     1      -6.358  -2.227  -1.532  0.00  0.00    -0.049 Br
BRANCH  10  12
ATOM     12  N   UNL     1      -3.415  -1.200   3.603  0.00  0.00    -0.267 N 
ATOM     13  H   UNL     1      -2.533  -0.797   3.606  0.00  0.00    +0.167 HD
BRANCH  12  14
ATOM     14  N   UNL     1      -4.012  -1.547   4.782  0.00  0.00    -0.255 NA
ATOM     15  H   UNL     1      -4.264  -2.524   4.787  0.00  0.00    +0.140 HD
ATOM     16  H   UNL     1      -3.418  -1.324   5.567  0.00  0.00    +0.140 HD
ENDBRANCH  12  14
ENDBRANCH  10  12
ENDBRANCH   2   5
BRANCH   1  18
ATOM     17  C   UNL     1       0.014   1.466  -0.018  0.00  0.00    +0.028 C 
ATOM     18  C   UNL     1       0.023  -0.064   0.004  0.00  0.00    +0.073 C 
BRANCH  18  19
ATOM     19  C   UNL     1       0.744  -0.587  -1.240  0.00  0.00    +0.009 C 
ATOM     20  C   UNL     1       0.753  -2.117  -1.219  0.00  0.00    +0.005 C 
ATOM     21  C   UNL     1       1.474  -2.640  -2.463  0.00  0.00    +0.000 C 
ATOM     22  C   UNL     1       2.913  -2.122  -2.474  0.00  0.00    +0.000 C 
ATOM     23  C   UNL     1       2.904  -0.592  -2.495  0.00  0.00    +0.000 C 
ATOM     24  C   UNL     1       2.183  -0.069  -1.251  0.00  0.00    +0.005 C 
ENDBRANCH  18  19
ENDBRANCH   1  18
TORSDOF 5
