REMARK  Name = ZINC36053466
REMARK  11 active torsions:
REMARK  status: ('A' for Active; 'I' for Inactive)
REMARK    1  A    between atoms: C_1  and  C_2
REMARK    2  A    between atoms: C_3  and  C_35
REMARK    3  A    between atoms: C_4  and  C_28
REMARK    4  A    between atoms: C_10  and  C_20
REMARK    5  A    between atoms: C_12  and  C_16
REMARK    6  A    between atoms: C_16  and  O_18
REMARK    7  A    between atoms: O_18  and  C_19
REMARK    8  A    between atoms: C_23  and  O_26
REMARK    9  A    between atoms: O_26  and  C_27
REMARK   10  A    between atoms: C_35  and  O_37
REMARK   11  A    between atoms: O_37  and  C_38
REMARK                            x       y       z     vdW  Elec       q    Type
REMARK                         _______ _______ _______ _____ _____    ______ ____
ROOT
ATOM      1  C   UNL     1      -0.018   1.503   0.010  0.00  0.00    +0.061 C 
ATOM      2  C   UNL     1       0.002  -0.004   0.002  0.00  0.00    +0.016 C 
ATOM      3  C   UNL     1      -1.155  -0.688   0.004  0.00  0.00    +0.065 C 
ATOM      4  C   UNL     1      -1.174  -2.188  -0.014  0.00  0.00    +0.092 C 
ATOM      5  C   UNL     1       0.164  -2.751   0.395  0.00  0.00    +0.025 C 
ATOM      6  C   UNL     1       1.271  -1.978   0.381  0.00  0.00    +0.016 C 
ATOM      7  N   UNL     1       1.198  -0.667  -0.013  0.00  0.00    -0.321 N 
ATOM      8  C   UNL     1       2.612  -2.532   0.794  0.00  0.00    +0.060 C 
ATOM      9  C   UNL     1       2.675  -4.025   0.462  0.00  0.00    +0.046 C 
ATOM     10  C   UNL     1       1.529  -4.734   1.190  0.00  0.00    +0.176 C 
ATOM     11  C   UNL     1       0.226  -4.099   0.788  0.00  0.00    +0.176 C 
ATOM     12  O   UNL     1      -0.791  -4.764   0.802  0.00  0.00    -0.291 OA
ATOM     13  H   UNL     1       2.000  -0.204  -0.301  0.00  0.00    +0.152 HD
ENDROOT
BRANCH   4  14
ATOM     14  C   UNL     1      -1.505  -2.662  -1.405  0.00  0.00    -0.035 A 
ATOM     15  C   UNL     1      -0.682  -2.326  -2.464  0.00  0.00    +0.006 A 
ATOM     16  C   UNL     1      -0.986  -2.761  -3.740  0.00  0.00    +0.020 A 
ATOM     17  C   UNL     1      -2.113  -3.533  -3.958  0.00  0.00    +0.041 A 
ATOM     18  C   UNL     1      -2.936  -3.869  -2.898  0.00  0.00    +0.020 A 
ATOM     19  C   UNL     1      -2.628  -3.438  -1.621  0.00  0.00    +0.006 A 
ATOM     20 CL   UNL     1      -2.494  -4.079  -5.561  0.00  0.00    -0.084 Cl
ENDBRANCH   4  14
BRANCH   9  21
ATOM     21  C   UNL     1       3.997  -4.589   0.917  0.00  0.00    -0.042 A 
ATOM     22  C   UNL     1       4.346  -4.536   2.253  0.00  0.00    +0.007 A 
ATOM     23  C   UNL     1       5.557  -5.052   2.673  0.00  0.00    +0.046 A 
ATOM     24  C   UNL     1       6.422  -5.624   1.752  0.00  0.00    +0.120 A 
ATOM     25  C   UNL     1       6.069  -5.677   0.411  0.00  0.00    +0.046 A 
ATOM     26  C   UNL     1       4.855  -5.164  -0.002  0.00  0.00    +0.007 A 
BRANCH  24  27
ATOM     27  O   UNL     1       7.614  -6.132   2.162  0.00  0.00    -0.495 OA
ATOM     28  C   UNL     1       8.454  -6.706   1.159  0.00  0.00    +0.277 C 
ENDBRANCH  24  27
ENDBRANCH   9  21
BRANCH  10  29
ATOM     29  C   UNL     1       1.519  -6.194   0.814  0.00  0.00    +0.318 C 
ATOM     30  O   UNL     1       2.343  -6.624   0.042  0.00  0.00    -0.250 OA
BRANCH  29  31
ATOM     31  O   UNL     1       0.595  -7.015   1.336  0.00  0.00    -0.467 OA
ATOM     32  C   UNL     1       0.644  -8.386   0.936  0.00  0.00    +0.280 C 
ENDBRANCH  29  31
ENDBRANCH  10  29
BRANCH   3  33
ATOM     33  C   UNL     1      -2.379   0.021   0.023  0.00  0.00    +0.337 C 
ATOM     34  O   UNL     1      -2.378   1.238   0.038  0.00  0.00    -0.245 OA
BRANCH  33  35
ATOM     35  O   UNL     1      -3.549  -0.652   0.025  0.00  0.00    -0.465 OA
ATOM     36  C   UNL     1      -4.746   0.127   0.045  0.00  0.00    +0.280 C 
ENDBRANCH  33  35
ENDBRANCH   3  33
TORSDOF 7
