REMARK  Name = ZINC13776348
REMARK  10 active torsions:
REMARK  status: ('A' for Active; 'I' for Inactive)
REMARK    1  A    between atoms: C_1  and  C_2
REMARK    2  A    between atoms: C_2  and  C_3
REMARK    3  A    between atoms: C_3  and  O_4
REMARK    4  A    between atoms: O_4  and  C_5
REMARK    5  A    between atoms: C_8  and  C_14
REMARK    6  A    between atoms: C_10  and  O_11
REMARK    7  A    between atoms: O_11  and  C_12
REMARK    8  A    between atoms: C_12  and  C_13
REMARK    9  A    between atoms: N_22  and  C_25
REMARK   10  A    between atoms: N_33  and  C_34
REMARK                            x       y       z     vdW  Elec       q    Type
REMARK                         _______ _______ _______ _____ _____    ______ ____
ROOT
ATOM      1  C   UNL     1      -6.403  -4.585   0.038  0.00  0.00    +0.157 C 
ATOM      2  C   UNL     1      -7.044  -4.560  -1.370  0.00  0.00    +0.145 C 
ATOM      3  C   UNL     1      -8.012  -3.348  -1.302  0.00  0.00    +0.249 C 
ATOM      4  C   UNL     1      -9.379  -3.986  -1.392  0.00  0.00    +0.259 C 
ATOM      5  O   UNL     1     -10.434  -3.389  -1.367  0.00  0.00    -0.272 OA
ATOM      6  N   UNL     1      -9.244  -5.313  -1.503  0.00  0.00    -0.206 N 
ATOM      7  C   UNL     1      -7.961  -5.755  -1.511  0.00  0.00    +0.235 C 
ATOM      8  O   UNL     1      -7.600  -6.907  -1.612  0.00  0.00    -0.274 OA
ATOM      9  O   UNL     1      -7.822  -2.771   0.002  0.00  0.00    -0.257 OA
ATOM     10  N   UNL     1      -7.382  -3.837   0.863  0.00  0.00    -0.244 N 
ENDROOT
BRANCH   6  11
ATOM     11  C   UNL     1     -10.340  -6.181  -1.609  0.00  0.00    +0.062 A 
ATOM     12  C   UNL     1     -10.845  -6.513  -2.859  0.00  0.00    +0.025 A 
ATOM     13  C   UNL     1     -11.925  -7.368  -2.961  0.00  0.00    +0.002 A 
ATOM     14  C   UNL     1     -12.503  -7.894  -1.820  0.00  0.00    +0.002 A 
ATOM     15  C   UNL     1     -12.003  -7.565  -0.574  0.00  0.00    +0.022 A 
ATOM     16  C   UNL     1     -10.918  -6.715  -0.465  0.00  0.00    +0.063 A 
ATOM     17 CL   UNL     1     -10.286  -6.309   1.100  0.00  0.00    -0.082 Cl
ENDBRANCH   6  11
BRANCH   1  21
ATOM     18  C   UNL     1      -2.617  -2.596   0.013  0.00  0.00    +0.162 A 
ATOM     19  C   UNL     1      -3.790  -1.859   0.022  0.00  0.00    +0.050 A 
ATOM     20  C   UNL     1      -5.013  -2.505   0.030  0.00  0.00    +0.009 A 
ATOM     21  C   UNL     1      -5.068  -3.886   0.029  0.00  0.00    -0.018 A 
ATOM     22  C   UNL     1      -3.901  -4.628   0.020  0.00  0.00    +0.055 A 
ATOM     23  C   UNL     1      -2.673  -3.987   0.006  0.00  0.00    +0.162 A 
BRANCH  18  24
ATOM     24  O   UNL     1      -1.414  -1.962   0.005  0.00  0.00    -0.488 OA
BRANCH  24  25
ATOM     25  C   UNL     1      -1.433  -0.534   0.013  0.00  0.00    +0.229 C 
BRANCH  25  27
ATOM     26  C   UNL     1      -0.019   1.526   0.010  0.00  0.00    +0.007 C 
ATOM     27  C   UNL     1       0.002  -0.004   0.002  0.00  0.00    +0.038 C 
ENDBRANCH  25  27
ENDBRANCH  24  25
ENDBRANCH  18  24
BRANCH  23  28
ATOM     28  O   UNL     1      -1.524  -4.715  -0.009  0.00  0.00    -0.489 OA
BRANCH  28  29
ATOM     29  C   UNL     1      -1.658  -6.138  -0.015  0.00  0.00    +0.226 C 
ATOM     30  C   UNL     1      -0.270  -6.780  -0.032  0.00  0.00    +0.048 C 
ENDBRANCH  28  29
ENDBRANCH  23  28
ENDBRANCH   1  21
BRANCH  10  31
ATOM     31  C   UNL     1      -7.776  -4.106   2.176  0.00  0.00    +0.065 A 
ATOM     32  C   UNL     1      -7.227  -5.183   2.861  0.00  0.00    +0.028 A 
ATOM     33  C   UNL     1      -7.619  -5.446   4.159  0.00  0.00    +0.002 A 
ATOM     34  C   UNL     1      -8.557  -4.638   4.776  0.00  0.00    +0.000 A 
ATOM     35  C   UNL     1      -9.105  -3.566   4.098  0.00  0.00    +0.002 A 
ATOM     36  C   UNL     1      -8.714  -3.294   2.801  0.00  0.00    +0.028 A 
ENDBRANCH  10  31
TORSDOF 8
