REMARK  Name = ZINC09312799
REMARK  4 active torsions:
REMARK  status: ('A' for Active; 'I' for Inactive)
REMARK    1  A    between atoms: C_4  and  N_7
REMARK    2  A    between atoms: C_8  and  C_10
REMARK    3  A    between atoms: N_28  and  C_31
REMARK    4  A    between atoms: C_34  and  N_37
REMARK                            x       y       z     vdW  Elec       q    Type
REMARK                         _______ _______ _______ _____ _____    ______ ____
ROOT
ATOM      1  C   UNL     1       4.319   3.581   1.510  0.00  0.00    +0.156 C 
ATOM      2  C   UNL     1       5.683   2.881   1.570  0.00  0.00    +0.118 C 
ATOM      3  C   UNL     1       5.399   1.413   1.081  0.00  0.00    +0.113 C 
ATOM      4  C   UNL     1       4.150   1.577   0.206  0.00  0.00    +0.100 C 
ATOM      5  C   UNL     1       2.183   3.132   0.175  0.00  0.00    +0.054 C 
ATOM      6  C   UNL     1       1.336   2.094   0.031  0.00  0.00    +0.022 C 
ATOM      7  C   UNL     1       1.803   0.728   0.343  0.00  0.00    -0.019 A 
ATOM      8  C   UNL     1       3.174   0.451   0.424  0.00  0.00    -0.021 A 
ATOM      9  C   UNL     1       3.607  -0.824   0.702  0.00  0.00    +0.006 A 
ATOM     10  C   UNL     1       2.687  -1.839   0.904  0.00  0.00    +0.000 A 
ATOM     11  C   UNL     1       1.331  -1.575   0.831  0.00  0.00    +0.001 A 
ATOM     12  C   UNL     1       0.883  -0.300   0.552  0.00  0.00    +0.008 A 
ATOM     13  C   UNL     1       6.590   1.153   0.204  0.00  0.00    +0.232 C 
ATOM     14  O   UNL     1       7.001   0.059  -0.120  0.00  0.00    -0.274 OA
ATOM     15  N   UNL     1       7.116   2.331  -0.165  0.00  0.00    -0.210 N 
ATOM     16  C   UNL     1       6.589   3.391   0.470  0.00  0.00    +0.232 C 
ATOM     17  O   UNL     1       6.803   4.555   0.208  0.00  0.00    -0.274 OA
ATOM     18  N   UNL     1       3.679   2.934   0.333  0.00  0.00    -0.383 NA
ATOM     19  H   UNL     1       4.077   3.422  -0.478  0.00  0.00    +0.127 HD
ENDROOT
BRANCH  15  20
ATOM     20  C   UNL     1       8.128   2.446  -1.129  0.00  0.00    +0.044 A 
ATOM     21  C   UNL     1       7.865   2.127  -2.454  0.00  0.00    +0.026 A 
ATOM     22  C   UNL     1       8.863   2.246  -3.402  0.00  0.00    +0.034 A 
ATOM     23  C   UNL     1      10.125   2.671  -3.030  0.00  0.00    +0.126 A 
ATOM     24  C   UNL     1      10.391   2.985  -1.710  0.00  0.00    +0.034 A 
ATOM     25  C   UNL     1       9.396   2.873  -0.758  0.00  0.00    +0.026 A 
BRANCH  23  26
ATOM     26  N   UNL     1      11.194   2.792  -4.047  0.00  0.00    +0.056 N 
ATOM     27  O   UNL     1      12.305   3.168  -3.721  0.00  0.00    -0.126 OA
ATOM     28  O   UNL     1      10.961   2.516  -5.211  0.00  0.00    -0.126 OA
ENDBRANCH  23  26
ENDBRANCH  15  20
BRANCH   1  30
ATOM     29  N   UNL     1       4.087   4.534   3.781  0.00  0.00    -0.284 N 
ATOM     30  C   UNL     1       3.698   3.607   2.883  0.00  0.00    +0.237 C 
ATOM     31  O   UNL     1       2.848   2.795   3.180  0.00  0.00    -0.273 OA
ATOM     32  H   UNL     1       4.716   5.226   3.523  0.00  0.00    +0.155 HD
BRANCH  29  36
ATOM     33  C   UNL     1       2.586   4.429   7.666  0.00  0.00    +0.000 A 
ATOM     34  C   UNL     1       3.890   4.830   7.441  0.00  0.00    +0.002 A 
ATOM     35  C   UNL     1       4.391   4.865   6.154  0.00  0.00    +0.023 A 
ATOM     36  C   UNL     1       3.583   4.499   5.086  0.00  0.00    +0.033 A 
ATOM     37  C   UNL     1       2.271   4.103   5.315  0.00  0.00    +0.023 A 
ATOM     38  C   UNL     1       1.778   4.065   6.604  0.00  0.00    +0.002 A 
ENDBRANCH  29  36
ENDBRANCH   1  30
TORSDOF 4
