REMARK  Name = ZINC17176529
REMARK  7 active torsions:
REMARK  status: ('A' for Active; 'I' for Inactive)
REMARK    1  A    between atoms: C_10  and  C_11
REMARK    2  A    between atoms: C_11  and  C_19
REMARK    3  A    between atoms: N_12  and  N_13
REMARK    4  A    between atoms: C_14  and  C_16
REMARK    5  A    between atoms: C_16  and  C_17
REMARK    6  A    between atoms: C_19  and  C_20
REMARK    7  A    between atoms: C_20  and  O_32
REMARK                            x       y       z     vdW  Elec       q    Type
REMARK                         _______ _______ _______ _____ _____    ______ ____
ROOT
ATOM      1  C   UNL     1       3.682   1.938  -0.076  0.00  0.00    +0.071 C 
ATOM      2  N   UNL     1       3.521   3.226  -0.037  0.00  0.00    -0.184 NA
ENDROOT
BRANCH   1  12
ATOM      3  C   UNL     1       2.088  -1.303  -3.758  0.00  0.00    +0.001 A 
ATOM      4  C   UNL     1       3.202  -0.481  -3.608  0.00  0.00    +0.001 A 
ATOM      5  C   UNL     1       3.361   0.287  -2.494  0.00  0.00    +0.009 A 
ATOM      6  C   UNL     1       2.392   0.251  -1.484  0.00  0.00    -0.009 A 
ATOM      7  C   UNL     1       1.258  -0.584  -1.633  0.00  0.00    -0.017 A 
ATOM      8  C   UNL     1       1.123  -1.358  -2.799  0.00  0.00    +0.008 A 
ATOM      9  C   UNL     1       0.287  -0.619  -0.618  0.00  0.00    +0.008 A 
ATOM     10  C   UNL     1       0.428   0.141   0.503  0.00  0.00    +0.001 A 
ATOM     11  C   UNL     1       1.523   0.973   0.692  0.00  0.00    +0.010 A 
ATOM     12  C   UNL     1       2.521   1.056  -0.272  0.00  0.00    +0.006 A 
ENDBRANCH   1  12
BRANCH   2  13
ATOM     13  N   UNL     1       2.231   3.772  -0.081  0.00  0.00    -0.206 N 
ATOM     14  C   UNL     1       2.057   5.101   0.063  0.00  0.00    +0.246 C 
ATOM     15  O   UNL     1       3.020   5.834   0.140  0.00  0.00    -0.273 OA
ATOM     16  H   UNL     1       1.464   3.194  -0.215  0.00  0.00    +0.177 HD
BRANCH  14  17
ATOM     17  C   UNL     1       0.665   5.675   0.129  0.00  0.00    +0.215 C 
BRANCH  17  18
ATOM     18  C   UNL     1       0.742   7.145   0.165  0.00  0.00    +0.072 C 
ATOM     19  N   UNL     1       0.801   8.279   0.192  0.00  0.00    -0.196 NA
ENDBRANCH  17  18
ENDBRANCH  14  17
ENDBRANCH   2  13
BRANCH   1  20
ATOM     20  C   UNL     1       5.060   1.346   0.080  0.00  0.00    +0.107 C 
BRANCH  20  21
ATOM     21  C   UNL     1       5.126   0.544   1.381  0.00  0.00    +0.174 C 
ATOM     22  C   UNL     1       6.522   0.011   1.604  0.00  0.00    +0.017 A 
ATOM     23  C   UNL     1       7.321  -0.850   0.885  0.00  0.00    +0.029 A 
ATOM     24  C   UNL     1       8.589  -1.164   1.345  0.00  0.00    +0.043 A 
ATOM     25  C   UNL     1       9.048  -0.611   2.528  0.00  0.00    +0.042 A 
ATOM     26  C   UNL     1       8.249   0.252   3.250  0.00  0.00    +0.064 A 
ATOM     27  C   UNL     1       6.971   0.573   2.792  0.00  0.00    +0.058 A 
ATOM     28  N   UNL     1       5.989   1.406   3.333  0.00  0.00    -0.281 N 
ATOM     29  C   UNL     1       4.882   1.446   2.573  0.00  0.00    +0.254 C 
ATOM     30  O   UNL     1       3.876   2.084   2.799  0.00  0.00    -0.272 OA
ATOM     31 CL   UNL     1       8.835   0.941   4.732  0.00  0.00    -0.082 Cl
ATOM     32 CL   UNL     1       9.600  -2.248   0.442  0.00  0.00    -0.083 Cl
ATOM     33  H   UNL     1       6.095   1.899   4.161  0.00  0.00    +0.155 HD
BRANCH  21  34
ATOM     34  O   UNL     1       4.179  -0.526   1.357  0.00  0.00    -0.374 OA
ATOM     35  H   UNL     1       4.178  -1.068   2.158  0.00  0.00    +0.211 HD
ENDBRANCH  21  34
ENDBRANCH  20  21
ENDBRANCH   1  20
TORSDOF 7
