REMARK  Name = ZINC56946801
REMARK  12 active torsions:
REMARK  status: ('A' for Active; 'I' for Inactive)
REMARK    1  A    between atoms: C_1  and  C_2
REMARK    2  A    between atoms: C_2  and  C_3
REMARK    3  A    between atoms: C_3  and  C_5
REMARK    4  A    between atoms: C_3  and  N_6
REMARK    5  A    between atoms: C_7  and  C_9
REMARK    6  A    between atoms: C_9  and  N_10
REMARK    7  A    between atoms: N_18  and  C_19
REMARK    8  A    between atoms: C_19  and  C_21
REMARK    9  A    between atoms: C_19  and  C_22
REMARK   10  A    between atoms: C_22  and  N_23
REMARK   11  A    between atoms: C_25  and  C_32
REMARK   12  A    between atoms: C_28  and  C_31
REMARK                            x       y       z     vdW  Elec       q    Type
REMARK                         _______ _______ _______ _____ _____    ______ ____
ROOT
ATOM      1  N   UNL     1       2.096  -0.864   6.701  0.00  0.00    -0.291 NA
ATOM      2  C   UNL     1       1.543  -0.916   8.061  0.00  0.00    +0.104 C 
ATOM      3  C   UNL     1       1.011   0.468   8.446  0.00  0.00    +0.124 C 
ATOM      4  N   UNL     1       2.086   1.453   8.249  0.00  0.00    -0.283 N 
ATOM      5  C   UNL     1       2.783   1.474   6.954  0.00  0.00    +0.124 C 
ATOM      6  C   UNL     1       3.245   0.049   6.628  0.00  0.00    +0.104 C 
ATOM      7  C   UNL     1       2.423   2.314   9.230  0.00  0.00    +0.302 C 
ATOM      8  O   UNL     1       3.374   3.057   9.086  0.00  0.00    -0.253 OA
ATOM      9  N   UNL     1       1.704   2.352  10.370  0.00  0.00    -0.298 N 
ATOM     10  H   UNL     1       0.991   1.712  10.515  0.00  0.00    +0.150 HD
ENDROOT
BRANCH   9  11
ATOM     11  C   UNL     1       2.002   3.361  11.389  0.00  0.00    +0.055 C 
ATOM     12  C   UNL     1       3.131   2.858  12.291  0.00  0.00    +0.026 C 
BRANCH  11  13
ATOM     13  C   UNL     1       0.751   3.617  12.233  0.00  0.00    -0.057 C 
BRANCH  13  14
ATOM     14  N   UNL     1      -0.366   3.985  11.354  0.00  0.00    +0.381 N 
ATOM     15  C   UNL     1      -0.066   5.261  10.692  0.00  0.00    -0.076 C 
ATOM     16  C   UNL     1      -1.190   5.608   9.714  0.00  0.00    -0.031 C 
ATOM     17  C   UNL     1      -2.510   5.728  10.482  0.00  0.00    +0.003 C 
ATOM     18  C   UNL     1      -2.775   4.417  11.229  0.00  0.00    -0.031 C 
ATOM     19  C   UNL     1      -1.592   4.114  12.151  0.00  0.00    -0.076 C 
ATOM     20  C   UNL     1      -4.051   4.553  12.061  0.00  0.00    +0.005 C 
ATOM     21  C   UNL     1      -0.876   6.939   9.026  0.00  0.00    +0.005 C 
ATOM     22  H   UNL     1      -0.494   3.268  10.656  0.00  0.00    -0.082 HD
ENDBRANCH  13  14
ENDBRANCH  11  13
ENDBRANCH   9  11
BRANCH   1  23
ATOM     23  C   UNL     1       2.460  -2.206   6.229  0.00  0.00    +0.180 C 
BRANCH  23  25
ATOM     24  N   UNL     1       1.306  -4.319   5.662  0.00  0.00    -0.312 N 
ATOM     25  C   UNL     1       1.215  -3.043   6.085  0.00  0.00    +0.227 C 
ATOM     26  O   UNL     1       0.131  -2.567   6.350  0.00  0.00    -0.274 OA
ATOM     27  H   UNL     1       2.173  -4.699   5.450  0.00  0.00    +0.149 HD
BRANCH  24  28
ATOM     28  C   UNL     1       0.096  -5.133   5.522  0.00  0.00    +0.070 C 
ATOM     29  C   UNL     1      -0.535  -4.878   4.152  0.00  0.00    +0.028 C 
BRANCH  28  31
ATOM     30  C   UNL     1       0.973  -6.893   7.062  0.00  0.00    +0.005 C 
ATOM     31  C   UNL     1       0.459  -6.614   5.649  0.00  0.00    +0.018 C 
ENDBRANCH  28  31
ENDBRANCH  24  28
ENDBRANCH  23  25
ENDBRANCH   1  23
TORSDOF 7
