REMARK  Name = ZINC39935463
REMARK  6 active torsions:
REMARK  status: ('A' for Active; 'I' for Inactive)
REMARK    1  A    between atoms: C_4  and  C_7
REMARK    2  A    between atoms: C_7  and  C_8
REMARK    3  A    between atoms: C_8  and  C_27
REMARK    4  A    between atoms: N_11  and  C_15
REMARK    5  A    between atoms: C_15  and  C_16
REMARK    6  A    between atoms: C_16  and  C_18
REMARK                            x       y       z     vdW  Elec       q    Type
REMARK                         _______ _______ _______ _____ _____    ______ ____
ROOT
ATOM      1  C   UNL     1       4.171  -0.963   1.399  0.00  0.00    +0.142 C 
ATOM      2  C   UNL     1       3.149  -1.797   2.146  0.00  0.00    +0.252 C 
ATOM      3  O   UNL     1       2.784  -2.921   1.877  0.00  0.00    -0.272 OA
ATOM      4  N   UNL     1       2.731  -1.029   3.171  0.00  0.00    -0.216 N 
ATOM      5  C   UNL     1       3.341   0.162   3.176  0.00  0.00    +0.310 C 
ATOM      6  O   UNL     1       3.129   1.026   4.004  0.00  0.00    -0.252 OA
ATOM      7  N   UNL     1       4.215   0.296   2.162  0.00  0.00    -0.281 N 
ATOM      8  H   UNL     1       4.766   1.071   1.970  0.00  0.00    +0.152 HD
ENDROOT
BRANCH   1   9
ATOM      9  C   UNL     1       5.520  -1.636   1.410  0.00  0.00    -0.015 A 
ATOM     10  C   UNL     1       5.887  -2.464   0.366  0.00  0.00    +0.006 A 
ATOM     11  C   UNL     1       7.124  -3.082   0.376  0.00  0.00    +0.000 A 
ATOM     12  C   UNL     1       7.993  -2.871   1.430  0.00  0.00    +0.000 A 
ATOM     13  C   UNL     1       7.626  -2.042   2.474  0.00  0.00    +0.000 A 
ATOM     14  C   UNL     1       6.391  -1.422   2.462  0.00  0.00    +0.006 A 
ENDBRANCH   1   9
BRANCH   1  15
ATOM     15  C   UNL     1       3.711  -0.707  -0.038  0.00  0.00    +0.075 C 
BRANCH  15  19
ATOM     16  C   UNL     1      -0.017   1.378   0.010  0.00  0.00    +0.000 A 
ATOM     17  C   UNL     1       1.171   2.086   0.002  0.00  0.00    +0.000 A 
ATOM     18  C   UNL     1       2.377   1.411  -0.013  0.00  0.00    +0.004 A 
ATOM     19  C   UNL     1       2.396   0.029  -0.020  0.00  0.00    -0.045 A 
ATOM     20  C   UNL     1       1.208  -0.679  -0.012  0.00  0.00    +0.004 A 
ATOM     21  C   UNL     1       0.002  -0.004   0.002  0.00  0.00    +0.000 A 
ENDBRANCH  15  19
ENDBRANCH   1  15
BRANCH   4  22
ATOM     22  C   UNL     1       1.732  -1.446   4.158  0.00  0.00    +0.197 C 
BRANCH  22  23
ATOM     23  C   UNL     1       2.421  -2.121   5.316  0.00  0.00    +0.179 C 
ATOM     24  O   UNL     1       3.629  -2.242   5.316  0.00  0.00    -0.291 OA
BRANCH  23  25
ATOM     25  C   UNL     1       1.662  -2.612   6.399  0.00  0.00    +0.025 C 
ATOM     26  C   UNL     1       2.136  -3.247   7.533  0.00  0.00    +0.006 A 
ATOM     27  C   UNL     1       3.436  -3.597   7.967  0.00  0.00    +0.010 A 
ATOM     28  C   UNL     1       3.613  -4.229   9.149  0.00  0.00    +0.001 A 
ATOM     29  C   UNL     1       2.541  -4.565   9.992  0.00  0.00    +0.002 A 
ATOM     30  C   UNL     1       1.262  -4.276   9.670  0.00  0.00    +0.026 A 
ATOM     31  C   UNL     1       0.981  -3.588   8.399  0.00  0.00    +0.043 A 
ATOM     32  N   UNL     1      -0.133  -3.196   7.850  0.00  0.00    -0.380 N 
ATOM     33  C   UNL     1       0.160  -2.550   6.567  0.00  0.00    +0.152 C 
ATOM     34  H   UNL     1      -1.017  -3.310   8.232  0.00  0.00    +0.160 HD
ENDBRANCH  23  25
ENDBRANCH  22  23
ENDBRANCH   4  22
TORSDOF 6
