REMARK  Name = ZINC00651912
REMARK  8 active torsions:
REMARK  status: ('A' for Active; 'I' for Inactive)
REMARK    1  A    between atoms: C_1  and  C_2
REMARK    2  A    between atoms: C_3  and  C_30
REMARK    3  A    between atoms: C_4  and  C_21
REMARK    4  A    between atoms: C_10  and  C_15
REMARK    5  A    between atoms: C_30  and  O_32
REMARK    6  A    between atoms: O_32  and  C_33
REMARK    7  A    between atoms: C_33  and  C_34
REMARK    8  A    between atoms: C_34  and  C_35
REMARK                            x       y       z     vdW  Elec       q    Type
REMARK                         _______ _______ _______ _____ _____    ______ ____
ROOT
ATOM      1  C   UNL     1      -0.705   0.615   4.930  0.00  0.00    +0.061 C 
ATOM      2  C   UNL     1      -1.041   1.330   3.647  0.00  0.00    +0.016 C 
ATOM      3  C   UNL     1      -1.734   2.482   3.686  0.00  0.00    +0.065 C 
ATOM      4  C   UNL     1      -2.095   3.216   2.428  0.00  0.00    +0.092 C 
ATOM      5  C   UNL     1      -1.245   2.757   1.270  0.00  0.00    +0.024 C 
ATOM      6  C   UNL     1      -0.569   1.590   1.331  0.00  0.00    +0.016 C 
ATOM      7  N   UNL     1      -0.640   0.804   2.450  0.00  0.00    -0.321 N 
ATOM      8  C   UNL     1       0.284   1.125   0.178  0.00  0.00    +0.059 C 
ATOM      9  C   UNL     1      -0.302   1.642  -1.137  0.00  0.00    +0.032 C 
ATOM     10  C   UNL     1      -0.367   3.172  -1.072  0.00  0.00    +0.088 C 
ATOM     11  C   UNL     1      -1.178   3.576   0.129  0.00  0.00    +0.162 C 
ATOM     12  O   UNL     1      -1.786   4.628   0.113  0.00  0.00    -0.292 OA
ATOM     13  H   UNL     1      -0.370  -0.260   2.381  0.00  0.00    +0.152 HD
ENDROOT
BRANCH   4  14
ATOM     14  C   UNL     1      -3.546   2.965   2.107  0.00  0.00    -0.032 A 
ATOM     15  C   UNL     1      -3.982   1.679   1.849  0.00  0.00    +0.008 A 
ATOM     16  C   UNL     1      -5.313   1.443   1.558  0.00  0.00    +0.050 A 
ATOM     17  C   UNL     1      -6.211   2.497   1.515  0.00  0.00    +0.166 A 
ATOM     18  C   UNL     1      -5.770   3.794   1.771  0.00  0.00    +0.167 A 
ATOM     19  C   UNL     1      -4.436   4.022   2.066  0.00  0.00    +0.054 A 
ATOM     20  O   UNL     1      -6.833   4.644   1.668  0.00  0.00    -0.453 OA
ATOM     21  C   UNL     1      -8.003   3.809   1.750  0.00  0.00    +0.466 C 
ATOM     22  O   UNL     1      -7.550   2.536   1.253  0.00  0.00    -0.453 OA
ENDBRANCH   4  14
BRANCH   9  23
ATOM     23  C   UNL     1       0.579   1.221  -2.285  0.00  0.00    -0.044 A 
ATOM     24  C   UNL     1       1.897   1.633  -2.332  0.00  0.00    +0.004 A 
ATOM     25  C   UNL     1       2.707   1.243  -3.382  0.00  0.00    +0.000 A 
ATOM     26  C   UNL     1       2.195   0.450  -4.392  0.00  0.00    +0.000 A 
ATOM     27  C   UNL     1       0.874   0.042  -4.348  0.00  0.00    +0.000 A 
ATOM     28  C   UNL     1       0.066   0.428  -3.295  0.00  0.00    +0.004 A 
ENDBRANCH   9  23
BRANCH   3  29
ATOM     29  C   UNL     1      -2.132   3.010   4.936  0.00  0.00    +0.338 C 
ATOM     30  O   UNL     1      -1.557   3.978   5.398  0.00  0.00    -0.245 OA
BRANCH  29  31
ATOM     31  O   UNL     1      -3.148   2.440   5.617  0.00  0.00    -0.461 OA
BRANCH  31  32
ATOM     32  C   UNL     1      -3.496   3.026   6.874  0.00  0.00    +0.237 C 
BRANCH  32  33
ATOM     33  C   UNL     1      -4.660   2.250   7.493  0.00  0.00    +0.076 C 
BRANCH  33  34
ATOM     34  C   UNL     1      -5.027   2.867   8.818  0.00  0.00    -0.044 A 
ATOM     35  C   UNL     1      -4.423   2.422   9.979  0.00  0.00    +0.004 A 
ATOM     36  C   UNL     1      -4.756   2.992  11.193  0.00  0.00    +0.000 A 
ATOM     37  C   UNL     1      -5.701   4.000  11.248  0.00  0.00    +0.000 A 
ATOM     38  C   UNL     1      -6.309   4.441  10.088  0.00  0.00    +0.000 A 
ATOM     39  C   UNL     1      -5.972   3.875   8.873  0.00  0.00    +0.004 A 
ENDBRANCH  33  34
ENDBRANCH  32  33
ENDBRANCH  31  32
ENDBRANCH  29  31
ENDBRANCH   3  29
TORSDOF 7
