REMARK  Name = ZINC29062009
REMARK  12 active torsions:
REMARK  status: ('A' for Active; 'I' for Inactive)
REMARK    1  A    between atoms: C_1  and  C_2
REMARK    2  A    between atoms: C_2  and  C_4
REMARK    3  A    between atoms: C_2  and  N_14
REMARK    4  A    between atoms: C_7  and  S_10
REMARK    5  A    between atoms: S_10  and  N_13
REMARK    6  A    between atoms: N_14  and  C_15
REMARK    7  A    between atoms: N_14  and  C_16
REMARK    8  A    between atoms: C_16  and  C_17
REMARK    9  A    between atoms: N_19  and  C_20
REMARK   10  A    between atoms: C_20  and  C_21
REMARK   11  A    between atoms: C_24  and  O_27
REMARK   12  A    between atoms: O_27  and  C_28
REMARK                            x       y       z     vdW  Elec       q    Type
REMARK                         _______ _______ _______ _____ _____    ______ ____
ROOT
ATOM      1  N   UNL     1       1.210  -5.983  -3.172  0.00  0.00    +0.388 N 
ATOM      2  C   UNL     1      -0.089  -6.380  -2.614  0.00  0.00    -0.095 C 
ATOM      3  H   UNL     1       1.990  -6.567  -2.662  0.00  0.00    -0.081 HD
ENDROOT
BRANCH   1   5
ATOM      4  C   UNL     1       1.055  -7.787  -4.821  0.00  0.00    -0.008 C 
ATOM      5  C   UNL     1       1.283  -6.289  -4.607  0.00  0.00    -0.041 C 
BRANCH   5   6
ATOM      6  C   UNL     1       2.642  -5.907  -5.134  0.00  0.00    -0.061 A 
ATOM      7  C   UNL     1       3.779  -6.256  -4.431  0.00  0.00    +0.004 A 
ATOM      8  C   UNL     1       5.026  -5.910  -4.917  0.00  0.00    +0.029 A 
ATOM      9  C   UNL     1       5.135  -5.205  -6.101  0.00  0.00    +0.105 A 
ATOM     10  C   UNL     1       3.997  -4.851  -6.802  0.00  0.00    +0.029 A 
ATOM     11  C   UNL     1       2.751  -5.202  -6.319  0.00  0.00    +0.004 A 
BRANCH   9  12
ATOM     12  S   UNL     1       6.724  -4.758  -6.717  0.00  0.00    +0.056 S 
ATOM     13  O   UNL     1       7.651  -5.679  -6.158  0.00  0.00    -0.153 OA
ATOM     14  O   UNL     1       6.580  -4.577  -8.119  0.00  0.00    -0.153 OA
BRANCH  12  15
ATOM     15  N   UNL     1       7.094  -3.273  -6.084  0.00  0.00    -0.204 NA
ATOM     16  H   UNL     1       8.083  -2.956  -6.446  0.00  0.00    +0.144 HD
ATOM     17  H   UNL     1       7.108  -3.336  -4.986  0.00  0.00    +0.144 HD
ENDBRANCH  12  15
ENDBRANCH   9  12
ENDBRANCH   5   6
ENDBRANCH   1   5
BRANCH   1  18
ATOM     18  C   UNL     1       1.477  -4.560  -2.924  0.00  0.00    +0.019 C 
BRANCH  18  19
ATOM     19  C   UNL     1       1.637  -4.330  -1.443  0.00  0.00    +0.197 C 
ATOM     20  O   UNL     1       1.539  -5.260  -0.671  0.00  0.00    -0.278 OA
ATOM     21  N   UNL     1       1.890  -3.091  -0.976  0.00  0.00    -0.313 N 
ATOM     22  H   UNL     1       1.979  -2.247  -1.677  0.00  0.00    +0.149 HD
BRANCH  21  23
ATOM     23  C   UNL     1       2.046  -2.868   0.463  0.00  0.00    +0.139 C 
BRANCH  23  24
ATOM     24  C   UNL     1       2.319  -1.408   0.718  0.00  0.00    -0.030 A 
ATOM     25  C   UNL     1       1.268  -0.536   0.931  0.00  0.00    +0.009 A 
ATOM     26  C   UNL     1       1.516   0.803   1.166  0.00  0.00    +0.046 A 
ATOM     27  C   UNL     1       2.822   1.272   1.188  0.00  0.00    +0.127 A 
ATOM     28  C   UNL     1       3.875   0.394   0.974  0.00  0.00    +0.046 A 
ATOM     29  C   UNL     1       3.621  -0.943   0.740  0.00  0.00    +0.009 A 
BRANCH  27  30
ATOM     30  O   UNL     1       3.068   2.588   1.418  0.00  0.00    -0.434 OA
BRANCH  30  31
ATOM     31  C   UNL     1       4.437   3.000   1.427  0.00  0.00    +0.541 C 
ATOM     32  F   UNL     1       5.126   2.308   2.428  0.00  0.00    -0.166 F 
ATOM     33  F   UNL     1       5.015   2.721   0.184  0.00  0.00    -0.166 F 
ENDBRANCH  30  31
ENDBRANCH  27  30
ENDBRANCH  23  24
ENDBRANCH  21  23
ENDBRANCH  18  19
ENDBRANCH   1  18
TORSDOF 10
