REMARK  Name = ZINC39677034
REMARK  7 active torsions:
REMARK  status: ('A' for Active; 'I' for Inactive)
REMARK    1  A    between atoms: C_1  and  C_2
REMARK    2  A    between atoms: C_5  and  C_37
REMARK    3  A    between atoms: C_6  and  C_8
REMARK    4  A    between atoms: C_8  and  C_9
REMARK    5  A    between atoms: C_9  and  N_10
REMARK    6  A    between atoms: C_11  and  C_13
REMARK    7  A    between atoms: C_24  and  C_26
REMARK                            x       y       z     vdW  Elec       q    Type
REMARK                         _______ _______ _______ _____ _____    ______ ____
ROOT
ATOM      1  C   UNL     1       2.701  -5.104   5.948  0.00  0.00    +0.100 C 
ATOM      2  C   UNL     1       2.270  -4.186   7.114  0.00  0.00    +0.121 C 
ATOM      3  N   UNL     1       3.127  -4.597   8.250  0.00  0.00    -0.297 N 
ATOM      4  C   UNL     1       4.454  -4.852   7.639  0.00  0.00    +0.115 C 
ATOM      5  C   UNL     1       4.134  -5.539   6.296  0.00  0.00    -0.004 C 
ATOM      6  C   UNL     1       4.204  -7.055   6.449  0.00  0.00    -0.010 C 
ATOM      7  C   UNL     1       5.650  -7.468   6.739  0.00  0.00    -0.082 C 
ATOM      8  N   UNL     1       6.517  -7.026   5.640  0.00  0.00    +0.379 N 
ATOM      9  C   UNL     1       6.516  -5.561   5.558  0.00  0.00    -0.082 C 
ATOM     10  C   UNL     1       5.106  -5.068   5.219  0.00  0.00    -0.010 C 
ATOM     11  C   UNL     1       2.780  -4.713   9.547  0.00  0.00    +0.260 C 
ATOM     12  O   UNL     1       3.603  -5.063  10.367  0.00  0.00    -0.271 OA
ATOM     13  H   UNL     1       7.458  -7.352   5.803  0.00  0.00    -0.086 HD
ATOM     14  H   UNL     1       6.177  -7.410   4.771  0.00  0.00    -0.086 HD
ENDROOT
BRANCH  11  15
ATOM     15  C   UNL     1       1.369  -4.407   9.980  0.00  0.00    +0.296 C 
ATOM     16  C   UNL     1       1.073  -2.917   9.765  0.00  0.00    +0.283 C 
ATOM     17  O   UNL     1      -0.267  -2.659  10.198  0.00  0.00    -0.484 OA
ATOM     18  C   UNL     1      -0.633  -3.183  11.399  0.00  0.00    +0.162 A 
ATOM     19  C   UNL     1      -1.758  -2.689  12.043  0.00  0.00    +0.049 A 
ATOM     20  C   UNL     1      -2.144  -3.214  13.262  0.00  0.00    +0.004 A 
ATOM     21  C   UNL     1      -1.411  -4.232  13.842  0.00  0.00    +0.004 A 
ATOM     22  C   UNL     1      -0.289  -4.729  13.206  0.00  0.00    +0.049 A 
ATOM     23  C   UNL     1       0.105  -4.206  11.983  0.00  0.00    +0.163 A 
ATOM     24  O   UNL     1       1.217  -4.700  11.373  0.00  0.00    -0.473 OA
ENDBRANCH  11  15
BRANCH   1  26
ATOM     25  N   UNL     1       2.455  -4.994   3.489  0.00  0.00    -0.315 N 
ATOM     26  C   UNL     1       2.684  -4.344   4.647  0.00  0.00    +0.218 C 
ATOM     27  O   UNL     1       2.878  -3.147   4.642  0.00  0.00    -0.275 OA
ATOM     28  H   UNL     1       2.300  -5.952   3.493  0.00  0.00    +0.149 HD
BRANCH  25  29
ATOM     29  C   UNL     1       2.439  -4.255   2.224  0.00  0.00    +0.109 C 
BRANCH  29  30
ATOM     30  C   UNL     1       2.158  -5.222   1.072  0.00  0.00    +0.054 C 
BRANCH  30  36
ATOM     31  C   UNL     1      -0.378  -2.826  -2.516  0.00  0.00    +0.044 C 
ATOM     32  C   UNL     1       0.928  -3.316  -1.946  0.00  0.00    -0.050 A 
ATOM     33  C   UNL     1       2.111  -3.067  -2.616  0.00  0.00    +0.003 A 
ATOM     34  C   UNL     1       3.309  -3.516  -2.093  0.00  0.00    +0.004 A 
ATOM     35  C   UNL     1       3.325  -4.213  -0.899  0.00  0.00    -0.047 A 
ATOM     36  C   UNL     1       2.142  -4.461  -0.229  0.00  0.00    -0.043 A 
ATOM     37  C   UNL     1       0.944  -4.008  -0.750  0.00  0.00    +0.007 A 
ATOM     38  C   UNL     1       4.631  -4.704  -0.330  0.00  0.00    +0.044 C 
ENDBRANCH  30  36
ENDBRANCH  29  30
ENDBRANCH  25  29
ENDBRANCH   1  26
TORSDOF 5
