REMARK  Name = ZINC40168805
REMARK  9 active torsions:
REMARK  status: ('A' for Active; 'I' for Inactive)
REMARK    1  A    between atoms: C_1  and  C_2
REMARK    2  A    between atoms: C_2  and  C_3
REMARK    3  A    between atoms: C_3  and  C_5
REMARK    4  A    between atoms: C_3  and  O_15
REMARK    5  A    between atoms: N_7  and  C_8
REMARK    6  A    between atoms: O_15  and  C_16
REMARK    7  A    between atoms: C_26  and  C_27
REMARK    8  A    between atoms: C_30  and  O_33
REMARK    9  A    between atoms: O_33  and  C_34
REMARK                            x       y       z     vdW  Elec       q    Type
REMARK                         _______ _______ _______ _____ _____    ______ ____
ROOT
ATOM      1  C   UNL     1      -3.298   1.044  -2.642  0.00  0.00    +0.212 A 
ATOM      2  C   UNL     1      -4.386   0.863  -3.531  0.00  0.00    +0.235 A 
ATOM      3  O   UNL     1      -4.566  -0.200  -4.105  0.00  0.00    -0.283 OA
ATOM      4  C   UNL     1      -5.293   2.008  -3.736  0.00  0.00    +0.068 A 
ATOM      5  C   UNL     1      -6.390   1.917  -4.594  0.00  0.00    +0.015 A 
ATOM      6  C   UNL     1      -7.215   3.007  -4.761  0.00  0.00    +0.001 A 
ATOM      7  C   UNL     1      -6.959   4.189  -4.080  0.00  0.00    +0.004 A 
ATOM      8  C   UNL     1      -5.879   4.292  -3.230  0.00  0.00    +0.047 A 
ATOM      9  C   UNL     1      -5.034   3.203  -3.047  0.00  0.00    +0.140 A 
ATOM     10  O   UNL     1      -3.973   3.287  -2.218  0.00  0.00    -0.451 OA
ATOM     11  C   UNL     1      -3.137   2.255  -2.013  0.00  0.00    +0.181 A 
ENDROOT
BRANCH  11  12
ATOM     12  C   UNL     1      -2.005   2.430  -1.085  0.00  0.00    +0.021 A 
ATOM     13  C   UNL     1      -0.723   2.017  -1.458  0.00  0.00    +0.015 A 
ATOM     14  C   UNL     1       0.332   2.183  -0.588  0.00  0.00    +0.046 A 
ATOM     15  C   UNL     1       0.123   2.760   0.659  0.00  0.00    +0.120 A 
ATOM     16  C   UNL     1      -1.150   3.171   1.034  0.00  0.00    +0.046 A 
ATOM     17  C   UNL     1      -2.210   3.015   0.168  0.00  0.00    +0.015 A 
BRANCH  15  18
ATOM     18  O   UNL     1       1.166   2.921   1.514  0.00  0.00    -0.495 OA
ATOM     19  C   UNL     1       0.881   3.521   2.779  0.00  0.00    +0.277 C 
ENDBRANCH  15  18
ENDBRANCH  11  12
BRANCH   1  20
ATOM     20  O   UNL     1      -2.425   0.027  -2.408  0.00  0.00    -0.472 OA
BRANCH  20  21
ATOM     21  C   UNL     1      -2.957  -1.167  -1.831  0.00  0.00    +0.259 C 
BRANCH  21  22
ATOM     22  C   UNL     1      -2.224  -2.362  -2.381  0.00  0.00    +0.258 C 
ATOM     23  O   UNL     1      -1.263  -2.204  -3.104  0.00  0.00    -0.271 OA
ATOM     24  N   UNL     1      -2.635  -3.607  -2.069  0.00  0.00    -0.282 N 
ATOM     25  H   UNL     1      -3.441  -3.735  -1.545  0.00  0.00    +0.155 HD
BRANCH  24  26
ATOM     26  C   UNL     1      -1.898  -4.716  -2.502  0.00  0.00    +0.034 A 
ATOM     27  C   UNL     1      -0.515  -4.641  -2.590  0.00  0.00    +0.024 A 
ATOM     28  C   UNL     1       0.210  -5.737  -3.016  0.00  0.00    +0.017 A 
ATOM     29  C   UNL     1      -0.442  -6.909  -3.356  0.00  0.00    +0.018 A 
ATOM     30  C   UNL     1      -1.821  -6.987  -3.269  0.00  0.00    +0.017 A 
ATOM     31  C   UNL     1      -2.550  -5.896  -2.838  0.00  0.00    +0.024 A 
ATOM     32 BR   UNL     1       0.553  -8.407  -3.940  0.00  0.00    -0.050 Br
ENDBRANCH  24  26
ENDBRANCH  21  22
BRANCH  21  34
ATOM     33  C   UNL     1      -3.601   0.046   0.257  0.00  0.00    +0.008 C 
ATOM     34  C   UNL     1      -2.786  -1.118  -0.311  0.00  0.00    +0.051 C 
ENDBRANCH  21  34
ENDBRANCH  20  21
ENDBRANCH   1  20
TORSDOF 7
