REMARK  Name = ZINC36065725
REMARK  11 active torsions:
REMARK  status: ('A' for Active; 'I' for Inactive)
REMARK    1  A    between atoms: C_1  and  C_2
REMARK    2  A    between atoms: C_5  and  C_8
REMARK    3  A    between atoms: C_8  and  N_9
REMARK    4  A    between atoms: N_9  and  C_10
REMARK    5  A    between atoms: N_9  and  C_20
REMARK    6  A    between atoms: C_10  and  C_11
REMARK    7  A    between atoms: C_20  and  C_21
REMARK    8  A    between atoms: C_23  and  C_26
REMARK    9  A    between atoms: N_28  and  C_29
REMARK   10  A    between atoms: C_29  and  C_30
REMARK   11  A    between atoms: C_29  and  C_31
REMARK                            x       y       z     vdW  Elec       q    Type
REMARK                         _______ _______ _______ _____ _____    ______ ____
ROOT
ATOM      1  N   UNL     1       1.437  -4.512  -0.068  0.00  0.00    +0.391 N 
ATOM      2  H   UNL     1       2.013  -4.041  -0.750  0.00  0.00    -0.080 HD
ENDROOT
BRANCH   1   3
ATOM      3  C   UNL     1       0.105  -3.894  -0.041  0.00  0.00    -0.042 C 
BRANCH   3   8
ATOM      4  C   UNL     1       0.631   1.778   0.931  0.00  0.00    +0.044 C 
ATOM      5  C   UNL     1       0.494   0.299   0.678  0.00  0.00    -0.050 A 
ATOM      6  C   UNL     1       0.626  -0.197  -0.606  0.00  0.00    +0.003 A 
ATOM      7  C   UNL     1       0.500  -1.554  -0.838  0.00  0.00    +0.002 A 
ATOM      8  C   UNL     1       0.243  -2.415   0.213  0.00  0.00    -0.064 A 
ATOM      9  C   UNL     1       0.112  -1.918   1.496  0.00  0.00    +0.002 A 
ATOM     10  C   UNL     1       0.242  -0.562   1.729  0.00  0.00    +0.003 A 
ENDBRANCH   3   8
ENDBRANCH   1   3
BRANCH   1  11
ATOM     11  C   UNL     1       1.312  -5.930  -0.430  0.00  0.00    -0.042 C 
BRANCH  11  12
ATOM     12  C   UNL     1       0.789  -6.045  -1.839  0.00  0.00    -0.060 A 
ATOM     13  C   UNL     1      -0.573  -6.098  -2.068  0.00  0.00    +0.005 A 
ATOM     14  C   UNL     1      -1.057  -6.202  -3.358  0.00  0.00    +0.050 A 
ATOM     15  C   UNL     1      -0.177  -6.255  -4.427  0.00  0.00    +0.166 A 
ATOM     16  C   UNL     1       1.196  -6.201  -4.197  0.00  0.00    +0.166 A 
ATOM     17  C   UNL     1       1.673  -6.090  -2.901  0.00  0.00    +0.051 A 
ATOM     18  O   UNL     1       1.843  -6.269  -5.397  0.00  0.00    -0.453 OA
ATOM     19  C   UNL     1       0.869  -6.775  -6.330  0.00  0.00    +0.466 C 
ATOM     20  O   UNL     1      -0.390  -6.356  -5.771  0.00  0.00    -0.453 OA
ENDBRANCH  11  12
ENDBRANCH   1  11
BRANCH   1  21
ATOM     21  C   UNL     1       2.058  -4.399   1.258  0.00  0.00    +0.020 C 
BRANCH  21  22
ATOM     22  C   UNL     1       3.475  -4.908   1.196  0.00  0.00    +0.179 A 
ATOM     23  N   UNL     1       4.526  -4.181   0.959  0.00  0.00    -0.210 NA
ATOM     24  C   UNL     1       5.621  -4.987   0.982  0.00  0.00    +0.163 A 
ATOM     25  C   UNL     1       5.185  -6.249   1.246  0.00  0.00    +0.230 A 
ATOM     26  O   UNL     1       3.851  -6.181   1.381  0.00  0.00    -0.449 OA
BRANCH  24  27
ATOM     27  C   UNL     1       7.019  -4.572   0.762  0.00  0.00    +0.266 C 
ATOM     28  O   UNL     1       7.901  -5.408   0.716  0.00  0.00    -0.268 OA
ATOM     29  N   UNL     1       7.318  -3.267   0.611  0.00  0.00    -0.308 N 
ATOM     30  H   UNL     1       6.628  -2.595   0.725  0.00  0.00    +0.149 HD
BRANCH  29  31
ATOM     31  C   UNL     1       8.686  -2.863   0.276  0.00  0.00    +0.067 C 
ATOM     32  C   UNL     1       8.876  -2.915  -1.241  0.00  0.00    +0.027 C 
ATOM     33  C   UNL     1       8.933  -1.437   0.772  0.00  0.00    +0.027 C 
ENDBRANCH  29  31
ENDBRANCH  24  27
ENDBRANCH  21  22
ENDBRANCH   1  21
TORSDOF 8
