REMARK  Name = ZINC37524005
REMARK  13 active torsions:
REMARK  status: ('A' for Active; 'I' for Inactive)
REMARK    1  A    between atoms: C_1  and  C_2
REMARK    2  A    between atoms: C_5  and  C_8
REMARK    3  A    between atoms: N_10  and  C_11
REMARK    4  A    between atoms: N_10  and  C_34
REMARK    5  A    between atoms: C_11  and  C_12
REMARK    6  A    between atoms: N_15  and  C_25
REMARK    7  A    between atoms: C_17  and  C_19
REMARK    8  A    between atoms: C_25  and  C_26
REMARK    9  A    between atoms: C_30  and  O_32
REMARK   10  A    between atoms: O_32  and  C_33
REMARK   11  A    between atoms: C_34  and  C_35
REMARK   12  A    between atoms: C_35  and  C_36
REMARK   13  A    between atoms: C_35  and  C_37
REMARK                            x       y       z     vdW  Elec       q    Type
REMARK                         _______ _______ _______ _____ _____    ______ ____
ROOT
ATOM      1  C   UNL     1       1.782  -6.438   0.675  0.00  0.00    -0.005 C 
ATOM      2  C   UNL     1       2.459  -6.736  -0.679  0.00  0.00    -0.073 C 
ATOM      3  N   UNL     1       3.350  -7.893  -0.405  0.00  0.00    +0.383 N 
ATOM      4  C   UNL     1       2.558  -8.755   0.509  0.00  0.00    -0.070 C 
ATOM      5  C   UNL     1       1.846  -7.764   1.460  0.00  0.00    +0.005 C 
ATOM      6  H   UNL     1       4.199  -7.586   0.046  0.00  0.00    -0.081 HD
ENDROOT
BRANCH   5   7
ATOM      7  C   UNL     1       0.457  -8.251   1.780  0.00  0.00    -0.046 A 
ATOM      8  C   UNL     1      -0.042  -8.124   3.063  0.00  0.00    +0.004 A 
ATOM      9  C   UNL     1      -1.317  -8.570   3.357  0.00  0.00    +0.000 A 
ATOM     10  C   UNL     1      -2.093  -9.145   2.367  0.00  0.00    +0.000 A 
ATOM     11  C   UNL     1      -1.595  -9.271   1.084  0.00  0.00    +0.000 A 
ATOM     12  C   UNL     1      -0.322  -8.821   0.789  0.00  0.00    +0.004 A 
ENDBRANCH   5   7
BRANCH   1  13
ATOM     13  C   UNL     1       0.326  -6.018   0.460  0.00  0.00    +0.110 C 
BRANCH  13  16
ATOM     14  C   UNL     1       0.285  -4.564  -1.495  0.00  0.00    +0.247 C 
ATOM     15  O   UNL     1       0.195  -5.552  -2.196  0.00  0.00    -0.270 OA
ATOM     16  N   UNL     1       0.287  -4.688  -0.152  0.00  0.00    -0.297 N 
BRANCH  14  21
ATOM     17  C   UNL     1       0.703   0.646  -3.902  0.00  0.00    +0.044 C 
ATOM     18  C   UNL     1       0.594  -0.718  -3.272  0.00  0.00    -0.050 A 
ATOM     19  C   UNL     1      -0.338  -0.943  -2.274  0.00  0.00    +0.004 A 
ATOM     20  C   UNL     1      -0.444  -2.190  -1.693  0.00  0.00    +0.013 A 
ATOM     21  C   UNL     1       0.392  -3.225  -2.113  0.00  0.00    +0.037 A 
ATOM     22  C   UNL     1       1.330  -2.992  -3.120  0.00  0.00    +0.013 A 
ATOM     23  C   UNL     1       1.421  -1.742  -3.697  0.00  0.00    +0.004 A 
ENDBRANCH  14  21
BRANCH  16  24
ATOM     24  C   UNL     1       0.250  -3.492   0.694  0.00  0.00    +0.111 C 
BRANCH  24  25
ATOM     25  C   UNL     1      -1.189  -3.230   1.142  0.00  0.00    +0.000 C 
ATOM     26  C   UNL     1      -1.649  -4.359   2.067  0.00  0.00    +0.009 C 
ATOM     27  C   UNL     1      -1.254  -1.898   1.893  0.00  0.00    +0.009 C 
ENDBRANCH  24  25
ENDBRANCH  16  24
ENDBRANCH  13  16
ENDBRANCH   1  13
BRANCH   3  28
ATOM     28  C   UNL     1       3.658  -8.611  -1.649  0.00  0.00    -0.043 C 
BRANCH  28  29
ATOM     29  C   UNL     1       4.657  -9.703  -1.366  0.00  0.00    -0.060 A 
ATOM     30  C   UNL     1       6.012  -9.438  -1.449  0.00  0.00    +0.002 A 
ATOM     31  C   UNL     1       6.931 -10.437  -1.190  0.00  0.00    +0.004 A 
ATOM     32  C   UNL     1       6.498 -11.704  -0.847  0.00  0.00    +0.045 A 
ATOM     33  C   UNL     1       5.140 -11.972  -0.762  0.00  0.00    +0.120 A 
ATOM     34  C   UNL     1       4.219 -10.965  -1.017  0.00  0.00    +0.047 A 
BRANCH  33  35
ATOM     35  O   UNL     1       4.711 -13.216  -0.425  0.00  0.00    -0.495 OA
ATOM     36  C   UNL     1       5.715 -14.201  -0.171  0.00  0.00    +0.277 C 
ENDBRANCH  33  35
ENDBRANCH  28  29
ENDBRANCH   3  28
TORSDOF 9
