REMARK  Name = ZINC27569560
REMARK  15 active torsions:
REMARK  status: ('A' for Active; 'I' for Inactive)
REMARK    1  A    between atoms: C_1  and  C_2
REMARK    2  A    between atoms: C_2  and  C_3
REMARK    3  A    between atoms: C_2  and  C_4
REMARK    4  A    between atoms: C_4  and  C_6
REMARK    5  A    between atoms: C_4  and  N_23
REMARK    6  A    between atoms: N_8  and  C_9
REMARK    7  A    between atoms: C_9  and  C_10
REMARK    8  A    between atoms: C_10  and  C_12
REMARK    9  A    between atoms: C_10  and  N_20
REMARK   10  A    between atoms: C_17  and  O_18
REMARK   11  A    between atoms: O_18  and  C_19
REMARK   12  A    between atoms: N_20  and  C_21
REMARK   13  A    between atoms: N_20  and  C_22
REMARK   14  A    between atoms: N_23  and  S_24
REMARK   15  A    between atoms: S_24  and  C_27
REMARK                            x       y       z     vdW  Elec       q    Type
REMARK                         _______ _______ _______ _____ _____    ______ ____
ROOT
ATOM      1  C   UNL     1      -1.213   2.766   2.587  0.00  0.00    +0.165 C 
ENDROOT
BRANCH   1   2
ATOM      2  C   UNL     1      -1.120   2.081   3.925  0.00  0.00    +0.232 C 
ATOM      3  O   UNL     1      -1.649   1.003   4.093  0.00  0.00    -0.274 OA
ATOM      4  N   UNL     1      -0.448   2.666   4.937  0.00  0.00    -0.315 N 
ATOM      5  H   UNL     1      -0.041   3.681   4.812  0.00  0.00    +0.149 HD
BRANCH   4   6
ATOM      6  C   UNL     1      -0.260   1.952   6.202  0.00  0.00    +0.093 C 
BRANCH   6   7
ATOM      7  C   UNL     1       0.413   2.879   7.216  0.00  0.00    -0.017 C 
BRANCH   7   8
ATOM      8  C   UNL     1      -0.526   4.004   7.568  0.00  0.00    -0.018 A 
ATOM      9  C   UNL     1      -0.435   5.213   6.906  0.00  0.00    +0.005 A 
ATOM     10  C   UNL     1      -1.299   6.245   7.226  0.00  0.00    +0.000 A 
ATOM     11  C   UNL     1      -2.250   6.072   8.215  0.00  0.00    +0.004 A 
ATOM     12  C   UNL     1      -2.341   4.866   8.883  0.00  0.00    +0.046 A 
ATOM     13  C   UNL     1      -1.479   3.828   8.561  0.00  0.00    +0.122 A 
BRANCH  13  14
ATOM     14  O   UNL     1      -1.567   2.641   9.217  0.00  0.00    -0.495 OA
ATOM     15  C   UNL     1      -2.572   2.532  10.227  0.00  0.00    +0.277 C 
ENDBRANCH  13  14
ENDBRANCH   7   8
BRANCH   7  16
ATOM     16  N   UNL     1       1.643   3.432   6.633  0.00  0.00    +0.382 N 
ATOM     17  C   UNL     1       2.402   4.195   7.633  0.00  0.00    -0.096 C 
ATOM     18  C   UNL     1       2.469   2.370   6.043  0.00  0.00    -0.096 C 
ATOM     19  H   UNL     1       1.354   4.123   5.828  0.00  0.00    -0.082 HD
ENDBRANCH   7  16
ENDBRANCH   6   7
ENDBRANCH   4   6
ENDBRANCH   1   2
BRANCH   1  21
ATOM     20  C   UNL     1      -2.259   4.658   1.334  0.00  0.00    +0.009 C 
ATOM     21  C   UNL     1      -2.222   3.913   2.670  0.00  0.00    +0.010 C 
ATOM     22  C   UNL     1      -3.611   3.350   2.979  0.00  0.00    +0.009 C 
ENDBRANCH   1  21
BRANCH   1  23
ATOM     23  N   UNL     1      -1.653   1.802   1.574  0.00  0.00    -0.178 NA
ATOM     24  H   UNL     1      -2.541   1.179   1.757  0.00  0.00    +0.149 HD
BRANCH  23  25
ATOM     25  S   UNL     1      -0.685   1.470   0.272  0.00  0.00    +0.059 S 
ATOM     26  O   UNL     1      -0.353   2.720  -0.316  0.00  0.00    -0.153 OA
ATOM     27  O   UNL     1      -1.326   0.431  -0.455  0.00  0.00    -0.153 OA
BRANCH  25  28
ATOM     28  C   UNL     1       0.817   0.793   0.899  0.00  0.00    +0.106 A 
ATOM     29  C   UNL     1       1.878   1.643   1.205  0.00  0.00    +0.029 A 
ATOM     30  C   UNL     1       3.053   1.153   1.686  0.00  0.00    +0.010 A 
ATOM     31  C   UNL     1       3.202  -0.232   1.876  0.00  0.00    -0.018 A 
ATOM     32  C   UNL     1       4.400  -0.775   2.369  0.00  0.00    +0.008 A 
ATOM     33  C   UNL     1       4.509  -2.121   2.541  0.00  0.00    +0.001 A 
ATOM     34  C   UNL     1       3.448  -2.971   2.235  0.00  0.00    +0.001 A 
ATOM     35  C   UNL     1       2.273  -2.481   1.755  0.00  0.00    +0.008 A 
ATOM     36  C   UNL     1       2.123  -1.096   1.565  0.00  0.00    -0.016 A 
ATOM     37  C   UNL     1       0.925  -0.552   1.071  0.00  0.00    +0.037 A 
ENDBRANCH  25  28
ENDBRANCH  23  25
ENDBRANCH   1  23
TORSDOF 10
