REMARK  Name = ZINC40173498
REMARK  11 active torsions:
REMARK  status: ('A' for Active; 'I' for Inactive)
REMARK    1  A    between atoms: C_1  and  C_2
REMARK    2  A    between atoms: C_2  and  C_3
REMARK    3  A    between atoms: C_3  and  C_5
REMARK    4  A    between atoms: C_3  and  N_17
REMARK    5  A    between atoms: N_7  and  C_8
REMARK    6  A    between atoms: C_9  and  C_15
REMARK    7  A    between atoms: C_10  and  C_14
REMARK    8  A    between atoms: C_11  and  C_13
REMARK    9  A    between atoms: C_21  and  S_22
REMARK   10  A    between atoms: S_22  and  C_23
REMARK   11  A    between atoms: C_23  and  C_24
REMARK                            x       y       z     vdW  Elec       q    Type
REMARK                         _______ _______ _______ _____ _____    ______ ____
ROOT
ATOM      1  C   UNL     1       0.718  -0.497  -1.257  0.00  0.00    +0.178 C 
ENDROOT
BRANCH   1   2
ATOM      2  N   UNL     1       2.125  -0.091  -1.209  0.00  0.00    -0.279 N 
ATOM      3  C   UNL     1       3.032  -0.447  -0.252  0.00  0.00    +0.216 A 
ATOM      4  N   UNL     1       4.179   0.110  -0.553  0.00  0.00    -0.113 NA
ATOM      5  N   UNL     1       4.008   0.843  -1.734  0.00  0.00    -0.121 NA
ATOM      6  C   UNL     1       2.762   0.706  -2.119  0.00  0.00    +0.194 A 
ATOM      7  N   UNL     1       2.781  -1.258   0.848  0.00  0.00    -0.328 N 
ATOM      8  H   UNL     1       1.895  -1.626   0.988  0.00  0.00    +0.145 HD
ATOM      9  H   UNL     1       3.493  -1.455   1.477  0.00  0.00    +0.145 HD
BRANCH   6  10
ATOM     10  S   UNL     1       2.035   1.426  -3.553  0.00  0.00    -0.071 S 
BRANCH  10  11
ATOM     11  C   UNL     1       3.396   2.352  -4.316  0.00  0.00    +0.195 C 
BRANCH  11  12
ATOM     12  C   UNL     1       2.915   3.010  -5.542  0.00  0.00    +0.074 C 
ATOM     13  N   UNL     1       2.543   3.518  -6.488  0.00  0.00    -0.196 NA
ENDBRANCH  11  12
ENDBRANCH  10  11
ENDBRANCH   6  10
ENDBRANCH   1   2
BRANCH   1  14
ATOM     14  C   UNL     1       0.632  -2.000  -1.327  0.00  0.00    +0.241 C 
ATOM     15  O   UNL     1       1.645  -2.666  -1.337  0.00  0.00    -0.273 OA
ATOM     16  N   UNL     1      -0.572  -2.604  -1.380  0.00  0.00    -0.277 N 
ATOM     17  H   UNL     1      -1.383  -2.072  -1.372  0.00  0.00    +0.155 HD
BRANCH  16  18
ATOM     18  C   UNL     1      -0.652  -3.989  -1.445  0.00  0.00    +0.090 A 
ATOM     19  C   UNL     1      -1.792  -4.774  -1.510  0.00  0.00    +0.083 A 
ATOM     20  C   UNL     1      -1.590  -6.203  -1.571  0.00  0.00    -0.021 A 
ATOM     21  C   UNL     1      -0.308  -6.616  -1.557  0.00  0.00    -0.007 A 
ATOM     22  S   UNL     1       0.610  -5.094  -1.470  0.00  0.00    -0.077 S 
ATOM     23  C   UNL     1       0.221  -8.026  -1.607  0.00  0.00    +0.052 C 
ATOM     24  C   UNL     1      -2.742  -7.172  -1.644  0.00  0.00    +0.046 C 
BRANCH  19  25
ATOM     25  C   UNL     1      -3.103  -4.199  -1.516  0.00  0.00    +0.102 C 
ATOM     26  N   UNL     1      -4.143  -3.742  -1.522  0.00  0.00    -0.191 NA
ENDBRANCH  19  25
ENDBRANCH  16  18
ENDBRANCH   1  14
BRANCH   1  28
ATOM     27  C   UNL     1      -0.019   1.526   0.010  0.00  0.00    +0.006 C 
ATOM     28  C   UNL     1       0.002  -0.004   0.002  0.00  0.00    +0.031 C 
ENDBRANCH   1  28
TORSDOF 8
