REMARK  Name = ZINC63994034
REMARK  6 active torsions:
REMARK  status: ('A' for Active; 'I' for Inactive)
REMARK    1  A    between atoms: C_4  and  C_7
REMARK    2  A    between atoms: C_7  and  C_8
REMARK    3  A    between atoms: C_8  and  N_9
REMARK    4  A    between atoms: C_12  and  C_14
REMARK    5  A    between atoms: C_19  and  O_22
REMARK    6  A    between atoms: C_27  and  C_29
REMARK                            x       y       z     vdW  Elec       q    Type
REMARK                         _______ _______ _______ _____ _____    ______ ____
ROOT
ATOM      1  N   UNL     1       5.456  -1.700   1.133  0.00  0.00    -0.267 N 
ATOM      2  C   UNL     1       5.582  -3.011   1.403  0.00  0.00    +0.046 A 
ATOM      3  C   UNL     1       6.909  -3.265   1.523  0.00  0.00    +0.023 A 
ATOM      4  C   UNL     1       7.561  -2.039   1.316  0.00  0.00    +0.152 A 
ATOM      5  N   UNL     1       6.617  -1.144   1.080  0.00  0.00    -0.166 NA
ATOM      6  C   UNL     1       7.489  -4.623   1.818  0.00  0.00    +0.147 C 
ATOM      7  N   UNL     1       6.368  -5.499   2.207  0.00  0.00    -0.295 N 
ATOM      8  C   UNL     1       5.130  -5.441   1.416  0.00  0.00    +0.114 C 
ATOM      9  C   UNL     1       4.502  -4.048   1.559  0.00  0.00    +0.074 C 
ATOM     10  C   UNL     1       6.477  -6.333   3.260  0.00  0.00    +0.242 C 
ATOM     11  O   UNL     1       7.505  -6.370   3.901  0.00  0.00    -0.273 OA
ENDROOT
BRANCH  10  12
ATOM     12  C   UNL     1       5.320  -7.221   3.640  0.00  0.00    +0.190 C 
ATOM     13  C   UNL     1       4.125  -6.380   4.034  0.00  0.00    +0.016 C 
ATOM     14  C   UNL     1       3.851  -6.698   5.320  0.00  0.00    -0.004 A 
ATOM     15  C   UNL     1       2.825  -6.234   6.262  0.00  0.00    +0.010 A 
ATOM     16  C   UNL     1       2.802  -6.748   7.512  0.00  0.00    +0.001 A 
ATOM     17  C   UNL     1       3.730  -7.712   7.930  0.00  0.00    +0.002 A 
ATOM     18  C   UNL     1       4.702  -8.187   7.122  0.00  0.00    +0.026 A 
ATOM     19  C   UNL     1       4.820  -7.716   5.786  0.00  0.00    +0.043 A 
ATOM     20  N   UNL     1       5.661  -8.017   4.825  0.00  0.00    -0.370 N 
ATOM     21  H   UNL     1       6.387  -8.657   4.886  0.00  0.00    +0.161 HD
ENDBRANCH  10  12
BRANCH   4  22
ATOM     22  C   UNL     1       9.018  -1.798   1.349  0.00  0.00    +0.267 C 
ATOM     23  O   UNL     1       9.787  -2.733   1.459  0.00  0.00    -0.268 OA
ATOM     24  N   UNL     1       9.495  -0.541   1.257  0.00  0.00    -0.296 N 
ATOM     25  C   UNL     1      10.938  -0.295   1.130  0.00  0.00    +0.110 C 
ATOM     26  C   UNL     1      11.369   0.685   2.226  0.00  0.00    +0.050 C 
ATOM     27  C   UNL     1      10.507   1.947   2.144  0.00  0.00    +0.118 C 
ATOM     28  C   UNL     1       9.039   1.580   2.376  0.00  0.00    +0.050 C 
ATOM     29  C   UNL     1       8.581   0.610   1.276  0.00  0.00    +0.110 C 
BRANCH  27  30
ATOM     30  O   UNL     1      10.928   2.877   3.145  0.00  0.00    -0.392 OA
ATOM     31  H   UNL     1      10.424   3.702   3.152  0.00  0.00    +0.210 HD
ENDBRANCH  27  30
ENDBRANCH   4  22
BRANCH   1  32
ATOM     32  C   UNL     1       4.183  -1.006   0.922  0.00  0.00    +0.148 C 
BRANCH  32  33
ATOM     33  C   UNL     1       3.815  -1.054  -0.563  0.00  0.00    +0.058 C 
BRANCH  33  37
ATOM     34  C   UNL     1       0.104   0.969  -1.180  0.00  0.00    +0.000 A 
ATOM     35  C   UNL     1       1.294   1.669  -1.258  0.00  0.00    +0.000 A 
ATOM     36  C   UNL     1       2.495   1.014  -1.058  0.00  0.00    +0.004 A 
ATOM     37  C   UNL     1       2.506  -0.340  -0.780  0.00  0.00    -0.046 A 
ATOM     38  C   UNL     1       1.316  -1.039  -0.700  0.00  0.00    +0.004 A 
ATOM     39  C   UNL     1       0.115  -0.385  -0.902  0.00  0.00    +0.000 A 
ENDBRANCH  33  37
ENDBRANCH  32  33
ENDBRANCH   1  32
TORSDOF 6
