REMARK  Name = ZINC39578291
REMARK  9 active torsions:
REMARK  status: ('A' for Active; 'I' for Inactive)
REMARK    1  A    between atoms: C_1  and  O_2
REMARK    2  A    between atoms: O_2  and  C_3
REMARK    3  A    between atoms: C_3  and  C_5
REMARK    4  A    between atoms: C_9  and  N_10
REMARK    5  A    between atoms: C_11  and  C_13
REMARK    6  A    between atoms: C_13  and  S_14
REMARK    7  A    between atoms: S_14  and  C_15
REMARK    8  A    between atoms: C_18  and  C_21
REMARK    9  A    between atoms: N_19  and  N_20
REMARK                            x       y       z     vdW  Elec       q    Type
REMARK                         _______ _______ _______ _____ _____    ______ ____
ROOT
ATOM      1  N   UNL     1      -1.283  -2.317  -2.479  0.00  0.00    -0.279 N 
ATOM      2  C   UNL     1      -1.326  -3.165  -3.525  0.00  0.00    +0.228 C 
ATOM      3  O   UNL     1      -1.370  -4.362  -3.334  0.00  0.00    -0.275 OA
ATOM      4  H   UNL     1      -1.248  -1.359  -2.632  0.00  0.00    +0.155 HD
ENDROOT
BRANCH   1   9
ATOM      5  C   UNL     1      -1.248  -2.096   0.003  0.00  0.00    +0.091 A 
ATOM      6  C   UNL     1      -1.271  -2.859   1.239  0.00  0.00    -0.021 A 
ATOM      7  C   UNL     1      -1.323  -4.197   1.062  0.00  0.00    -0.004 A 
ATOM      8  S   UNL     1      -1.342  -4.417  -0.693  0.00  0.00    -0.077 S 
ATOM      9  C   UNL     1      -1.288  -2.812  -1.185  0.00  0.00    +0.086 A 
ATOM     10  C   UNL     1      -1.357  -5.245   2.130  0.00  0.00    +0.043 C 
ATOM     11  C   UNL     1      -0.943  -4.594   3.458  0.00  0.00    +0.005 C 
ATOM     12  C   UNL     1      -1.728  -3.292   3.638  0.00  0.00    +0.005 C 
ATOM     13  C   UNL     1      -1.241  -2.246   2.631  0.00  0.00    +0.037 C 
BRANCH   5  14
ATOM     14  C   UNL     1      -1.191  -0.633   0.010  0.00  0.00    +0.342 C 
ATOM     15  O   UNL     1      -2.220   0.016   0.023  0.00  0.00    -0.245 OA
BRANCH  14  17
ATOM     16  C   UNL     1      -0.017   1.425   0.010  0.00  0.00    +0.280 C 
ATOM     17  O   UNL     1       0.002  -0.004   0.002  0.00  0.00    -0.464 OA
ENDBRANCH  14  17
ENDBRANCH   5  14
ENDBRANCH   1   9
BRANCH   2  18
ATOM     18  C   UNL     1      -1.320  -2.626  -4.933  0.00  0.00    +0.173 C 
BRANCH  18  19
ATOM     19  S   UNL     1      -1.385  -4.006  -6.109  0.00  0.00    -0.075 S 
BRANCH  19  20
ATOM     20  C   UNL     1      -1.372  -3.223  -7.687  0.00  0.00    +0.209 A 
ATOM     21  N   UNL     1      -1.319  -1.931  -7.917  0.00  0.00    -0.121 NA
ATOM     22  N   UNL     1      -1.326  -1.713  -9.183  0.00  0.00    -0.132 NA
ATOM     23  C   UNL     1      -1.383  -2.841  -9.832  0.00  0.00    +0.154 A 
ATOM     24  N   UNL     1      -1.409  -3.844  -8.902  0.00  0.00    -0.228 N 
BRANCH  23  25
ATOM     25  C   UNL     1      -1.410  -3.011 -11.329  0.00  0.00    +0.059 C 
ATOM     26  C   UNL     1      -0.141  -2.406 -11.933  0.00  0.00    +0.011 C 
ATOM     27  C   UNL     1      -0.168  -2.578 -13.453  0.00  0.00    +0.001 C 
ATOM     28  C   UNL     1      -1.395  -1.865 -14.025  0.00  0.00    +0.000 C 
ATOM     29  C   UNL     1      -2.664  -2.470 -13.421  0.00  0.00    +0.001 C 
ATOM     30  C   UNL     1      -2.637  -2.298 -11.901  0.00  0.00    +0.011 C 
ENDBRANCH  23  25
BRANCH  24  31
ATOM     31  N   UNL     1      -1.462  -5.188  -9.140  0.00  0.00    -0.295 N 
ATOM     32  H   UNL     1      -2.418  -5.508  -9.193  0.00  0.00    +0.163 HD
ATOM     33  H   UNL     1      -0.954  -5.428  -9.977  0.00  0.00    +0.163 HD
ENDBRANCH  24  31
ENDBRANCH  19  20
ENDBRANCH  18  19
ENDBRANCH   2  18
TORSDOF 8
