REMARK  Name = ZINC36750551
REMARK  11 active torsions:
REMARK  status: ('A' for Active; 'I' for Inactive)
REMARK    1  A    between atoms: C_1  and  C_2
REMARK    2  A    between atoms: C_3  and  C_35
REMARK    3  A    between atoms: C_11  and  C_13
REMARK    4  A    between atoms: C_13  and  S_14
REMARK    5  A    between atoms: S_14  and  C_15
REMARK    6  A    between atoms: C_15  and  C_17
REMARK    7  A    between atoms: C_15  and  C_18
REMARK    8  A    between atoms: N_20  and  C_21
REMARK    9  A    between atoms: C_21  and  C_22
REMARK   10  A    between atoms: C_22  and  C_24
REMARK   11  A    between atoms: C_22  and  N_30
REMARK                            x       y       z     vdW  Elec       q    Type
REMARK                         _______ _______ _______ _____ _____    ______ ____
ROOT
ATOM      1  C   UNL     1      -0.076  -7.583   5.052  0.00  0.00    +0.226 C 
ATOM      2  O   UNL     1       0.348  -7.961   3.980  0.00  0.00    -0.275 OA
ATOM      3  N   UNL     1      -0.550  -8.477   5.942  0.00  0.00    -0.316 N 
ATOM      4  H   UNL     1      -0.889  -8.175   6.799  0.00  0.00    +0.149 HD
ENDROOT
BRANCH   1   5
ATOM      5  C   UNL     1      -0.071  -6.114   5.389  0.00  0.00    +0.129 C 
ATOM      6  C   UNL     1       1.193  -5.777   6.181  0.00  0.00    +0.029 C 
BRANCH   5   7
ATOM      7  S   UNL     1      -0.103  -5.142   3.858  0.00  0.00    -0.141 S 
BRANCH   7   8
ATOM      8  C   UNL     1      -0.248  -3.427   4.429  0.00  0.00    +0.144 C 
BRANCH   8  19
ATOM      9  C   UNL     1      -0.486   1.396  -0.222  0.00  0.00    +0.045 C 
ATOM     10  C   UNL     1      -0.373  -0.107  -0.194  0.00  0.00    -0.026 A 
ATOM     11  C   UNL     1      -0.285  -0.803  -1.339  0.00  0.00    -0.008 A 
ATOM     12  S   UNL     1      -0.174  -2.494  -0.787  0.00  0.00    -0.073 S 
ATOM     13  C   UNL     1      -0.249  -2.217   0.964  0.00  0.00    +0.116 A 
ATOM     14  C   UNL     1      -0.353  -0.819   1.070  0.00  0.00    +0.075 A 
ATOM     15  C   UNL     1      -0.428  -0.303   2.405  0.00  0.00    +0.260 A 
ATOM     16  O   UNL     1      -0.525   0.896   2.601  0.00  0.00    -0.267 OA
ATOM     17  N   UNL     1      -0.391  -1.164   3.439  0.00  0.00    -0.310 N 
ATOM     18  H   UNL     1      -0.442  -0.820   4.345  0.00  0.00    +0.170 HD
ATOM     19  C   UNL     1      -0.285  -2.502   3.240  0.00  0.00    +0.121 A 
ATOM     20  N   UNL     1      -0.224  -3.004   2.035  0.00  0.00    -0.226 NA
ATOM     21  C   UNL     1      -0.281  -0.279  -2.752  0.00  0.00    +0.052 C 
ENDBRANCH   8  19
ENDBRANCH   7   8
ENDBRANCH   5   7
ENDBRANCH   1   5
BRANCH   3  22
ATOM     22  C   UNL     1      -0.555  -9.905   5.614  0.00  0.00    +0.093 C 
BRANCH  22  23
ATOM     23  C   UNL     1      -1.046 -10.704   6.823  0.00  0.00    -0.020 C 
BRANCH  23  24
ATOM     24  C   UNL     1      -2.489 -10.367   7.095  0.00  0.00    -0.059 A 
ATOM     25  C   UNL     1      -3.490 -10.960   6.347  0.00  0.00    +0.002 A 
ATOM     26  C   UNL     1      -4.814 -10.651   6.597  0.00  0.00    +0.000 A 
ATOM     27  C   UNL     1      -5.138  -9.750   7.594  0.00  0.00    +0.000 A 
ATOM     28  C   UNL     1      -4.137  -9.159   8.343  0.00  0.00    +0.000 A 
ATOM     29  C   UNL     1      -2.813  -9.471   8.096  0.00  0.00    +0.002 A 
ENDBRANCH  23  24
BRANCH  23  30
ATOM     30  N   UNL     1      -0.922 -12.141   6.543  0.00  0.00    +0.385 N 
ATOM     31  C   UNL     1      -1.470 -12.917   7.676  0.00  0.00    -0.078 C 
ATOM     32  C   UNL     1      -0.552 -14.161   7.784  0.00  0.00    -0.020 C 
ATOM     33  C   UNL     1       0.835 -13.556   7.443  0.00  0.00    -0.020 C 
ATOM     34  C   UNL     1       0.499 -12.494   6.376  0.00  0.00    -0.078 C 
ATOM     35  H   UNL     1      -1.430 -12.368   5.701  0.00  0.00    -0.081 HD
ENDBRANCH  23  30
ENDBRANCH  22  23
ENDBRANCH   3  22
TORSDOF 8
