REMARK  Name = ZINC11783893
REMARK  8 active torsions:
REMARK  status: ('A' for Active; 'I' for Inactive)
REMARK    1  A    between atoms: C_1  and  C_2
REMARK    2  A    between atoms: C_7  and  C_8
REMARK    3  A    between atoms: C_8  and  N_64
REMARK    4  A    between atoms: C_9  and  N_64
REMARK    5  A    between atoms: N_12  and  C_15
REMARK    6  A    between atoms: C_18  and  C_21
REMARK    7  A    between atoms: N_23  and  C_24
REMARK    8  A    between atoms: C_24  and  C_25
REMARK                            x       y       z     vdW  Elec       q    Type
REMARK                         _______ _______ _______ _____ _____    ______ ____
ROOT
ATOM      1  C   UNL     1       1.150   6.796   5.657  0.00  0.00    +0.030 A 
ATOM      2  C   UNL     1       1.126   7.707   4.605  0.00  0.00    +0.024 A 
ATOM      3  C   UNL     1       1.122   7.258   3.304  0.00  0.00    +0.015 A 
ATOM      4  C   UNL     1       1.140   5.886   3.040  0.00  0.00    +0.037 A 
ATOM      5  C   UNL     1       1.158   4.973   4.099  0.00  0.00    +0.015 A 
ATOM      6  C   UNL     1       1.169   5.428   5.398  0.00  0.00    +0.024 A 
ENDROOT
BRANCH   1  10
ATOM      7  C   UNL     1       0.160   7.600   9.659  0.00  0.00    -0.068 C 
ATOM      8  C   UNL     1       1.333   6.668   9.343  0.00  0.00    +0.003 C 
ATOM      9  C   UNL     1       1.181   6.131   7.918  0.00  0.00    +0.103 C 
ATOM     10  N   UNL     1       1.155   7.253   6.971  0.00  0.00    -0.330 N 
ATOM     11  C   UNL     1       0.010   8.136   7.225  0.00  0.00    +0.103 C 
ATOM     12  C   UNL     1       0.127   8.733   8.630  0.00  0.00    +0.003 C 
BRANCH   7  13
ATOM     13  N   UNL     1       0.341   8.166  11.010  0.00  0.00    +0.384 N 
ATOM     14  H   UNL     1       0.779   7.463  11.616  0.00  0.00    -0.085 HD
ATOM     15  H   UNL     1       0.945   8.994  10.952  0.00  0.00    -0.085 HD
BRANCH  13  16
ATOM     16  C   UNL     1      -0.963   8.555  11.580  0.00  0.00    -0.046 C 
BRANCH  16  23
ATOM     17  C   UNL     1      -0.085  11.290  11.884  0.00  0.00    +0.044 C 
ATOM     18  C   UNL     1      -0.328  10.437  13.102  0.00  0.00    -0.049 A 
ATOM     19  C   UNL     1      -0.131  10.965  14.365  0.00  0.00    +0.006 A 
ATOM     20  C   UNL     1      -0.354  10.184  15.483  0.00  0.00    +0.038 A 
ATOM     21  C   UNL     1      -0.775   8.873  15.339  0.00  0.00    +0.124 A 
ATOM     22  C   UNL     1      -0.977   8.347  14.074  0.00  0.00    +0.040 A 
ATOM     23  C   UNL     1      -0.748   9.128  12.957  0.00  0.00    -0.059 A 
ATOM     24  F   UNL     1      -0.993   8.108  16.431  0.00  0.00    -0.205 F 
ENDBRANCH  16  23
ENDBRANCH  13  16
ENDBRANCH   7  13
ENDBRANCH   1  10
BRANCH   4  25
ATOM     25  C   UNL     1       1.135   5.401   1.647  0.00  0.00    +0.244 C 
ATOM     26  O   UNL     1       1.114   6.196   0.727  0.00  0.00    -0.270 OA
ATOM     27  N   UNL     1       1.153   4.077   1.394  0.00  0.00    -0.307 N 
ATOM     28  H   UNL     1       1.169   3.443   2.128  0.00  0.00    +0.149 HD
BRANCH  27  29
ATOM     29  C   UNL     1       1.147   3.596   0.010  0.00  0.00    +0.140 C 
BRANCH  29  30
ATOM     30  C   UNL     1       1.171   2.089   0.002  0.00  0.00    -0.027 A 
ATOM     31  C   UNL     1       2.379   1.418  -0.011  0.00  0.00    +0.009 A 
ATOM     32  C   UNL     1       2.405   0.036  -0.020  0.00  0.00    +0.050 A 
ATOM     33  C   UNL     1       1.220  -0.680  -0.013  0.00  0.00    +0.166 A 
ATOM     34  C   UNL     1       0.002  -0.004   0.002  0.00  0.00    +0.167 A 
ATOM     35  C   UNL     1      -0.017   1.381   0.010  0.00  0.00    +0.054 A 
ATOM     36  O   UNL     1      -1.007  -0.923   0.006  0.00  0.00    -0.453 OA
ATOM     37  C   UNL     1      -0.404  -2.159  -0.418  0.00  0.00    +0.466 C 
ATOM     38  O   UNL     1       0.973  -2.023  -0.018  0.00  0.00    -0.453 OA
ENDBRANCH  29  30
ENDBRANCH  27  29
ENDBRANCH   4  25
TORSDOF 7
