REMARK  Name = ZINC13669371
REMARK  15 active torsions:
REMARK  status: ('A' for Active; 'I' for Inactive)
REMARK    1  A    between atoms: C_1  and  C_2
REMARK    2  A    between atoms: C_2  and  O_3
REMARK    3  A    between atoms: O_3  and  C_4
REMARK    4  A    between atoms: C_7  and  N_10
REMARK    5  A    between atoms: N_10  and  C_11
REMARK    6  A    between atoms: N_10  and  S_27
REMARK    7  A    between atoms: C_11  and  C_12
REMARK    8  A    between atoms: N_14  and  C_15
REMARK    9  A    between atoms: C_15  and  C_16
REMARK   10  A    between atoms: C_16  and  C_17
REMARK   11  A    between atoms: C_17  and  C_18
REMARK   12  A    between atoms: C_23  and  O_24
REMARK   13  A    between atoms: O_24  and  C_25
REMARK   14  A    between atoms: C_25  and  C_26
REMARK   15  A    between atoms: S_27  and  C_30
REMARK                            x       y       z     vdW  Elec       q    Type
REMARK                         _______ _______ _______ _____ _____    ______ ____
ROOT
ATOM      1  N   UNL     1       1.085  -2.925  -1.599  0.00  0.00    -0.194 N 
ENDROOT
BRANCH   1   5
ATOM      2  C   UNL     1       4.493  -3.785  -3.840  0.00  0.00    +0.121 A 
ATOM      3  C   UNL     1       3.260  -4.280  -4.236  0.00  0.00    +0.047 A 
ATOM      4  C   UNL     1       2.130  -3.995  -3.494  0.00  0.00    +0.028 A 
ATOM      5  C   UNL     1       2.229  -3.213  -2.351  0.00  0.00    +0.052 A 
ATOM      6  C   UNL     1       3.464  -2.714  -1.958  0.00  0.00    +0.028 A 
ATOM      7  C   UNL     1       4.593  -3.004  -2.697  0.00  0.00    +0.047 A 
BRANCH   2   8
ATOM      8  O   UNL     1       5.605  -4.065  -4.571  0.00  0.00    -0.492 OA
BRANCH   8  10
ATOM      9  C   UNL     1       7.971  -3.942  -5.048  0.00  0.00    +0.048 C 
ATOM     10  C   UNL     1       6.842  -3.523  -4.104  0.00  0.00    +0.225 C 
ENDBRANCH   8  10
ENDBRANCH   2   8
ENDBRANCH   1   5
BRANCH   1  11
ATOM     11  S   UNL     1       0.989  -3.410  -0.018  0.00  0.00    +0.075 S 
ATOM     12  O   UNL     1       1.838  -4.542   0.111  0.00  0.00    -0.150 OA
ATOM     13  O   UNL     1      -0.393  -3.453   0.309  0.00  0.00    -0.150 OA
BRANCH  11  14
ATOM     14  C   UNL     1       1.700  -2.131   0.964  0.00  0.00    +0.109 A 
ATOM     15  C   UNL     1       0.930  -1.052   1.355  0.00  0.00    +0.030 A 
ATOM     16  C   UNL     1       1.487  -0.048   2.125  0.00  0.00    +0.022 A 
ATOM     17  C   UNL     1       2.815  -0.125   2.505  0.00  0.00    +0.041 A 
ATOM     18  C   UNL     1       3.585  -1.205   2.112  0.00  0.00    +0.022 A 
ATOM     19  C   UNL     1       3.027  -2.208   1.342  0.00  0.00    +0.030 A 
ATOM     20 CL   UNL     1       3.515   1.135   3.473  0.00  0.00    -0.084 Cl
ENDBRANCH  11  14
ENDBRANCH   1  11
BRANCH   1  21
ATOM     21  C   UNL     1      -0.027  -2.192  -2.209  0.00  0.00    +0.227 C 
BRANCH  21  22
ATOM     22  C   UNL     1       0.233  -0.711  -2.114  0.00  0.00    +0.232 C 
ATOM     23  O   UNL     1       1.248  -0.307  -1.588  0.00  0.00    -0.274 OA
ATOM     24  N   UNL     1      -0.661   0.164  -2.614  0.00  0.00    -0.314 N 
ATOM     25  H   UNL     1      -1.473  -0.160  -3.034  0.00  0.00    +0.149 HD
BRANCH  24  26
ATOM     26  C   UNL     1      -0.408   1.604  -2.521  0.00  0.00    +0.104 C 
BRANCH  26  27
ATOM     27  C   UNL     1      -1.570   2.368  -3.159  0.00  0.00    +0.023 C 
BRANCH  27  28
ATOM     28  C   UNL     1      -1.305   3.872  -3.062  0.00  0.00    +0.040 C 
BRANCH  28  29
ATOM     29  C   UNL     1      -2.450   4.625  -3.690  0.00  0.00    -0.006 A 
ATOM     30  C   UNL     1      -2.368   5.035  -5.007  0.00  0.00    +0.007 A 
ATOM     31  C   UNL     1      -3.419   5.722  -5.585  0.00  0.00    +0.000 A 
ATOM     32  C   UNL     1      -4.551   6.009  -4.844  0.00  0.00    +0.004 A 
ATOM     33  C   UNL     1      -4.636   5.606  -3.526  0.00  0.00    +0.046 A 
ATOM     34  C   UNL     1      -3.584   4.912  -2.945  0.00  0.00    +0.124 A 
BRANCH  34  35
ATOM     35  O   UNL     1      -3.665   4.514  -1.648  0.00  0.00    -0.492 OA
BRANCH  35  36
ATOM     36  C   UNL     1      -4.863   4.844  -0.942  0.00  0.00    +0.225 C 
ATOM     37  C   UNL     1      -4.771   4.318   0.492  0.00  0.00    +0.048 C 
ENDBRANCH  35  36
ENDBRANCH  34  35
ENDBRANCH  28  29
ENDBRANCH  27  28
ENDBRANCH  26  27
ENDBRANCH  24  26
ENDBRANCH  21  22
ENDBRANCH   1  21
TORSDOF 13
