REMARK  Name = ZINC56877767
REMARK  6 active torsions:
REMARK  status: ('A' for Active; 'I' for Inactive)
REMARK    1  A    between atoms: C_1  and  C_2
REMARK    2  A    between atoms: C_3  and  C_8
REMARK    3  A    between atoms: N_6  and  C_7
REMARK    4  A    between atoms: C_8  and  C_10
REMARK    5  A    between atoms: C_8  and  N_11
REMARK    6  A    between atoms: C_18  and  C_20
REMARK                            x       y       z     vdW  Elec       q    Type
REMARK                         _______ _______ _______ _____ _____    ______ ____
ROOT
ATOM      1  N   UNL     1      -0.319  -1.911  -3.518  0.00  0.00    -0.293 N 
ATOM      2  C   UNL     1      -0.937  -1.403  -4.603  0.00  0.00    +0.303 C 
ATOM      3  O   UNL     1      -0.872  -0.212  -4.838  0.00  0.00    -0.253 OA
ATOM      4  N   UNL     1      -1.628  -2.215  -5.427  0.00  0.00    -0.282 N 
ATOM      5  C   UNL     1      -1.709  -3.683  -5.317  0.00  0.00    +0.110 C 
ATOM      6  C   UNL     1      -3.032  -4.061  -6.029  0.00  0.00    +0.021 C 
ATOM      7  C   UNL     1      -3.052  -3.050  -7.206  0.00  0.00    +0.024 C 
ATOM      8  C   UNL     1      -2.430  -1.784  -6.581  0.00  0.00    +0.081 C 
ATOM      9  H   UNL     1      -0.371  -2.861  -3.331  0.00  0.00    +0.151 HD
ENDROOT
BRANCH   8  10
ATOM     10  C   UNL     1      -1.533  -1.088  -7.607  0.00  0.00    +0.010 C 
ATOM     11  C   UNL     1      -2.359  -0.691  -8.848  0.00  0.00    +0.005 C 
ATOM     12  C   UNL     1      -1.395  -0.927 -10.037  0.00  0.00    +0.000 C 
ATOM     13  C   UNL     1      -0.643  -2.215  -9.618  0.00  0.00    +0.000 C 
ATOM     14  C   UNL     1      -0.442  -2.057  -8.097  0.00  0.00    +0.005 C 
ENDBRANCH   8  10
BRANCH   1  15
ATOM     15  C   UNL     1       0.432  -1.028  -2.622  0.00  0.00    +0.105 C 
ATOM     16  C   UNL     1       1.851  -0.841  -3.162  0.00  0.00    +0.033 C 
BRANCH  15  19
ATOM     17  C   UNL     1       0.816   0.517   0.070  0.00  0.00    +0.065 C 
ATOM     18  C   UNL     1       0.660  -0.974  -0.083  0.00  0.00    +0.041 A 
ATOM     19  C   UNL     1       0.494  -1.643  -1.248  0.00  0.00    +0.013 A 
ATOM     20  C   UNL     1       0.391  -3.006  -0.950  0.00  0.00    +0.140 A 
ATOM     21  N   UNL     1       0.490  -3.149   0.347  0.00  0.00    -0.179 NA
ATOM     22  N   UNL     1       0.666  -1.881   0.915  0.00  0.00    -0.271 N 
ATOM     23  C   UNL     1       0.826  -1.591   2.342  0.00  0.00    +0.172 C 
ENDBRANCH  15  19
ENDBRANCH   1  15
TORSDOF 3
