REMARK  Name = ZINC38915647
REMARK  3 active torsions:
REMARK  status: ('A' for Active; 'I' for Inactive)
REMARK    1  A    between atoms: C_5  and  C_7
REMARK    2  A    between atoms: N_12  and  C_13
REMARK    3  A    between atoms: N_15  and  C_16
REMARK                            x       y       z     vdW  Elec       q    Type
REMARK                         _______ _______ _______ _____ _____    ______ ____
ROOT
ATOM      1  C   UNL     1       1.229  -2.189  -0.024  0.00  0.00    +0.194 C 
ATOM      2  N   UNL     1      -0.126  -2.738  -0.264  0.00  0.00    -0.289 N 
ATOM      3  N   UNL     1      -0.634  -3.416   0.601  0.00  0.00    -0.153 NA
ATOM      4  C   UNL     1      -0.041  -3.720   1.807  0.00  0.00    +0.203 C 
ATOM      5  N   UNL     1      -0.509  -4.446   2.806  0.00  0.00    -0.136 NA
ATOM      6  S   UNL     1       1.533  -2.873   1.662  0.00  0.00    -0.056 S 
ATOM      7  H   UNL     1      -0.594  -2.559  -1.094  0.00  0.00    +0.184 HD
ENDROOT
BRANCH   1  12
ATOM      8  C   UNL     1       0.007   1.383   0.018  0.00  0.00    +0.000 A 
ATOM      9  C   UNL     1       1.199   2.083   0.007  0.00  0.00    +0.001 A 
ATOM     10  C   UNL     1       2.401   1.401  -0.014  0.00  0.00    +0.015 A 
ATOM     11  C   UNL     1       2.411   0.018  -0.024  0.00  0.00    +0.019 A 
ATOM     12  C   UNL     1       1.219  -0.682  -0.013  0.00  0.00    -0.000 A 
ATOM     13  C   UNL     1       0.017   0.001   0.008  0.00  0.00    +0.007 A 
ATOM     14  I   UNL     1       4.233  -1.016  -0.056  0.00  0.00    -0.043 I 
ENDBRANCH   1  12
BRANCH   5  15
ATOM     15  C   UNL     1       0.235  -4.626   3.911  0.00  0.00    +0.330 C 
ATOM     16  O   UNL     1       1.339  -4.120   3.990  0.00  0.00    -0.250 OA
ATOM     17  N   UNL     1      -0.242  -5.366   4.931  0.00  0.00    -0.268 N 
ATOM     18  H   UNL     1      -1.147  -5.713   4.896  0.00  0.00    +0.156 HD
BRANCH  17  19
ATOM     19  C   UNL     1       0.568  -5.634   6.040  0.00  0.00    +0.036 A 
ATOM     20  C   UNL     1       0.475  -6.859   6.689  0.00  0.00    +0.025 A 
ATOM     21  C   UNL     1       1.276  -7.121   7.783  0.00  0.00    +0.023 A 
ATOM     22  C   UNL     1       2.170  -6.166   8.234  0.00  0.00    +0.059 A 
ATOM     23  C   UNL     1       2.264  -4.944   7.589  0.00  0.00    +0.061 A 
ATOM     24  C   UNL     1       1.469  -4.679   6.489  0.00  0.00    +0.044 A 
ATOM     25 CL   UNL     1       3.385  -3.747   8.158  0.00  0.00    -0.082 Cl
ATOM     26 CL   UNL     1       3.174  -6.499   9.610  0.00  0.00    -0.082 Cl
ENDBRANCH  17  19
ENDBRANCH   5  15
TORSDOF 3
