REMARK  Name = ZINC38592678
REMARK  5 active torsions:
REMARK  status: ('A' for Active; 'I' for Inactive)
REMARK    1  A    between atoms: C_1  and  C_2
REMARK    2  A    between atoms: C_2  and  C_3
REMARK    3  A    between atoms: C_2  and  C_4
REMARK    4  A    between atoms: C_2  and  C_5
REMARK    5  A    between atoms: N_17  and  N_18
REMARK                            x       y       z     vdW  Elec       q    Type
REMARK                         _______ _______ _______ _____ _____    ______ ____
ROOT
ATOM      1  C   UNL     1       0.718  -0.497  -1.257  0.00  0.00    -0.004 C 
ATOM      2  C   UNL     1       0.719  -2.024  -1.267  0.00  0.00    +0.008 C 
ATOM      3  C   UNL     1       1.360  -2.550  -2.559  0.00  0.00    +0.033 C 
ATOM      4  C   UNL     1       2.726  -1.878  -2.673  0.00  0.00    -0.042 C 
ATOM      5  C   UNL     1       3.881  -2.525  -2.819  0.00  0.00    +0.069 C 
ATOM      6  C   UNL     1       5.144  -1.743  -2.723  0.00  0.00    +0.089 C 
ATOM      7  N   UNL     1       6.324  -2.301  -2.810  0.00  0.00    -0.323 N 
ATOM      8  C   UNL     1       6.373  -3.629  -2.996  0.00  0.00    +0.200 C 
ATOM      9  N   UNL     1       5.324  -4.420  -3.095  0.00  0.00    -0.144 NA
ATOM     10  C   UNL     1       4.050  -4.004  -3.020  0.00  0.00    +0.273 C 
ATOM     11  O   UNL     1       3.104  -4.768  -3.108  0.00  0.00    -0.268 OA
ATOM     12  N   UNL     1       7.615  -4.210  -3.091  0.00  0.00    -0.255 N 
ATOM     13  S   UNL     1       4.621  -0.072  -2.499  0.00  0.00    -0.099 S 
ATOM     14  C   UNL     1       2.811  -0.353  -2.589  0.00  0.00    +0.080 C 
ATOM     15  C   UNL     1       2.148   0.051  -1.270  0.00  0.00    +0.023 C 
ATOM     16  H   UNL     1       7.135  -1.774  -2.742  0.00  0.00    +0.169 HD
ATOM     17  H   UNL     1       8.413  -3.662  -3.023  0.00  0.00    +0.169 HD
ENDROOT
BRANCH   1  19
ATOM     18  C   UNL     1      -0.019   1.526   0.010  0.00  0.00    +0.011 C 
ATOM     19  C   UNL     1       0.002  -0.004   0.002  0.00  0.00    -0.035 C 
ATOM     20  C   UNL     1       0.742  -0.511   1.242  0.00  0.00    +0.011 C 
ATOM     21  C   UNL     1      -1.433  -0.534   0.013  0.00  0.00    +0.011 C 
ENDBRANCH   1  19
BRANCH  12  22
ATOM     22  N   UNL     1       7.726  -5.558  -3.281  0.00  0.00    -0.254 NA
ATOM     23  H   UNL     1       8.694  -5.838  -3.331  0.00  0.00    +0.140 HD
ATOM     24  H   UNL     1       7.239  -6.066  -2.558  0.00  0.00    +0.140 HD
ENDBRANCH  12  22
TORSDOF 2
