REMARK  Name = ZINC08780681
REMARK  6 active torsions:
REMARK  status: ('A' for Active; 'I' for Inactive)
REMARK    1  A    between atoms: C_6  and  C_7
REMARK    2  A    between atoms: C_7  and  N_48
REMARK    3  A    between atoms: C_10  and  C_13
REMARK    4  A    between atoms: N_15  and  N_16
REMARK    5  A    between atoms: C_17  and  C_18
REMARK    6  A    between atoms: C_23  and  O_24
REMARK                            x       y       z     vdW  Elec       q    Type
REMARK                         _______ _______ _______ _____ _____    ______ ____
ROOT
ATOM      1  C   UNL     1       1.170   3.358   0.009  0.00  0.00    +0.235 C 
ATOM      2  O   UNL     1       0.111   3.950   0.022  0.00  0.00    -0.274 OA
ATOM      3  N   UNL     1       1.188   2.011   0.002  0.00  0.00    -0.207 N 
ATOM      4  H   UNL     1       2.035   1.537  -0.009  0.00  0.00    +0.177 HD
ENDROOT
BRANCH   1   7
ATOM      5  C   UNL     1       3.483   6.408   0.065  0.00  0.00    -0.078 C 
ATOM      6  C   UNL     1       2.166   5.631   0.012  0.00  0.00    -0.006 C 
ATOM      7  C   UNL     1       2.465   4.130   0.001  0.00  0.00    +0.073 C 
ATOM      8  C   UNL     1       3.282   3.771   1.245  0.00  0.00    -0.006 C 
ATOM      9  C   UNL     1       4.567   4.601   1.262  0.00  0.00    -0.078 C 
ATOM     10  N   UNL     1       4.210   6.036   1.297  0.00  0.00    +0.382 N 
ATOM     11  H   UNL     1       3.603   6.209   2.107  0.00  0.00    -0.081 HD
BRANCH  10  12
ATOM     12  C   UNL     1       5.432   6.856   1.429  0.00  0.00    -0.043 C 
BRANCH  12  18
ATOM     13  C   UNL     1       5.647   7.394   3.864  0.00  0.00    +0.003 A 
ATOM     14  C   UNL     1       6.195   7.170   5.113  0.00  0.00    +0.015 A 
ATOM     15  C   UNL     1       7.138   6.173   5.286  0.00  0.00    +0.018 A 
ATOM     16  C   UNL     1       7.528   5.397   4.209  0.00  0.00    +0.015 A 
ATOM     17  C   UNL     1       6.976   5.618   2.962  0.00  0.00    +0.003 A 
ATOM     18  C   UNL     1       6.034   6.615   2.790  0.00  0.00    -0.064 A 
ATOM     19 BR   UNL     1       7.893   5.870   6.993  0.00  0.00    -0.050 Br
ENDBRANCH  12  18
ENDBRANCH  10  12
ENDBRANCH   1   7
BRANCH   3  20
ATOM     20  N   UNL     1      -0.015   1.294   0.009  0.00  0.00    -0.188 NA
ATOM     21  C   UNL     1       0.002  -0.004   0.002  0.00  0.00    +0.142 C 
BRANCH  21  22
ATOM     22  C   UNL     1      -1.264  -0.758   0.010  0.00  0.00    +0.039 A 
ATOM     23  C   UNL     1      -1.249  -2.155   0.002  0.00  0.00    +0.033 A 
ATOM     24  C   UNL     1      -2.438  -2.856   0.011  0.00  0.00    +0.043 A 
ATOM     25  C   UNL     1      -3.647  -2.179   0.026  0.00  0.00    +0.043 A 
ATOM     26  C   UNL     1      -3.674  -0.797   0.034  0.00  0.00    +0.084 A 
ATOM     27  C   UNL     1      -2.489  -0.078   0.031  0.00  0.00    +0.144 A 
ATOM     28 CL   UNL     1      -5.195   0.041   0.054  0.00  0.00    -0.080 Cl
ATOM     29 CL   UNL     1      -2.419  -4.592   0.000  0.00  0.00    -0.083 Cl
BRANCH  27  30
ATOM     30  O   UNL     1      -2.514   1.280   0.044  0.00  0.00    -0.505 OA
ATOM     31  H   UNL     1      -2.532   1.682  -0.835  0.00  0.00    +0.292 HD
ENDBRANCH  27  30
ENDBRANCH  21  22
ENDBRANCH   3  20
TORSDOF 6
