REMARK  Name = ZINC40148084
REMARK  6 active torsions:
REMARK  status: ('A' for Active; 'I' for Inactive)
REMARK    1  A    between atoms: C_1  and  C_2
REMARK    2  A    between atoms: C_2  and  C_3
REMARK    3  A    between atoms: C_6  and  C_30
REMARK    4  A    between atoms: C_9  and  C_11
REMARK    5  A    between atoms: C_13  and  C_24
REMARK    6  A    between atoms: C_35  and  C_36
REMARK                            x       y       z     vdW  Elec       q    Type
REMARK                         _______ _______ _______ _____ _____    ______ ____
ROOT
ATOM      1  C   UNL     1      -0.291  -5.142  -0.095  0.00  0.00    +0.152 C 
ATOM      2  C   UNL     1       1.171  -4.872   0.202  0.00  0.00    -0.014 C 
ATOM      3  C   UNL     1       2.106  -5.368  -0.711  0.00  0.00    +0.002 A 
ATOM      4  C   UNL     1       3.487  -5.162  -0.510  0.00  0.00    +0.030 A 
ATOM      5  C   UNL     1       4.377  -5.656  -1.415  0.00  0.00    +0.042 A 
ATOM      6  C   UNL     1       3.951  -6.362  -2.538  0.00  0.00    +0.022 A 
ATOM      7  C   UNL     1       2.631  -6.592  -2.785  0.00  0.00    +0.025 A 
ATOM      8  C   UNL     1       1.656  -6.111  -1.893  0.00  0.00    +0.041 A 
ATOM      9  N   UNL     1       0.361  -6.338  -2.136  0.00  0.00    -0.284 N 
ATOM     10  C   UNL     1      -0.611  -5.921  -1.350  0.00  0.00    +0.230 C 
ATOM     11  O   UNL     1      -1.769  -6.165  -1.636  0.00  0.00    -0.274 OA
ATOM     12 CL   UNL     1       6.076  -5.401  -1.164  0.00  0.00    -0.084 Cl
ATOM     13  H   UNL     1       0.125  -6.836  -2.934  0.00  0.00    +0.155 HD
ENDROOT
BRANCH   1  19
ATOM     14  C   UNL     1      -0.930  -0.297  -0.298  0.00  0.00    +0.235 C 
ATOM     15  O   UNL     1      -1.777   0.569  -0.372  0.00  0.00    -0.274 OA
ATOM     16  N   UNL     1      -1.294  -1.595  -0.275  0.00  0.00    -0.185 N 
ATOM     17  C   UNL     1      -2.676  -2.100  -0.339  0.00  0.00    +0.137 C 
ATOM     18  C   UNL     1      -2.496  -3.630  -0.276  0.00  0.00    +0.083 C 
ATOM     19  C   UNL     1      -0.998  -3.814  -0.182  0.00  0.00    +0.055 C 
ATOM     20  N   UNL     1      -0.425  -2.681  -0.194  0.00  0.00    -0.185 NA
BRANCH  17  21
ATOM     21  C   UNL     1      -3.477  -1.606   0.839  0.00  0.00    -0.022 A 
ATOM     22  C   UNL     1      -2.831  -1.126   1.962  0.00  0.00    +0.006 A 
ATOM     23  C   UNL     1      -3.565  -0.673   3.042  0.00  0.00    +0.000 A 
ATOM     24  C   UNL     1      -4.947  -0.701   2.998  0.00  0.00    +0.000 A 
ATOM     25  C   UNL     1      -5.593  -1.180   1.874  0.00  0.00    +0.004 A 
ATOM     26  C   UNL     1      -4.858  -1.629   0.793  0.00  0.00    -0.045 A 
ATOM     27  C   UNL     1      -5.563  -2.146  -0.435  0.00  0.00    +0.044 C 
ENDBRANCH  17  21
BRANCH  14  29
ATOM     28  C   UNL     1       0.665   1.601  -0.275  0.00  0.00    +0.013 C 
ATOM     29  C   UNL     1       0.528   0.078  -0.232  0.00  0.00    +0.094 C 
ENDBRANCH  14  29
ENDBRANCH   1  19
BRANCH   2  30
ATOM     30  C   UNL     1       1.572  -4.149   1.354  0.00  0.00    -0.020 A 
ATOM     31  C   UNL     1       2.251  -2.927   1.222  0.00  0.00    +0.008 A 
ATOM     32  C   UNL     1       2.636  -2.233   2.347  0.00  0.00    +0.001 A 
ATOM     33  C   UNL     1       2.355  -2.736   3.607  0.00  0.00    +0.000 A 
ATOM     34  C   UNL     1       1.685  -3.941   3.749  0.00  0.00    +0.001 A 
ATOM     35  C   UNL     1       1.286  -4.648   2.636  0.00  0.00    +0.008 A 
ENDBRANCH   2  30
TORSDOF 4
