REMARK  Name = ZINC36358065
REMARK  7 active torsions:
REMARK  status: ('A' for Active; 'I' for Inactive)
REMARK    1  A    between atoms: C_1  and  N_2
REMARK    2  A    between atoms: N_21  and  C_22
REMARK    3  A    between atoms: C_22  and  C_23
REMARK    4  A    between atoms: C_23  and  C_25
REMARK    5  A    between atoms: C_23  and  N_30
REMARK    6  A    between atoms: N_30  and  C_31
REMARK    7  A    between atoms: N_30  and  C_32
REMARK                            x       y       z     vdW  Elec       q    Type
REMARK                         _______ _______ _______ _____ _____    ______ ____
ROOT
ATOM      1  C   UNL     1       0.440  -0.335  -1.456  0.00  0.00    +0.138 C 
ATOM      2  N   UNL     1       0.346  -1.613  -0.747  0.00  0.00    -0.271 N 
ATOM      3  C   UNL     1      -0.843  -2.275  -0.500  0.00  0.00    +0.043 A 
ATOM      4  C   UNL     1      -2.147  -1.912  -0.842  0.00  0.00    +0.024 A 
ATOM      5  C   UNL     1      -3.164  -2.774  -0.464  0.00  0.00    +0.002 A 
ATOM      6  C   UNL     1      -2.913  -3.946   0.222  0.00  0.00    +0.001 A 
ATOM      7  C   UNL     1      -1.619  -4.319   0.568  0.00  0.00    +0.010 A 
ATOM      8  C   UNL     1      -0.601  -3.466   0.195  0.00  0.00    +0.024 A 
ATOM      9  C   UNL     1       0.880  -3.543   0.396  0.00  0.00    +0.208 C 
ATOM     10  C   UNL     1       1.410  -2.285  -0.261  0.00  0.00    +0.266 C 
ATOM     11  O   UNL     1       2.572  -1.945  -0.335  0.00  0.00    -0.271 OA
ATOM     12  N   UNL     1       1.437  -4.717  -0.279  0.00  0.00    -0.312 N 
ATOM     13  C   UNL     1       1.375  -5.952   0.358  0.00  0.00    +0.041 A 
ATOM     14  C   UNL     1       1.339  -7.138  -0.356  0.00  0.00    +0.024 A 
ATOM     15  C   UNL     1       1.291  -8.342   0.320  0.00  0.00    +0.002 A 
ATOM     16  C   UNL     1       1.280  -8.372   1.706  0.00  0.00    +0.001 A 
ATOM     17  C   UNL     1       1.311  -7.200   2.432  0.00  0.00    +0.015 A 
ATOM     18  C   UNL     1       1.354  -5.978   1.764  0.00  0.00    +0.058 A 
ATOM     19  C   UNL     1       1.364  -4.700   2.497  0.00  0.00    +0.251 C 
ATOM     20  O   UNL     1       1.504  -4.687   3.705  0.00  0.00    -0.270 OA
ATOM     21  N   UNL     1       1.217  -3.545   1.817  0.00  0.00    -0.266 N 
ATOM     22  H   UNL     1       1.842  -4.636  -1.157  0.00  0.00    +0.149 HD
ENDROOT
BRANCH  21  23
ATOM     23  C   UNL     1       1.398  -2.270   2.515  0.00  0.00    +0.101 C 
BRANCH  23  24
ATOM     24  C   UNL     1       0.113  -1.911   3.263  0.00  0.00    -0.014 C 
BRANCH  24  25
ATOM     25  C   UNL     1      -0.364  -3.107   4.046  0.00  0.00    -0.022 A 
ATOM     26  C   UNL     1      -0.220  -3.375   5.367  0.00  0.00    +0.009 A 
ATOM     27  C   UNL     1      -0.745  -4.549   5.874  0.00  0.00    +0.008 A 
ATOM     28  C   UNL     1      -1.389  -5.397   5.035  0.00  0.00    +0.045 A 
ATOM     29  S   UNL     1      -1.271  -4.535   3.476  0.00  0.00    -0.103 S 
ENDBRANCH  24  25
BRANCH  24  30
ATOM     30  N   UNL     1      -0.921  -1.514   2.298  0.00  0.00    +0.382 N 
ATOM     31  C   UNL     1      -2.195  -1.310   3.001  0.00  0.00    -0.096 C 
ATOM     32  C   UNL     1      -0.520  -0.265   1.636  0.00  0.00    -0.096 C 
ATOM     33  H   UNL     1      -1.032  -2.241   1.606  0.00  0.00    -0.082 HD
ENDBRANCH  24  30
ENDBRANCH  23  24
ENDBRANCH  21  23
TORSDOF 4
