REMARK  Name = ZINC64057388
REMARK  6 active torsions:
REMARK  status: ('A' for Active; 'I' for Inactive)
REMARK    1  A    between atoms: C_1  and  C_2
REMARK    2  A    between atoms: C_14  and  C_27
REMARK    3  A    between atoms: N_17  and  C_18
REMARK    4  A    between atoms: C_18  and  C_19
REMARK    5  A    between atoms: C_19  and  C_20
REMARK    6  A    between atoms: N_25  and  C_26
REMARK                            x       y       z     vdW  Elec       q    Type
REMARK                         _______ _______ _______ _____ _____    ______ ____
ROOT
ATOM      1  C   UNL     1      -0.019   1.526   0.010  0.00  0.00    +0.026 C 
ATOM      2  C   UNL     1       0.002  -0.004   0.002  0.00  0.00    +0.080 C 
ATOM      3  C   UNL     1      -1.431  -0.539   0.027  0.00  0.00    +0.124 C 
ATOM      4  C   UNL     1      -2.012  -0.142   1.379  0.00  0.00    -0.028 C 
ATOM      5  C   UNL     1      -3.137   0.511   1.127  0.00  0.00    -0.000 A 
ATOM      6  C   UNL     1      -4.174   1.061   2.016  0.00  0.00    +0.010 A 
ATOM      7  C   UNL     1      -5.210   1.696   1.408  0.00  0.00    +0.001 A 
ATOM      8  C   UNL     1      -5.319   1.838   0.021  0.00  0.00    +0.002 A 
ATOM      9  C   UNL     1      -4.416   1.359  -0.872  0.00  0.00    +0.026 A 
ATOM     10  C   UNL     1      -3.284   0.667  -0.353  0.00  0.00    +0.043 A 
ATOM     11  N   UNL     1      -2.283   0.085  -0.985  0.00  0.00    -0.376 N 
ATOM     12  C   UNL     1      -1.277  -0.419   2.668  0.00  0.00    +0.063 C 
ATOM     13  C   UNL     1       0.171   0.058   2.449  0.00  0.00    +0.097 C 
ATOM     14  N   UNL     1       0.702  -0.497   1.199  0.00  0.00    -0.296 NA
ATOM     15  H   UNL     1      -2.129   0.072  -1.943  0.00  0.00    +0.160 HD
ENDROOT
BRANCH  12  16
ATOM     16  C   UNL     1      -1.911   0.347   3.801  0.00  0.00    -0.021 A 
ATOM     17  C   UNL     1      -1.978   1.727   3.750  0.00  0.00    +0.006 A 
ATOM     18  C   UNL     1      -2.559   2.430   4.788  0.00  0.00    +0.000 A 
ATOM     19  C   UNL     1      -3.074   1.753   5.878  0.00  0.00    +0.001 A 
ATOM     20  C   UNL     1      -3.007   0.374   5.931  0.00  0.00    +0.020 A 
ATOM     21  C   UNL     1      -2.431  -0.331   4.889  0.00  0.00    +0.045 A 
ATOM     22 CL   UNL     1      -2.353  -2.064   4.950  0.00  0.00    -0.083 Cl
ENDBRANCH  12  16
BRANCH  14  23
ATOM     23  C   UNL     1       2.149  -0.271   1.094  0.00  0.00    +0.094 C 
BRANCH  23  24
ATOM     24  C   UNL     1       2.865  -1.010   2.226  0.00  0.00    +0.111 C 
BRANCH  24  25
ATOM     25  C   UNL     1       4.350  -0.777   2.118  0.00  0.00    +0.222 C 
ATOM     26  O   UNL     1       4.792  -0.088   1.224  0.00  0.00    -0.275 OA
ATOM     27  N   UNL     1       5.186  -1.336   3.015  0.00  0.00    -0.240 N 
ATOM     28  C   UNL     1       6.514  -1.128   2.919  0.00  0.00    +0.306 C 
ATOM     29  O   UNL     1       6.958  -0.437   2.022  0.00  0.00    -0.252 OA
ATOM     30  N   UNL     1       7.351  -1.686   3.816  0.00  0.00    -0.302 N 
ATOM     31  C   UNL     1       8.794  -1.460   3.711  0.00  0.00    +0.129 C 
ATOM     32  H   UNL     1       4.832  -1.887   3.731  0.00  0.00    +0.159 HD
ATOM     33  H   UNL     1       6.997  -2.237   4.532  0.00  0.00    +0.150 HD
ENDBRANCH  24  25
ENDBRANCH  23  24
ENDBRANCH  14  23
TORSDOF 4
