REMARK  Name = ZINC09501713
REMARK  11 active torsions:
REMARK  status: ('A' for Active; 'I' for Inactive)
REMARK    1  A    between atoms: C_1  and  C_2
REMARK    2  A    between atoms: C_2  and  C_3
REMARK    3  A    between atoms: C_3  and  N_57
REMARK    4  A    between atoms: C_4  and  C_5
REMARK    5  A    between atoms: C_4  and  N_57
REMARK    6  A    between atoms: C_8  and  C_10
REMARK    7  A    between atoms: C_15  and  C_16
REMARK    8  A    between atoms: C_15  and  N_57
REMARK    9  A    between atoms: N_18  and  C_19
REMARK   10  A    between atoms: C_24  and  C_25
REMARK   11  A    between atoms: C_25  and  C_27
REMARK                            x       y       z     vdW  Elec       q    Type
REMARK                         _______ _______ _______ _____ _____    ______ ____
ROOT
ATOM      1  C   UNL     1       0.019   9.559  -0.014  0.00  0.00    +0.201 C 
ATOM      2  O   UNL     1      -1.017  10.189   0.033  0.00  0.00    -0.278 OA
ATOM      3  N   UNL     1      -0.013   8.213  -0.066  0.00  0.00    -0.286 N 
ATOM      4  H   UNL     1       0.809   7.713  -0.190  0.00  0.00    +0.155 HD
ENDROOT
BRANCH   3   5
ATOM      5  C   UNL     1      -1.225   7.540   0.060  0.00  0.00    +0.044 A 
ATOM      6  C   UNL     1      -2.288   8.135   0.725  0.00  0.00    +0.025 A 
ATOM      7  C   UNL     1      -3.488   7.464   0.853  0.00  0.00    +0.022 A 
ATOM      8  C   UNL     1      -3.643   6.195   0.315  0.00  0.00    +0.042 A 
ATOM      9  C   UNL     1      -2.601   5.590  -0.353  0.00  0.00    +0.033 A 
ATOM     10  C   UNL     1      -1.380   6.257  -0.490  0.00  0.00    +0.045 A 
ATOM     11 CL   UNL     1      -5.159   5.365   0.485  0.00  0.00    -0.084 Cl
BRANCH  10  12
ATOM     12  C   UNL     1      -0.260   5.616  -1.203  0.00  0.00    +0.195 C 
ATOM     13  O   UNL     1       0.323   4.676  -0.699  0.00  0.00    -0.287 OA
BRANCH  12  14
ATOM     14  C   UNL     1       0.154   6.116  -2.531  0.00  0.00    +0.022 A 
ATOM     15  C   UNL     1       1.279   5.583  -3.162  0.00  0.00    +0.012 A 
ATOM     16  C   UNL     1       1.660   6.055  -4.401  0.00  0.00    +0.001 A 
ATOM     17  C   UNL     1       0.930   7.055  -5.018  0.00  0.00    +0.000 A 
ATOM     18  C   UNL     1      -0.183   7.592  -4.396  0.00  0.00    +0.001 A 
ATOM     19  C   UNL     1      -0.579   7.125  -3.160  0.00  0.00    +0.012 A 
ENDBRANCH  12  14
ENDBRANCH  10  12
ENDBRANCH   3   5
BRANCH   1  20
ATOM     20  C   UNL     1       1.341  10.283  -0.016  0.00  0.00    +0.020 C 
BRANCH  20  21
ATOM     21  N   UNL     1       1.089  11.730   0.152  0.00  0.00    +0.391 N 
ATOM     22  H   UNL     1       0.290  11.999  -0.433  0.00  0.00    -0.080 HD
BRANCH  21  23
ATOM     23  C   UNL     1       2.276  12.501  -0.272  0.00  0.00    -0.078 C 
BRANCH  23  25
ATOM     24  C   UNL     1       3.594  13.243  -2.261  0.00  0.00    +0.002 C 
ATOM     25  C   UNL     1       2.317  12.538  -1.801  0.00  0.00    -0.022 C 
ENDBRANCH  23  25
ENDBRANCH  21  23
BRANCH  21  26
ATOM     26  C   UNL     1       0.772  12.027   1.565  0.00  0.00    +0.021 C 
BRANCH  26  27
ATOM     27  C   UNL     1       0.307  13.457   1.668  0.00  0.00    +0.202 A 
ATOM     28  N   UNL     1      -0.920  13.877   1.542  0.00  0.00    -0.114 NA
ATOM     29  N   UNL     1      -0.956  15.155   1.691  0.00  0.00    -0.104 NA
ATOM     30  C   UNL     1       0.262  15.599   1.912  0.00  0.00    +0.284 A 
ATOM     31  O   UNL     1       1.084  14.529   1.901  0.00  0.00    -0.420 OA
BRANCH  30  32
ATOM     32  C   UNL     1       0.654  16.999   2.130  0.00  0.00    +0.191 A 
ATOM     33  C   UNL     1      -0.185  18.073   2.139  0.00  0.00    +0.055 A 
ATOM     34  C   UNL     1       0.612  19.207   2.383  0.00  0.00    +0.042 A 
ATOM     35  C   UNL     1       1.884  18.778   2.509  0.00  0.00    +0.196 A 
ATOM     36  O   UNL     1       1.905  17.444   2.361  0.00  0.00    -0.458 OA
ENDBRANCH  30  32
ENDBRANCH  26  27
ENDBRANCH  21  26
ENDBRANCH  20  21
ENDBRANCH   1  20
TORSDOF 10
