REMARK  Name = ZINC63589181
REMARK  10 active torsions:
REMARK  status: ('A' for Active; 'I' for Inactive)
REMARK    1  A    between atoms: C_1  and  C_2
REMARK    2  A    between atoms: C_5  and  N_8
REMARK    3  A    between atoms: N_10  and  C_11
REMARK    4  A    between atoms: C_11  and  C_12
REMARK    5  A    between atoms: C_12  and  C_13
REMARK    6  A    between atoms: N_22  and  C_23
REMARK    7  A    between atoms: C_23  and  C_25
REMARK    8  A    between atoms: C_29  and  N_31
REMARK    9  A    between atoms: N_31  and  C_32
REMARK   10  A    between atoms: N_31  and  C_33
REMARK                            x       y       z     vdW  Elec       q    Type
REMARK                         _______ _______ _______ _____ _____    ______ ____
ROOT
ATOM      1  N   UNL     1       0.029  -4.043   0.481  0.00  0.00    -0.328 N 
ATOM      2  C   UNL     1       0.058  -5.000   1.454  0.00  0.00    +0.194 C 
ATOM      3  N   UNL     1      -0.053  -6.317   1.119  0.00  0.00    -0.357 N 
ATOM      4  N   UNL     1       0.194  -4.649   2.724  0.00  0.00    -0.143 NA
ATOM      5  H   UNL     1      -0.365  -6.960   1.776  0.00  0.00    +0.162 HD
ATOM      6  H   UNL     1       0.673  -3.318   0.495  0.00  0.00    +0.169 HD
ENDROOT
BRANCH   1  11
ATOM      7  C   UNL     1      -3.856  -4.312  -3.644  0.00  0.00    +0.044 C 
ATOM      8  C   UNL     1      -2.824  -4.240  -2.548  0.00  0.00    -0.050 A 
ATOM      9  C   UNL     1      -1.608  -3.626  -2.784  0.00  0.00    +0.005 A 
ATOM     10  C   UNL     1      -0.660  -3.559  -1.782  0.00  0.00    +0.026 A 
ATOM     11  C   UNL     1      -0.929  -4.109  -0.536  0.00  0.00    +0.042 A 
ATOM     12  C   UNL     1      -2.151  -4.725  -0.301  0.00  0.00    +0.026 A 
ATOM     13  C   UNL     1      -3.097  -4.784  -1.306  0.00  0.00    +0.005 A 
ENDBRANCH   1  11
BRANCH   4  14
ATOM     14  C   UNL     1       0.351  -3.359   3.049  0.00  0.00    +0.270 C 
ATOM     15  O   UNL     1       0.277  -2.500   2.188  0.00  0.00    -0.268 OA
BRANCH  14  16
ATOM     16  C   UNL     1       0.614  -2.976   4.456  0.00  0.00    +0.041 A 
ATOM     17  C   UNL     1       0.810  -3.962   5.424  0.00  0.00    +0.013 A 
ATOM     18  C   UNL     1       1.055  -3.603   6.734  0.00  0.00    +0.003 A 
ATOM     19  C   UNL     1       1.108  -2.269   7.092  0.00  0.00    +0.023 A 
ATOM     20  C   UNL     1       0.914  -1.280   6.135  0.00  0.00    +0.030 A 
ATOM     21  C   UNL     1       0.673  -1.631   4.815  0.00  0.00    +0.036 A 
BRANCH  20  22
ATOM     22  N   UNL     1       0.968   0.067   6.501  0.00  0.00    -0.336 N 
ATOM     23  C   UNL     1       1.229   0.437   7.894  0.00  0.00    +0.129 C 
ATOM     24  C   UNL     1       0.764   1.109   5.492  0.00  0.00    +0.129 C 
ENDBRANCH  20  22
ENDBRANCH  14  16
ENDBRANCH   4  14
BRANCH   3  25
ATOM     25  C   UNL     1       0.299  -6.762  -0.232  0.00  0.00    +0.120 C 
BRANCH  25  26
ATOM     26  C   UNL     1      -0.023  -8.250  -0.379  0.00  0.00    +0.054 C 
BRANCH  26  27
ATOM     27  C   UNL     1       0.451  -8.736  -1.725  0.00  0.00    -0.040 C 
ATOM     28  C   UNL     1       1.653  -9.283  -2.015  0.00  0.00    -0.001 A 
ATOM     29  C   UNL     1       2.835  -9.577  -1.196  0.00  0.00    +0.010 A 
ATOM     30  C   UNL     1       3.916 -10.140  -1.782  0.00  0.00    +0.001 A 
ATOM     31  C   UNL     1       3.936 -10.448  -3.150  0.00  0.00    +0.002 A 
ATOM     32  C   UNL     1       2.889 -10.207  -3.967  0.00  0.00    +0.026 A 
ATOM     33  C   UNL     1       1.699  -9.618  -3.456  0.00  0.00    +0.043 A 
ATOM     34  N   UNL     1       0.569  -9.291  -4.034  0.00  0.00    -0.380 N 
ATOM     35  C   UNL     1      -0.325  -8.716  -3.023  0.00  0.00    +0.144 C 
ATOM     36  H   UNL     1       0.358  -9.412  -4.973  0.00  0.00    +0.160 HD
ENDBRANCH  26  27
ENDBRANCH  25  26
ENDBRANCH   3  25
TORSDOF 7
