REMARK  Name = ZINC10154313
REMARK  14 active torsions:
REMARK  status: ('A' for Active; 'I' for Inactive)
REMARK    1  A    between atoms: C_1  and  C_2
REMARK    2  A    between atoms: C_2  and  C_3
REMARK    3  A    between atoms: C_3  and  O_4
REMARK    4  A    between atoms: O_4  and  C_5
REMARK    5  A    between atoms: C_8  and  C_12
REMARK    6  A    between atoms: N_14  and  C_15
REMARK    7  A    between atoms: C_15  and  N_17
REMARK    8  A    between atoms: N_17  and  N_18
REMARK    9  A    between atoms: C_19  and  C_21
REMARK   10  A    between atoms: C_21  and  C_23
REMARK   11  A    between atoms: C_21  and  O_24
REMARK   12  A    between atoms: O_24  and  C_25
REMARK   13  A    between atoms: C_28  and  C_32
REMARK   14  A    between atoms: C_29  and  C_31
REMARK                            x       y       z     vdW  Elec       q    Type
REMARK                         _______ _______ _______ _____ _____    ______ ____
ROOT
ATOM      1  C   UNL     1      -5.218   4.086   0.540  0.00  0.00    +0.153 C 
ATOM      2  S   UNL     1      -5.356   5.792   0.497  0.00  0.00    -0.017 S 
ENDROOT
BRANCH   1   5
ATOM      3  C   UNL     1      -2.920   4.280   0.906  0.00  0.00    +0.250 C 
ATOM      4  O   UNL     1      -3.018   5.492   0.875  0.00  0.00    -0.270 OA
ATOM      5  N   UNL     1      -4.015   3.511   0.739  0.00  0.00    -0.263 N 
ATOM      6  H   UNL     1      -3.937   2.545   0.763  0.00  0.00    +0.157 HD
BRANCH   3  10
ATOM      7  C   UNL     1       0.869   2.471   1.534  0.00  0.00    +0.134 A 
ATOM      8  C   UNL     1      -0.258   1.676   1.363  0.00  0.00    +0.047 A 
ATOM      9  C   UNL     1      -1.488   2.259   1.153  0.00  0.00    +0.017 A 
ATOM     10  C   UNL     1      -1.604   3.652   1.124  0.00  0.00    +0.038 A 
ATOM     11  C   UNL     1      -0.468   4.448   1.297  0.00  0.00    +0.032 A 
ATOM     12  C   UNL     1       0.760   3.857   1.500  0.00  0.00    +0.060 A 
ATOM     13 BR   UNL     1       2.299   4.931   1.733  0.00  0.00    -0.046 Br
BRANCH   7  14
ATOM     14  O   UNL     1       2.080   1.892   1.735  0.00  0.00    -0.491 OA
BRANCH  14  15
ATOM     15  C   UNL     1       2.121   0.464   1.758  0.00  0.00    +0.229 C 
BRANCH  15  17
ATOM     16  C   UNL     1       3.603  -1.531   2.019  0.00  0.00    +0.007 C 
ATOM     17  C   UNL     1       3.559  -0.002   1.994  0.00  0.00    +0.038 C 
ENDBRANCH  15  17
ENDBRANCH  14  15
ENDBRANCH   7  14
ENDBRANCH   3  10
ENDBRANCH   1   5
BRANCH   1  18
ATOM     18  N   UNL     1      -6.312   3.317   0.374  0.00  0.00    -0.245 N 
ATOM     19  H   UNL     1      -7.178   3.730   0.230  0.00  0.00    +0.172 HD
BRANCH  18  20
ATOM     20  N   UNL     1      -6.199   1.921   0.408  0.00  0.00    -0.232 N 
ATOM     21  C   UNL     1      -7.294   1.152   0.242  0.00  0.00    +0.270 C 
ATOM     22  O   UNL     1      -8.376   1.668   0.063  0.00  0.00    -0.270 OA
ATOM     23  H   UNL     1      -5.333   1.508   0.552  0.00  0.00    +0.173 HD
BRANCH  21  24
ATOM     24  C   UNL     1      -7.172  -0.350   0.280  0.00  0.00    +0.257 C 
ATOM     25  C   UNL     1      -6.324  -0.823  -0.903  0.00  0.00    +0.062 C 
BRANCH  24  26
ATOM     26  O   UNL     1      -8.473  -0.935   0.197  0.00  0.00    -0.480 OA
BRANCH  26  27
ATOM     27  C   UNL     1      -8.624  -2.180   0.721  0.00  0.00    +0.122 A 
ATOM     28  C   UNL     1      -7.521  -2.871   1.200  0.00  0.00    +0.046 A 
ATOM     29  C   UNL     1      -7.677  -4.136   1.733  0.00  0.00    +0.007 A 
ATOM     30  C   UNL     1      -8.932  -4.713   1.789  0.00  0.00    -0.047 A 
ATOM     31  C   UNL     1     -10.033  -4.027   1.312  0.00  0.00    -0.044 A 
ATOM     32  C   UNL     1      -9.883  -2.759   0.783  0.00  0.00    +0.049 A 
ATOM     33  C   UNL     1     -11.400  -4.659   1.376  0.00  0.00    +0.044 C 
ATOM     34  C   UNL     1      -9.099  -6.093   2.370  0.00  0.00    +0.044 C 
ENDBRANCH  26  27
ENDBRANCH  24  26
ENDBRANCH  21  24
ENDBRANCH  18  20
ENDBRANCH   1  18
TORSDOF 10
