REMARK  Name = ZINC41652042
REMARK  8 active torsions:
REMARK  status: ('A' for Active; 'I' for Inactive)
REMARK    1  A    between atoms: C_1  and  C_2
REMARK    2  A    between atoms: N_7  and  C_9
REMARK    3  A    between atoms: C_9  and  C_11
REMARK    4  A    between atoms: C_9  and  C_12
REMARK    5  A    between atoms: C_12  and  N_13
REMARK    6  A    between atoms: C_14  and  C_16
REMARK    7  A    between atoms: N_18  and  C_19
REMARK    8  A    between atoms: C_24  and  N_25
REMARK                            x       y       z     vdW  Elec       q    Type
REMARK                         _______ _______ _______ _____ _____    ______ ____
ROOT
ATOM      1  C   UNL     1       4.317   1.531   1.879  0.00  0.00    +0.303 C 
ATOM      2  O   UNL     1       3.316   2.195   2.050  0.00  0.00    -0.265 OA
ATOM      3  N   UNL     1       5.498   2.140   1.651  0.00  0.00    -0.276 N 
ATOM      4  H   UNL     1       6.312   1.615   1.599  0.00  0.00    +0.155 HD
ENDROOT
BRANCH   3   5
ATOM      5  C   UNL     1       5.550   3.528   1.489  0.00  0.00    +0.055 A 
ATOM      6  C   UNL     1       4.429   4.221   1.055  0.00  0.00    +0.025 A 
ATOM      7  C   UNL     1       4.483   5.593   0.896  0.00  0.00    +0.002 A 
ATOM      8  C   UNL     1       5.652   6.279   1.169  0.00  0.00    +0.002 A 
ATOM      9  C   UNL     1       6.774   5.598   1.602  0.00  0.00    +0.025 A 
ATOM     10  C   UNL     1       6.728   4.222   1.770  0.00  0.00    +0.051 A 
BRANCH  10  11
ATOM     11  N   UNL     1       7.860   3.532   2.214  0.00  0.00    -0.328 N 
ATOM     12  C   UNL     1       8.845   3.014   1.255  0.00  0.00    +0.105 C 
ATOM     13  C   UNL     1      10.233   3.531   1.646  0.00  0.00    +0.019 C 
ATOM     14  C   UNL     1      10.520   3.162   3.103  0.00  0.00    +0.003 C 
ATOM     15  C   UNL     1       9.483   3.825   4.013  0.00  0.00    +0.019 C 
ATOM     16  C   UNL     1       8.090   3.316   3.649  0.00  0.00    +0.105 C 
ENDBRANCH  10  11
ENDBRANCH   3   5
BRANCH   1  18
ATOM     17  N   UNL     1       3.060  -0.568   2.148  0.00  0.00    -0.309 N 
ATOM     18  C   UNL     1       4.241   0.041   1.920  0.00  0.00    +0.299 C 
ATOM     19  O   UNL     1       5.243  -0.623   1.749  0.00  0.00    -0.265 OA
ATOM     20  H   UNL     1       2.260  -0.037   2.285  0.00  0.00    +0.149 HD
BRANCH  17  21
ATOM     21  C   UNL     1       2.986  -2.030   2.189  0.00  0.00    +0.089 C 
BRANCH  21  22
ATOM     22  C   UNL     1       1.526  -2.462   2.336  0.00  0.00    -0.054 C 
ATOM     23  C   UNL     1       1.445  -3.990   2.355  0.00  0.00    -0.012 C 
BRANCH  22  29
ATOM     24  C   UNL     1      -2.954  -2.156   0.386  0.00  0.00    +0.005 C 
ATOM     25  C   UNL     1      -1.491  -1.738   0.224  0.00  0.00    -0.031 C 
ATOM     26  C   UNL     1      -0.959  -2.247  -1.119  0.00  0.00    -0.001 C 
ATOM     27  C   UNL     1       0.526  -1.892  -1.236  0.00  0.00    -0.018 C 
ATOM     28  C   UNL     1       1.283  -2.490  -0.048  0.00  0.00    -0.078 C 
ATOM     29  N   UNL     1       0.745  -1.945   1.204  0.00  0.00    +0.383 N 
ATOM     30  C   UNL     1      -0.660  -2.342   1.358  0.00  0.00    -0.075 C 
ATOM     31  H   UNL     1       0.809  -0.938   1.186  0.00  0.00    -0.081 HD
ENDBRANCH  22  29
ENDBRANCH  21  22
ENDBRANCH  17  21
ENDBRANCH   1  18
TORSDOF 6
