REMARK  Name = ZINC11670938
REMARK  7 active torsions:
REMARK  status: ('A' for Active; 'I' for Inactive)
REMARK    1  A    between atoms: C_1  and  C_2
REMARK    2  A    between atoms: C_8  and  N_10
REMARK    3  A    between atoms: C_14  and  C_16
REMARK    4  A    between atoms: C_16  and  S_17
REMARK    5  A    between atoms: S_17  and  C_18
REMARK    6  A    between atoms: C_21  and  C_24
REMARK    7  A    between atoms: N_22  and  N_23
REMARK                            x       y       z     vdW  Elec       q    Type
REMARK                         _______ _______ _______ _____ _____    ______ ____
ROOT
ATOM      1  N   UNL     1      -2.119  -0.061   1.218  0.00  0.00    -0.296 N 
ATOM      2  C   UNL     1      -3.462   0.049   1.230  0.00  0.00    +0.306 C 
ATOM      3  O   UNL     1      -4.105  -0.243   0.240  0.00  0.00    -0.252 OA
ATOM      4  N   UNL     1      -4.093   0.484   2.339  0.00  0.00    -0.239 N 
ATOM      5  C   UNL     1      -5.436   0.594   2.350  0.00  0.00    +0.231 C 
ATOM      6  O   UNL     1      -6.077   0.303   1.363  0.00  0.00    -0.274 OA
ATOM      7  H   UNL     1      -1.606   0.172   2.008  0.00  0.00    +0.151 HD
ATOM      8  H   UNL     1      -3.580   0.717   3.128  0.00  0.00    +0.159 HD
ENDROOT
BRANCH   1  15
ATOM      9  C   UNL     1      -0.019   1.526   0.010  0.00  0.00    +0.009 C 
ATOM     10  C   UNL     1       0.002  -0.004   0.002  0.00  0.00    +0.006 C 
ATOM     11  C   UNL     1       0.742  -0.511   1.242  0.00  0.00    +0.005 C 
ATOM     12  C   UNL     1       0.763  -2.041   1.233  0.00  0.00    +0.000 C 
ATOM     13  C   UNL     1      -0.673  -2.570   1.244  0.00  0.00    +0.002 C 
ATOM     14  C   UNL     1      -1.413  -2.063   0.004  0.00  0.00    +0.022 C 
ATOM     15  C   UNL     1      -1.433  -0.534   0.013  0.00  0.00    +0.077 C 
ENDBRANCH   1  15
BRANCH   5  16
ATOM     16  C   UNL     1      -6.142   1.080   3.590  0.00  0.00    +0.173 C 
BRANCH  16  17
ATOM     17  S   UNL     1      -7.927   1.119   3.293  0.00  0.00    -0.075 S 
BRANCH  17  18
ATOM     18  C   UNL     1      -8.485   1.706   4.858  0.00  0.00    +0.209 A 
ATOM     19  N   UNL     1      -7.731   1.999   5.894  0.00  0.00    -0.120 NA
ATOM     20  N   UNL     1      -8.461   2.402   6.872  0.00  0.00    -0.123 NA
ATOM     21  C   UNL     1      -9.729   2.382   6.523  0.00  0.00    +0.217 A 
ATOM     22  N   UNL     1      -9.782   1.935   5.221  0.00  0.00    -0.221 N 
BRANCH  21  23
ATOM     23  C   UNL     1     -10.874   2.764   7.365  0.00  0.00    +0.173 A 
ATOM     24  C   UNL     1     -10.854   2.924   8.718  0.00  0.00    +0.053 A 
ATOM     25  C   UNL     1     -12.159   3.292   9.101  0.00  0.00    +0.042 A 
ATOM     26  C   UNL     1     -12.905   3.331   7.979  0.00  0.00    +0.196 A 
ATOM     27  O   UNL     1     -12.126   3.012   6.932  0.00  0.00    -0.460 OA
ENDBRANCH  21  23
BRANCH  22  28
ATOM     28  N   UNL     1     -10.899   1.757   4.454  0.00  0.00    -0.294 N 
ATOM     29  H   UNL     1     -11.264   0.823   4.559  0.00  0.00    +0.163 HD
ATOM     30  H   UNL     1     -11.601   2.447   4.673  0.00  0.00    +0.163 HD
ENDBRANCH  22  28
ENDBRANCH  17  18
ENDBRANCH  16  17
ENDBRANCH   5  16
TORSDOF 6
