REMARK  Name = ZINC01840867
REMARK  6 active torsions:
REMARK  status: ('A' for Active; 'I' for Inactive)
REMARK    1  A    between atoms: C_1  and  C_2
REMARK    2  A    between atoms: C_5  and  C_27
REMARK    3  A    between atoms: N_9  and  C_10
REMARK    4  A    between atoms: N_11  and  C_12
REMARK    5  A    between atoms: N_14  and  C_15
REMARK    6  A    between atoms: C_25  and  C_26
REMARK                            x       y       z     vdW  Elec       q    Type
REMARK                         _______ _______ _______ _____ _____    ______ ____
ROOT
ATOM      1  C   UNL     1       5.145   3.263  -0.806  0.00  0.00    +0.044 C 
ATOM      2  C   UNL     1       3.745   2.780  -0.526  0.00  0.00    -0.047 A 
ATOM      3  C   UNL     1       3.557   1.502  -0.099  0.00  0.00    +0.015 A 
ATOM      4  C   UNL     1       2.251   1.049   0.163  0.00  0.00    +0.020 A 
ATOM      5  C   UNL     1       1.983  -0.246   0.604  0.00  0.00    +0.025 A 
ATOM      6  N   UNL     1       0.704  -0.591   0.829  0.00  0.00    -0.327 N 
ATOM      7  H   UNL     1       0.501  -1.489   1.135  0.00  0.00    +0.169 HD
ATOM      8  C   UNL     1      -0.318   0.296   0.635  0.00  0.00    +0.232 A 
ATOM      9  N   UNL     1      -1.573  -0.104   0.876  0.00  0.00    -0.179 NA
ATOM     10  N   UNL     1      -0.115   1.537   0.218  0.00  0.00    -0.212 NA
ATOM     11  C   UNL     1       1.125   1.970  -0.032  0.00  0.00    +0.077 A 
ATOM     12  C   UNL     1       1.389   3.274  -0.475  0.00  0.00    +0.032 A 
ATOM     13  C   UNL     1       2.676   3.654  -0.712  0.00  0.00    -0.045 A 
ATOM     14  C   UNL     1       2.951   5.057  -1.187  0.00  0.00    +0.044 C 
ATOM     15  C   UNL     1       3.099  -1.234   0.822  0.00  0.00    +0.064 C 
ENDROOT
BRANCH   9  16
ATOM     16  C   UNL     1      -2.587   0.739   0.696  0.00  0.00    +0.218 C 
ATOM     17  N   UNL     1      -2.354   1.984   0.276  0.00  0.00    -0.128 NA
ATOM     18  N   UNL     1      -3.876   0.328   0.944  0.00  0.00    -0.370 N 
ATOM     19  H   UNL     1      -4.519   0.949   1.320  0.00  0.00    +0.159 HD
ATOM     20  H   UNL     1      -4.141  -0.584   0.743  0.00  0.00    +0.159 HD
BRANCH  17  21
ATOM     21  C   UNL     1      -3.375   2.787  -0.033  0.00  0.00    +0.326 C 
ATOM     22  O   UNL     1      -4.521   2.413   0.149  0.00  0.00    -0.251 OA
ATOM     23  N   UNL     1      -3.138   4.011  -0.547  0.00  0.00    -0.295 N 
ATOM     24  H   UNL     1      -2.226   4.308  -0.692  0.00  0.00    +0.151 HD
BRANCH  23  25
ATOM     25  C   UNL     1      -4.258   4.892  -0.885  0.00  0.00    +0.074 C 
ATOM     26  C   UNL     1      -4.761   4.560  -2.292  0.00  0.00    +0.022 C 
ATOM     27  C   UNL     1      -5.931   5.480  -2.646  0.00  0.00    +0.002 C 
ATOM     28  C   UNL     1      -5.465   6.937  -2.601  0.00  0.00    +0.000 C 
ATOM     29  C   UNL     1      -4.963   7.269  -1.195  0.00  0.00    +0.002 C 
ATOM     30  C   UNL     1      -3.793   6.349  -0.841  0.00  0.00    +0.022 C 
ENDBRANCH  23  25
ENDBRANCH  17  21
ENDBRANCH   9  16
TORSDOF 3
