REMARK  Name = ZINC28478674
REMARK  10 active torsions:
REMARK  status: ('A' for Active; 'I' for Inactive)
REMARK    1  A    between atoms: C_1  and  C_2
REMARK    2  A    between atoms: C_4  and  C_16
REMARK    3  A    between atoms: C_6  and  C_11
REMARK    4  A    between atoms: C_16  and  O_18
REMARK    5  A    between atoms: O_18  and  C_19
REMARK    6  A    between atoms: C_19  and  C_21
REMARK    7  A    between atoms: C_19  and  C_22
REMARK    8  A    between atoms: N_24  and  C_25
REMARK    9  A    between atoms: C_25  and  C_27
REMARK   10  A    between atoms: C_25  and  C_28
REMARK                            x       y       z     vdW  Elec       q    Type
REMARK                         _______ _______ _______ _____ _____    ______ ____
ROOT
ATOM      1  C   UNL     1       1.544   2.083  -0.450  0.00  0.00    +0.341 C 
ATOM      2  O   UNL     1       2.586   1.472  -0.321  0.00  0.00    -0.245 OA
ENDROOT
BRANCH   1   6
ATOM      3  C   UNL     1       3.807   2.385   1.783  0.00  0.00    +0.070 C 
ATOM      4  C   UNL     1       3.411   3.808   1.483  0.00  0.00    +0.091 A 
ATOM      5  C   UNL     1       2.400   4.241   0.521  0.00  0.00    +0.077 A 
ATOM      6  C   UNL     1       1.538   3.559  -0.365  0.00  0.00    +0.075 A 
ATOM      7  C   UNL     1       0.686   4.319  -1.159  0.00  0.00    +0.047 A 
ATOM      8  C   UNL     1       0.709   5.715  -1.041  0.00  0.00    +0.111 A 
ATOM      9  N   UNL     1       1.533   6.322  -0.198  0.00  0.00    -0.207 NA
ATOM     10  C   UNL     1       2.367   5.646   0.575  0.00  0.00    +0.260 A 
ATOM     11  O   UNL     1       3.281   6.023   1.493  0.00  0.00    -0.334 OA
ATOM     12  N   UNL     1       3.905   4.876   2.033  0.00  0.00    -0.080 NA
BRANCH   8  13
ATOM     13  C   UNL     1      -0.196   6.526  -1.877  0.00  0.00    +0.153 A 
ATOM     14  C   UNL     1      -0.286   7.885  -1.872  0.00  0.00    +0.051 A 
ATOM     15  C   UNL     1      -1.269   8.229  -2.818  0.00  0.00    +0.042 A 
ATOM     16  C   UNL     1      -1.733   7.077  -3.344  0.00  0.00    +0.196 A 
ATOM     17  O   UNL     1      -1.083   6.051  -2.773  0.00  0.00    -0.461 OA
ENDBRANCH   8  13
ENDBRANCH   1   6
BRANCH   1  18
ATOM     18  O   UNL     1       0.395   1.416  -0.671  0.00  0.00    -0.449 OA
BRANCH  18  19
ATOM     19  C   UNL     1       0.476  -0.032  -0.743  0.00  0.00    +0.259 C 
ATOM     20  C   UNL     1       0.280  -0.624   0.654  0.00  0.00    +0.062 C 
BRANCH  19  21
ATOM     21  C   UNL     1      -0.598  -0.550  -1.664  0.00  0.00    +0.254 C 
ATOM     22  O   UNL     1      -1.357   0.224  -2.206  0.00  0.00    -0.272 OA
ATOM     23  N   UNL     1      -0.715  -1.875  -1.885  0.00  0.00    -0.306 N 
ATOM     24  H   UNL     1      -0.026  -2.577  -1.393  0.00  0.00    +0.149 HD
BRANCH  23  25
ATOM     25  C   UNL     1      -1.759  -2.379  -2.780  0.00  0.00    +0.100 C 
ATOM     26  C   UNL     1      -3.065  -2.543  -1.999  0.00  0.00    +0.033 C 
BRANCH  25  27
ATOM     27  C   UNL     1      -1.339  -3.713  -3.341  0.00  0.00    -0.027 A 
ATOM     28  C   UNL     1      -0.694  -4.630  -2.533  0.00  0.00    +0.005 A 
ATOM     29  C   UNL     1      -0.312  -5.856  -3.047  0.00  0.00    +0.000 A 
ATOM     30  C   UNL     1      -0.567  -6.160  -4.371  0.00  0.00    +0.000 A 
ATOM     31  C   UNL     1      -1.208  -5.240  -5.180  0.00  0.00    +0.000 A 
ATOM     32  C   UNL     1      -1.593  -4.017  -4.665  0.00  0.00    +0.005 A 
ENDBRANCH  25  27
ENDBRANCH  23  25
ENDBRANCH  19  21
ENDBRANCH  18  19
ENDBRANCH   1  18
TORSDOF 7
