REMARK  Name = ZINC28336724
REMARK  7 active torsions:
REMARK  status: ('A' for Active; 'I' for Inactive)
REMARK    1  A    between atoms: C_1  and  C_2
REMARK    2  A    between atoms: C_12  and  C_16
REMARK    3  A    between atoms: C_19  and  S_26
REMARK    4  A    between atoms: C_20  and  C_22
REMARK    5  A    between atoms: S_26  and  C_27
REMARK    6  A    between atoms: C_32  and  O_33
REMARK    7  A    between atoms: O_33  and  C_34
REMARK                            x       y       z     vdW  Elec       q    Type
REMARK                         _______ _______ _______ _____ _____    ______ ____
ROOT
ATOM      1  C   UNL     1      -2.334   1.100   0.473  0.00  0.00    -0.017 A 
ATOM      2  C   UNL     1      -2.251  -0.292   0.465  0.00  0.00    +0.009 A 
ATOM      3  C   UNL     1      -3.400  -1.049   0.396  0.00  0.00    +0.016 A 
ATOM      4  C   UNL     1      -4.642  -0.426   0.334  0.00  0.00    +0.025 A 
ATOM      5  C   UNL     1      -4.727   0.962   0.342  0.00  0.00    +0.069 A 
ATOM      6  C   UNL     1      -3.580   1.723   0.417  0.00  0.00    +0.022 A 
ENDROOT
BRANCH   1  18
ATOM      7  C   UNL     1       7.176   1.831   2.492  0.00  0.00    +0.109 C 
ATOM      8  C   UNL     1       6.120   0.755   2.531  0.00  0.00    +0.213 C 
ATOM      9  O   UNL     1       6.222  -0.166   3.312  0.00  0.00    -0.276 OA
ATOM     10  N   UNL     1       5.063   0.819   1.697  0.00  0.00    -0.299 N 
ATOM     11  C   UNL     1       4.971   1.871   0.673  0.00  0.00    +0.126 C 
ATOM     12  C   UNL     1       3.602   2.548   0.793  0.00  0.00    +0.125 C 
ATOM     13  N   UNL     1       2.547   1.528   0.733  0.00  0.00    -0.314 N 
ATOM     14  C   UNL     1       2.641   0.596   1.864  0.00  0.00    +0.125 C 
ATOM     15  C   UNL     1       3.971  -0.162   1.787  0.00  0.00    +0.126 C 
ATOM     16  C   UNL     1       1.288   2.115   0.675  0.00  0.00    +0.099 A 
ATOM     17  C   UNL     1       0.157   1.312   0.612  0.00  0.00    +0.050 A 
ATOM     18  C   UNL     1      -1.099   1.917   0.549  0.00  0.00    -0.013 A 
ATOM     19  C   UNL     1      -1.162   3.316   0.563  0.00  0.00    +0.026 A 
ATOM     20  C   UNL     1       0.008   4.041   0.628  0.00  0.00    +0.085 A 
ATOM     21  N   UNL     1       1.180   3.436   0.681  0.00  0.00    -0.350 N 
ATOM     22  H   UNL     1       2.084   4.061   0.731  0.00  0.00    +0.166 HD
ENDBRANCH   1  18
BRANCH   5  23
ATOM     23  C   UNL     1      -6.074   1.635   0.274  0.00  0.00    +0.418 C 
ATOM     24  F   UNL     1      -5.903   3.023   0.296  0.00  0.00    -0.166 F 
ATOM     25  F   UNL     1      -6.722   1.263  -0.908  0.00  0.00    -0.166 F 
ATOM     26  F   UNL     1      -6.847   1.243   1.373  0.00  0.00    -0.166 F 
ENDBRANCH   5  23
BRANCH   4  27
ATOM     27  S   UNL     1      -6.110  -1.397   0.246  0.00  0.00    -0.085 S 
BRANCH  27  28
ATOM     28  C   UNL     1      -6.678  -1.462   1.913  0.00  0.00    +0.054 A 
ATOM     29  C   UNL     1      -5.992  -0.782   2.909  0.00  0.00    +0.019 A 
ATOM     30  C   UNL     1      -6.443  -0.832   4.215  0.00  0.00    +0.001 A 
ATOM     31  C   UNL     1      -7.570  -1.566   4.533  0.00  0.00    +0.004 A 
ATOM     32  C   UNL     1      -8.256  -2.251   3.547  0.00  0.00    +0.047 A 
ATOM     33  C   UNL     1      -7.814  -2.203   2.235  0.00  0.00    +0.134 A 
BRANCH  33  34
ATOM     34  O   UNL     1      -8.487  -2.877   1.264  0.00  0.00    -0.494 OA
ATOM     35  C   UNL     1      -9.642  -3.614   1.668  0.00  0.00    +0.277 C 
ENDBRANCH  33  34
ENDBRANCH  27  28
ENDBRANCH   4  27
TORSDOF 5
