REMARK  Name = ZINC11838416
REMARK  8 active torsions:
REMARK  status: ('A' for Active; 'I' for Inactive)
REMARK    1  A    between atoms: C_1  and  C_2
REMARK    2  A    between atoms: C_2  and  C_3
REMARK    3  A    between atoms: C_10  and  C_11
REMARK    4  A    between atoms: C_10  and  N_56
REMARK    5  A    between atoms: C_19  and  N_21
REMARK    6  A    between atoms: N_21  and  C_22
REMARK    7  A    between atoms: C_22  and  C_23
REMARK    8  A    between atoms: C_26  and  C_29
REMARK                            x       y       z     vdW  Elec       q    Type
REMARK                         _______ _______ _______ _____ _____    ______ ____
ROOT
ATOM      1  C   UNL     1       0.785  -2.508  -0.514  0.00  0.00    +0.115 A 
ATOM      2  N   UNL     1      -0.036  -3.531  -0.517  0.00  0.00    -0.234 NA
ATOM      3  C   UNL     1      -1.353  -3.345  -0.687  0.00  0.00    +0.076 A 
ATOM      4  C   UNL     1      -2.259  -4.415  -0.696  0.00  0.00    +0.028 A 
ATOM      5  C   UNL     1      -3.588  -4.170  -0.874  0.00  0.00    +0.002 A 
ATOM      6  C   UNL     1      -4.062  -2.873  -1.047  0.00  0.00    +0.001 A 
ATOM      7  C   UNL     1      -3.208  -1.809  -1.043  0.00  0.00    +0.013 A 
ATOM      8  C   UNL     1      -1.837  -2.026  -0.863  0.00  0.00    +0.040 A 
ATOM      9  C   UNL     1      -0.902  -0.963  -0.850  0.00  0.00    +0.130 A 
ATOM     10  N   UNL     1       0.380  -1.259  -0.680  0.00  0.00    -0.219 NA
ENDROOT
BRANCH   9  11
ATOM     11  N   UNL     1      -1.312   0.343  -1.016  0.00  0.00    -0.324 N 
ATOM     12  H   UNL     1      -2.251   0.543  -1.148  0.00  0.00    +0.148 HD
BRANCH  11  13
ATOM     13  C   UNL     1      -0.327   1.427  -1.000  0.00  0.00    +0.138 C 
BRANCH  13  14
ATOM     14  C   UNL     1      -1.028   2.746  -1.201  0.00  0.00    -0.030 A 
ATOM     15  C   UNL     1      -1.206   3.246  -2.477  0.00  0.00    +0.005 A 
ATOM     16  C   UNL     1      -1.854   4.453  -2.662  0.00  0.00    +0.003 A 
ATOM     17  C   UNL     1      -2.314   5.165  -1.570  0.00  0.00    -0.050 A 
ATOM     18  C   UNL     1      -2.130   4.667  -0.293  0.00  0.00    +0.003 A 
ATOM     19  C   UNL     1      -1.488   3.458  -0.109  0.00  0.00    +0.005 A 
ATOM     20  C   UNL     1      -3.014   6.484  -1.771  0.00  0.00    +0.044 C 
ENDBRANCH  13  14
ENDBRANCH  11  13
ENDBRANCH   9  11
BRANCH   1  21
ATOM     21  C   UNL     1       2.257  -2.767  -0.319  0.00  0.00    -0.000 C 
BRANCH  21  29
ATOM     22  C   UNL     1       4.193  -3.645  -1.478  0.00  0.00    +0.020 C 
ATOM     23  C   UNL     1       4.893  -3.707  -2.806  0.00  0.00    +0.199 C 
ATOM     24  O   UNL     1       5.812  -4.487  -2.942  0.00  0.00    -0.278 OA
ATOM     25  N   UNL     1       4.546  -2.939  -3.844  0.00  0.00    -0.318 N 
ATOM     26  C   UNL     1       3.433  -1.995  -3.795  0.00  0.00    +0.085 C 
ATOM     27  C   UNL     1       3.060  -1.699  -2.341  0.00  0.00    -0.058 C 
ATOM     28  H   UNL     1       5.056  -3.012  -4.665  0.00  0.00    +0.149 HD
ATOM     29  N   UNL     1       2.883  -2.987  -1.643  0.00  0.00    +0.393 N 
ATOM     30  H   UNL     1       2.272  -3.592  -2.204  0.00  0.00    -0.080 HD
BRANCH  22  32
ATOM     31  C   UNL     1       3.116  -5.850  -1.944  0.00  0.00    +0.002 C 
ATOM     32  C   UNL     1       3.975  -5.064  -0.951  0.00  0.00    -0.010 C 
ENDBRANCH  22  32
ENDBRANCH  21  29
ENDBRANCH   1  21
TORSDOF 6
