REMARK  Name = ZINC33707597
REMARK  10 active torsions:
REMARK  status: ('A' for Active; 'I' for Inactive)
REMARK    1  A    between atoms: C_1  and  C_2
REMARK    2  A    between atoms: C_8  and  N_10
REMARK    3  A    between atoms: C_11  and  C_13
REMARK    4  A    between atoms: C_21  and  C_35
REMARK    5  A    between atoms: N_27  and  C_28
REMARK    6  A    between atoms: C_28  and  C_29
REMARK    7  A    between atoms: N_37  and  C_38
REMARK    8  A    between atoms: C_41  and  C_44
REMARK    9  A    between atoms: C_44  and  C_45
REMARK   10  A    between atoms: C_44  and  C_46
REMARK                            x       y       z     vdW  Elec       q    Type
REMARK                         _______ _______ _______ _____ _____    ______ ____
ROOT
ATOM      1  C   UNL     1       7.609   2.761  -2.201  0.00  0.00    +0.198 C 
ATOM      2  C   UNL     1       6.496   1.762  -2.279  0.00  0.00    +0.127 C 
ATOM      3  C   UNL     1       5.285   2.287  -3.029  0.00  0.00    +0.009 C 
ATOM      4  C   UNL     1       4.402   1.299  -3.022  0.00  0.00    +0.004 C 
ATOM      5  C   UNL     1       5.062   0.182  -2.204  0.00  0.00    +0.155 C 
ATOM      6  O   UNL     1       6.497   0.379  -2.546  0.00  0.00    -0.358 OA
ATOM      7  C   UNL     1       4.990   0.759  -0.736  0.00  0.00    +0.123 C 
ATOM      8  C   UNL     1       6.154   1.718  -0.736  0.00  0.00    +0.128 C 
ATOM      9  C   UNL     1       6.116   3.160  -0.433  0.00  0.00    +0.223 C 
ATOM     10  O   UNL     1       5.392   3.711   0.369  0.00  0.00    -0.275 OA
ATOM     11  N   UNL     1       7.058   3.761  -1.233  0.00  0.00    -0.284 N 
ENDROOT
BRANCH   1  13
ATOM     12  N   UNL     1       8.701   2.807  -4.420  0.00  0.00    -0.311 N 
ATOM     13  C   UNL     1       7.860   3.394  -3.545  0.00  0.00    +0.237 C 
ATOM     14  O   UNL     1       7.307   4.432  -3.840  0.00  0.00    -0.274 OA
ATOM     15  H   UNL     1       9.203   1.865  -4.152  0.00  0.00    +0.149 HD
BRANCH  12  22
ATOM     16  C   UNL     1       8.276   1.295  -6.853  0.00  0.00    +0.009 C 
ATOM     17  C   UNL     1       9.380   2.346  -6.723  0.00  0.00    +0.006 C 
ATOM     18  C   UNL     1      10.664   1.678  -6.226  0.00  0.00    +0.005 C 
ATOM     19  C   UNL     1      11.768   2.729  -6.096  0.00  0.00    +0.000 C 
ATOM     20  C   UNL     1      11.333   3.805  -5.099  0.00  0.00    +0.002 C 
ATOM     21  C   UNL     1      10.050   4.473  -5.596  0.00  0.00    +0.022 C 
ATOM     22  C   UNL     1       8.945   3.422  -5.726  0.00  0.00    +0.076 C 
ENDBRANCH  12  22
ENDBRANCH   1  13
BRANCH   7  23
ATOM     23  C   UNL     1       3.690   1.485  -0.504  0.00  0.00    +0.224 C 
ATOM     24  O   UNL     1       3.571   2.641  -0.852  0.00  0.00    -0.275 OA
ATOM     25  N   UNL     1       2.661   0.851   0.091  0.00  0.00    -0.285 N 
ATOM     26  H   UNL     1       2.796  -0.167   0.484  0.00  0.00    +0.155 HD
BRANCH  25  27
ATOM     27  C   UNL     1       1.421   1.488   0.209  0.00  0.00    +0.033 A 
ATOM     28  C   UNL     1       0.248   0.751   0.107  0.00  0.00    +0.023 A 
ATOM     29  C   UNL     1      -0.975   1.384   0.219  0.00  0.00    +0.006 A 
ATOM     30  C   UNL     1      -1.032   2.747   0.442  0.00  0.00    -0.045 A 
ATOM     31  C   UNL     1       0.134   3.483   0.545  0.00  0.00    +0.006 A 
ATOM     32  C   UNL     1       1.360   2.858   0.428  0.00  0.00    +0.023 A 
BRANCH  30  33
ATOM     33  C   UNL     1      -2.368   3.433   0.568  0.00  0.00    +0.013 C 
ATOM     34  C   UNL     1      -3.169   3.230  -0.719  0.00  0.00    +0.012 C 
ATOM     35  C   UNL     1      -3.138   2.837   1.748  0.00  0.00    +0.012 C 
ENDBRANCH  30  33
ENDBRANCH  25  27
ENDBRANCH   7  23
BRANCH  11  36
ATOM     36  C   UNL     1       7.462   5.167  -1.150  0.00  0.00    +0.140 C 
BRANCH  36  37
ATOM     37  C   UNL     1       8.701   5.290  -0.261  0.00  0.00    +0.136 C 
ATOM     38  C   UNL     1       9.084   6.777  -0.099  0.00  0.00    +0.035 C 
ATOM     39  C   UNL     1      10.637   6.724  -0.157  0.00  0.00    +0.031 C 
ATOM     40  C   UNL     1      10.855   5.562  -1.158  0.00  0.00    +0.160 C 
ATOM     41  O   UNL     1       9.809   4.620  -0.875  0.00  0.00    -0.375 OA
ENDBRANCH  36  37
ENDBRANCH  11  36
TORSDOF 7
