REMARK  Name = ZINC63552625
REMARK  12 active torsions:
REMARK  status: ('A' for Active; 'I' for Inactive)
REMARK    1  A    between atoms: C_1  and  C_2
REMARK    2  A    between atoms: C_2  and  C_3
REMARK    3  A    between atoms: C_2  and  C_4
REMARK    4  A    between atoms: C_4  and  C_5
REMARK    5  A    between atoms: C_5  and  N_6
REMARK    6  A    between atoms: C_11  and  C_21
REMARK    7  A    between atoms: C_21  and  C_22
REMARK    8  A    between atoms: C_22  and  C_23
REMARK    9  A    between atoms: C_23  and  C_24
REMARK   10  A    between atoms: N_26  and  C_27
REMARK   11  A    between atoms: C_27  and  C_28
REMARK   12  A    between atoms: C_28  and  C_29
REMARK                            x       y       z     vdW  Elec       q    Type
REMARK                         _______ _______ _______ _____ _____    ______ ____
ROOT
ATOM      1  N   UNL     1      -2.790  -2.565  -0.111  0.00  0.00    -0.265 N 
ATOM      2  C   UNL     1      -3.380  -3.022   1.142  0.00  0.00    +0.253 C 
ATOM      3  N   UNL     1      -2.387  -3.571   2.079  0.00  0.00    -0.219 NA
ATOM      4  N   UNL     1      -2.615  -5.025   2.097  0.00  0.00    -0.234 NA
ATOM      5  C   UNL     1      -4.085  -5.151   1.865  0.00  0.00    +0.158 C 
ATOM      6  N   UNL     1      -4.324  -4.129   0.876  0.00  0.00    -0.280 N 
ATOM      7  C   UNL     1      -5.182  -4.093  -0.222  0.00  0.00    +0.053 A 
ATOM      8  C   UNL     1      -6.399  -4.685  -0.453  0.00  0.00    +0.031 A 
ATOM      9  C   UNL     1      -7.028  -4.478  -1.637  0.00  0.00    +0.048 A 
ATOM     10  S   UNL     1      -5.992  -3.464  -2.494  0.00  0.00    -0.090 S 
ATOM     11  C   UNL     1      -4.712  -3.300  -1.295  0.00  0.00    +0.095 A 
ATOM     12  C   UNL     1      -3.503  -2.599  -1.270  0.00  0.00    +0.257 C 
ATOM     13  O   UNL     1      -3.093  -2.032  -2.267  0.00  0.00    -0.269 OA
ATOM     14  H   UNL     1      -1.448  -3.356   1.778  0.00  0.00    +0.144 HD
ATOM     15  H   UNL     1      -2.355  -5.421   2.988  0.00  0.00    +0.143 HD
ENDROOT
BRANCH   1  16
ATOM     16  C   UNL     1      -1.416  -2.058  -0.121  0.00  0.00    +0.111 C 
BRANCH  16  17
ATOM     17  C   UNL     1      -0.460  -3.183  -0.524  0.00  0.00    +0.022 C 
BRANCH  17  19
ATOM     18  C   UNL     1       1.942  -3.805  -0.815  0.00  0.00    +0.007 C 
ATOM     19  C   UNL     1       0.975  -2.653  -0.535  0.00  0.00    -0.016 C 
ATOM     20  C   UNL     1       1.119  -1.590  -1.626  0.00  0.00    +0.007 C 
ENDBRANCH  17  19
ENDBRANCH  16  17
ENDBRANCH   1  16
BRANCH   5  21
ATOM     21  C   UNL     1      -4.429  -6.535   1.309  0.00  0.00    +0.040 C 
BRANCH  21  22
ATOM     22  C   UNL     1      -4.143  -7.597   2.372  0.00  0.00    +0.012 C 
BRANCH  22  23
ATOM     23  C   UNL     1      -4.487  -8.980   1.816  0.00  0.00    +0.096 C 
BRANCH  23  24
ATOM     24  C   UNL     1      -4.205 -10.027   2.863  0.00  0.00    +0.213 C 
ATOM     25  O   UNL     1      -3.771  -9.699   3.946  0.00  0.00    -0.276 OA
ATOM     26  N   UNL     1      -4.434 -11.328   2.594  0.00  0.00    -0.315 N 
ATOM     27  H   UNL     1      -4.782 -11.590   1.728  0.00  0.00    +0.149 HD
BRANCH  26  28
ATOM     28  C   UNL     1      -4.160 -12.345   3.612  0.00  0.00    +0.108 C 
BRANCH  28  29
ATOM     29  C   UNL     1      -4.504 -13.728   3.056  0.00  0.00    +0.052 C 
BRANCH  29  30
ATOM     30  C   UNL     1      -4.222 -14.775   4.103  0.00  0.00    -0.040 C 
ATOM     31  C   UNL     1      -5.105 -15.310   4.977  0.00  0.00    -0.001 A 
ATOM     32  C   UNL     1      -6.537 -15.085   5.206  0.00  0.00    +0.010 A 
ATOM     33  C   UNL     1      -7.164 -15.787   6.178  0.00  0.00    +0.001 A 
ATOM     34  C   UNL     1      -6.481 -16.721   6.970  0.00  0.00    +0.002 A 
ATOM     35  C   UNL     1      -5.165 -16.982   6.819  0.00  0.00    +0.026 A 
ATOM     36  C   UNL     1      -4.407 -16.302   5.826  0.00  0.00    +0.043 A 
ATOM     37  N   UNL     1      -3.142 -16.377   5.490  0.00  0.00    -0.380 N 
ATOM     38  C   UNL     1      -2.895 -15.444   4.385  0.00  0.00    +0.144 C 
ATOM     39  H   UNL     1      -2.481 -16.955   5.902  0.00  0.00    +0.160 HD
ENDBRANCH  29  30
ENDBRANCH  28  29
ENDBRANCH  26  28
ENDBRANCH  23  24
ENDBRANCH  22  23
ENDBRANCH  21  22
ENDBRANCH   5  21
TORSDOF 10
