REMARK  Name = ZINC20530111
REMARK  4 active torsions:
REMARK  status: ('A' for Active; 'I' for Inactive)
REMARK    1  A    between atoms: C_4  and  S_7
REMARK    2  A    between atoms: S_7  and  N_10
REMARK    3  A    between atoms: N_10  and  N_11
REMARK    4  A    between atoms: C_12  and  C_23
REMARK                            x       y       z     vdW  Elec       q    Type
REMARK                         _______ _______ _______ _____ _____    ______ ____
ROOT
ATOM      1  N   UNL     1       4.341  -0.119  -2.183  0.00  0.00    -0.189 N 
ATOM      2  C   UNL     1       3.291   0.680  -2.814  0.00  0.00    +0.210 C 
ATOM      3  N   UNL     1       3.814   1.374  -3.994  0.00  0.00    -0.320 N 
ATOM      4  C   UNL     1       5.055   1.994  -3.906  0.00  0.00    +0.041 A 
ATOM      5  C   UNL     1       5.370   3.114  -4.656  0.00  0.00    +0.024 A 
ATOM      6  C   UNL     1       6.615   3.698  -4.523  0.00  0.00    +0.002 A 
ATOM      7  C   UNL     1       7.551   3.171  -3.647  0.00  0.00    +0.001 A 
ATOM      8  C   UNL     1       7.254   2.053  -2.894  0.00  0.00    +0.015 A 
ATOM      9  C   UNL     1       6.003   1.454  -3.019  0.00  0.00    +0.059 A 
ATOM     10  C   UNL     1       5.636   0.257  -2.242  0.00  0.00    +0.265 C 
ATOM     11  O   UNL     1       6.489  -0.385  -1.660  0.00  0.00    -0.268 OA
ATOM     12  H   UNL     1       3.227   1.396  -4.924  0.00  0.00    +0.148 HD
ENDROOT
BRANCH   2  13
ATOM     13  C   UNL     1       2.780   1.700  -1.828  0.00  0.00    -0.007 A 
ATOM     14  C   UNL     1       2.188   2.864  -2.282  0.00  0.00    +0.008 A 
ATOM     15  C   UNL     1       1.719   3.799  -1.379  0.00  0.00    +0.022 A 
ATOM     16  C   UNL     1       1.842   3.571  -0.020  0.00  0.00    +0.059 A 
ATOM     17  C   UNL     1       2.435   2.405   0.434  0.00  0.00    +0.060 A 
ATOM     18  C   UNL     1       2.898   1.467  -0.471  0.00  0.00    +0.028 A 
ATOM     19 CL   UNL     1       2.589   2.117   2.139  0.00  0.00    -0.082 Cl
ATOM     20 CL   UNL     1       1.254   4.746   1.114  0.00  0.00    -0.082 Cl
ENDBRANCH   2  13
BRANCH   1  21
ATOM     21  N   UNL     1       3.997  -1.299  -1.512  0.00  0.00    -0.103 NA
ATOM     22  H   UNL     1       3.898  -1.297  -0.547  0.00  0.00    +0.172 HD
BRANCH  21  23
ATOM     23  S   UNL     1       3.761  -2.699  -2.365  0.00  0.00    +0.074 S 
ATOM     24  O   UNL     1       2.720  -2.436  -3.295  0.00  0.00    -0.152 OA
ATOM     25  O   UNL     1       3.682  -3.748  -1.410  0.00  0.00    -0.152 OA
BRANCH  23  29
ATOM     26  C   UNL     1       7.510  -3.436  -4.792  0.00  0.00    +0.000 A 
ATOM     27  C   UNL     1       6.426  -2.801  -5.370  0.00  0.00    +0.002 A 
ATOM     28  C   UNL     1       5.282  -2.575  -4.628  0.00  0.00    +0.028 A 
ATOM     29  C   UNL     1       5.220  -2.986  -3.310  0.00  0.00    +0.107 A 
ATOM     30  C   UNL     1       6.303  -3.622  -2.732  0.00  0.00    +0.028 A 
ATOM     31  C   UNL     1       7.448  -3.847  -3.474  0.00  0.00    +0.002 A 
ENDBRANCH  23  29
ENDBRANCH  21  23
ENDBRANCH   1  21
TORSDOF 4
