REMARK  Name = ZINC18244990
REMARK  9 active torsions:
REMARK  status: ('A' for Active; 'I' for Inactive)
REMARK    1  A    between atoms: C_1  and  C_2
REMARK    2  A    between atoms: C_6  and  N_9
REMARK    3  A    between atoms: C_7  and  C_8
REMARK    4  A    between atoms: C_10  and  C_12
REMARK    5  A    between atoms: C_12  and  O_13
REMARK    6  A    between atoms: O_13  and  C_14
REMARK    7  A    between atoms: C_14  and  C_16
REMARK    8  A    between atoms: C_20  and  N_22
REMARK    9  A    between atoms: C_29  and  C_36
REMARK                            x       y       z     vdW  Elec       q    Type
REMARK                         _______ _______ _______ _____ _____    ______ ____
ROOT
ATOM      1  C   UNL     1      -0.378  -8.584   4.279  0.00  0.00    +0.061 A 
ATOM      2  C   UNL     1      -0.359  -9.115   2.988  0.00  0.00    +0.015 A 
ATOM      3  C   UNL     1      -0.440 -10.480   2.803  0.00  0.00    +0.003 A 
ATOM      4  C   UNL     1      -0.541 -11.325   3.893  0.00  0.00    +0.024 A 
ATOM      5  C   UNL     1      -0.560 -10.806   5.181  0.00  0.00    +0.045 A 
ATOM      6  C   UNL     1      -0.473  -9.437   5.378  0.00  0.00    +0.039 A 
ENDROOT
BRANCH   5   7
ATOM      7  N   UNL     1      -0.663 -11.668   6.282  0.00  0.00    -0.210 N 
ATOM      8  C   UNL     1      -0.639 -13.010   6.169  0.00  0.00    +0.230 C 
ATOM      9  O   UNL     1      -0.671 -13.645   5.137  0.00  0.00    -0.275 OA
ATOM     10  C   UNL     1      -0.565 -13.577   7.568  0.00  0.00    +0.088 C 
ATOM     11  C   UNL     1      -1.217 -14.910   7.716  0.00  0.00    +0.014 C 
ATOM     12  C   UNL     1      -2.707 -14.891   7.989  0.00  0.00    +0.009 C 
ATOM     13  C   UNL     1      -3.041 -13.868   9.073  0.00  0.00    +0.020 C 
ATOM     14  C   UNL     1      -2.615 -12.486   8.578  0.00  0.00    +0.021 C 
ATOM     15  C   UNL     1      -1.107 -12.437   8.430  0.00  0.00    +0.088 C 
ATOM     16  C   UNL     1      -0.789 -11.229   7.547  0.00  0.00    +0.230 C 
ATOM     17  O   UNL     1      -0.673 -10.081   7.920  0.00  0.00    -0.275 OA
BRANCH  13  18
ATOM     18  C   UNL     1      -4.524 -13.878   9.341  0.00  0.00    -0.044 A 
ATOM     19  C   UNL     1      -5.412 -13.588   8.323  0.00  0.00    +0.004 A 
ATOM     20  C   UNL     1      -6.772 -13.597   8.569  0.00  0.00    +0.000 A 
ATOM     21  C   UNL     1      -7.244 -13.895   9.833  0.00  0.00    +0.000 A 
ATOM     22  C   UNL     1      -6.356 -14.186  10.852  0.00  0.00    +0.000 A 
ATOM     23  C   UNL     1      -4.996 -14.181  10.605  0.00  0.00    +0.004 A 
ENDBRANCH  13  18
ENDBRANCH   5   7
BRANCH   1  24
ATOM     24  C   UNL     1      -0.290  -7.122   4.481  0.00  0.00    +0.340 C 
ATOM     25  O   UNL     1      -0.302  -6.663   5.605  0.00  0.00    -0.245 OA
BRANCH  24  26
ATOM     26  O   UNL     1      -0.198  -6.300   3.417  0.00  0.00    -0.452 OA
BRANCH  26  27
ATOM     27  C   UNL     1      -0.118  -4.899   3.686  0.00  0.00    +0.328 C 
BRANCH  27  29
ATOM     28  N   UNL     1       0.066  -2.798   2.393  0.00  0.00    -0.282 N 
ATOM     29  C   UNL     1      -0.021  -4.143   2.386  0.00  0.00    +0.255 C 
ATOM     30  O   UNL     1      -0.021  -4.745   1.333  0.00  0.00    -0.272 OA
ATOM     31  H   UNL     1       0.147  -2.322   3.234  0.00  0.00    +0.155 HD
BRANCH  28  37
ATOM     32  C   UNL     1       1.223   1.233  -0.173  0.00  0.00    +0.044 C 
ATOM     33  C   UNL     1       0.591  -0.133  -0.084  0.00  0.00    -0.046 A 
ATOM     34  C   UNL     1      -0.017  -0.686  -1.197  0.00  0.00    +0.004 A 
ATOM     35  C   UNL     1      -0.597  -1.938  -1.120  0.00  0.00    +0.002 A 
ATOM     36  C   UNL     1      -0.572  -2.641   0.069  0.00  0.00    +0.023 A 
ATOM     37  C   UNL     1       0.038  -2.089   1.187  0.00  0.00    +0.037 A 
ATOM     38  C   UNL     1       0.625  -0.833   1.106  0.00  0.00    -0.026 A 
ATOM     39  C   UNL     1       1.293  -0.232   2.316  0.00  0.00    +0.046 C 
ENDBRANCH  28  37
ENDBRANCH  27  29
ENDBRANCH  26  27
ENDBRANCH  24  26
ENDBRANCH   1  24
TORSDOF 7
