REMARK  Name = ZINC40036437
REMARK  7 active torsions:
REMARK  status: ('A' for Active; 'I' for Inactive)
REMARK    1  A    between atoms: C_1  and  C_2
REMARK    2  A    between atoms: C_2  and  C_3
REMARK    3  A    between atoms: C_3  and  C_4
REMARK    4  A    between atoms: C_4  and  C_38
REMARK    5  A    between atoms: N_16  and  C_32
REMARK    6  A    between atoms: N_19  and  N_20
REMARK    7  A    between atoms: C_21  and  C_22
REMARK                            x       y       z     vdW  Elec       q    Type
REMARK                         _______ _______ _______ _____ _____    ______ ____
ROOT
ATOM      1  C   UNL     1       0.855  -2.932   1.549  0.00  0.00    +0.004 C 
ATOM      2  C   UNL     1       1.834  -3.296   2.663  0.00  0.00    +0.047 C 
ATOM      3  C   UNL     1       3.112  -2.515   2.519  0.00  0.00    -0.037 A 
ATOM      4  C   UNL     1       3.798  -2.086   3.637  0.00  0.00    +0.004 A 
ATOM      5  C   UNL     1       4.975  -1.373   3.497  0.00  0.00    +0.000 A 
ATOM      6  C   UNL     1       5.474  -1.084   2.239  0.00  0.00    +0.001 A 
ATOM      7  C   UNL     1       4.796  -1.506   1.112  0.00  0.00    +0.010 A 
ATOM      8  C   UNL     1       3.611  -2.223   1.249  0.00  0.00    +0.004 A 
ATOM      9  C   UNL     1       2.857  -2.680   0.060  0.00  0.00    +0.084 A 
ATOM     10  C   UNL     1       1.522  -3.029   0.206  0.00  0.00    +0.050 A 
ATOM     11  C   UNL     1       0.812  -3.469  -0.918  0.00  0.00    +0.264 A 
ATOM     12  O   UNL     1      -0.363  -3.786  -0.828  0.00  0.00    -0.267 OA
ATOM     13  N   UNL     1       1.455  -3.535  -2.104  0.00  0.00    -0.248 N 
ATOM     14  C   UNL     1       2.768  -3.175  -2.194  0.00  0.00    +0.223 A 
ATOM     15  N   UNL     1       3.442  -2.762  -1.140  0.00  0.00    -0.214 NA
ATOM     16  N   UNL     1       3.400  -3.246  -3.408  0.00  0.00    -0.206 N 
ATOM     17  C   UNL     1      -0.336  -3.891   1.592  0.00  0.00    +0.017 C 
ATOM     18  H   UNL     1       2.897  -3.476  -4.205  0.00  0.00    +0.177 HD
ENDROOT
BRANCH  13  19
ATOM     19  C   UNL     1       0.772  -3.974  -3.245  0.00  0.00    +0.053 A 
ATOM     20  C   UNL     1       0.784  -5.320  -3.587  0.00  0.00    +0.026 A 
ATOM     21  C   UNL     1       0.110  -5.751  -4.713  0.00  0.00    +0.002 A 
ATOM     22  C   UNL     1      -0.577  -4.843  -5.499  0.00  0.00    +0.000 A 
ATOM     23  C   UNL     1      -0.591  -3.503  -5.161  0.00  0.00    +0.002 A 
ATOM     24  C   UNL     1       0.077  -3.067  -4.033  0.00  0.00    +0.026 A 
ENDBRANCH  13  19
BRANCH  16  25
ATOM     25  N   UNL     1       4.774  -2.985  -3.498  0.00  0.00    -0.188 NA
ATOM     26  C   UNL     1       5.375  -3.052  -4.652  0.00  0.00    +0.137 C 
BRANCH  26  27
ATOM     27  C   UNL     1       6.765  -2.789  -4.743  0.00  0.00    +0.010 C 
ATOM     28  C   UNL     1       7.472  -2.472  -3.631  0.00  0.00    +0.020 C 
ATOM     29  C   UNL     1       8.909  -2.188  -3.787  0.00  0.00    +0.017 A 
ATOM     30  C   UNL     1       9.772  -2.183  -2.693  0.00  0.00    +0.011 A 
ATOM     31  C   UNL     1      11.112  -1.912  -2.885  0.00  0.00    +0.001 A 
ATOM     32  C   UNL     1      11.597  -1.648  -4.155  0.00  0.00    +0.004 A 
ATOM     33  C   UNL     1      10.748  -1.651  -5.248  0.00  0.00    +0.046 A 
ATOM     34  C   UNL     1       9.403  -1.920  -5.074  0.00  0.00    +0.128 A 
ATOM     35  O   UNL     1       8.545  -1.930  -6.125  0.00  0.00    -0.487 OA
ATOM     36  C   UNL     1       7.463  -2.866  -6.076  0.00  0.00    +0.266 C 
ENDBRANCH  26  27
ENDBRANCH  16  25
BRANCH   1  37
ATOM     37  C   UNL     1       0.358  -1.500   1.763  0.00  0.00    +0.011 C 
BRANCH  37  39
ATOM     38  C   UNL     1      -1.142   0.291   0.880  0.00  0.00    +0.004 C 
ATOM     39  C   UNL     1      -0.645  -1.140   0.666  0.00  0.00    -0.003 C 
ENDBRANCH  37  39
ENDBRANCH   1  37
TORSDOF 5
