REMARK  Name = ZINC41006856
REMARK  11 active torsions:
REMARK  status: ('A' for Active; 'I' for Inactive)
REMARK    1  A    between atoms: C_1  and  C_2
REMARK    2  A    between atoms: C_2  and  O_40
REMARK    3  A    between atoms: C_6  and  C_31
REMARK    4  A    between atoms: C_8  and  C_21
REMARK    5  A    between atoms: C_10  and  C_12
REMARK    6  A    between atoms: N_14  and  C_15
REMARK    7  A    between atoms: C_24  and  C_27
REMARK    8  A    between atoms: C_27  and  C_28
REMARK    9  A    between atoms: C_27  and  C_29
REMARK   10  A    between atoms: C_27  and  C_30
REMARK   11  A    between atoms: N_33  and  C_34
REMARK                            x       y       z     vdW  Elec       q    Type
REMARK                         _______ _______ _______ _____ _____    ______ ____
ROOT
ATOM      1  C   UNL     1       1.062   1.939  -0.447  0.00  0.00    +0.042 C 
ATOM      2  C   UNL     1       0.584   0.486  -0.426  0.00  0.00    +0.082 C 
ATOM      3  C   UNL     1      -0.946   0.452  -0.345  0.00  0.00    +0.110 C 
ATOM      4  C   UNL     1      -1.388  -0.986  -0.191  0.00  0.00    +0.148 C 
ATOM      5  O   UNL     1      -2.228  -1.457  -0.920  0.00  0.00    -0.296 OA
ATOM      6  C   UNL     1      -0.751  -1.819   0.899  0.00  0.00    +0.149 C 
ATOM      7  C   UNL     1       0.772  -1.704   0.773  0.00  0.00    +0.053 C 
ATOM      8  C   UNL     1       1.173  -0.228   0.793  0.00  0.00    +0.115 C 
ENDROOT
BRANCH   7   9
ATOM      9  C   UNL     1       1.427  -2.418   1.927  0.00  0.00    -0.042 A 
ATOM     10  C   UNL     1       0.868  -2.350   3.189  0.00  0.00    +0.004 A 
ATOM     11  C   UNL     1       1.469  -3.005   4.248  0.00  0.00    +0.004 A 
ATOM     12  C   UNL     1       2.629  -3.729   4.044  0.00  0.00    -0.042 A 
ATOM     13  C   UNL     1       3.187  -3.799   2.781  0.00  0.00    +0.004 A 
ATOM     14  C   UNL     1       2.584  -3.147   1.722  0.00  0.00    +0.004 A 
BRANCH  12  15
ATOM     15  C   UNL     1       3.285  -4.443   5.198  0.00  0.00    -0.013 C 
ATOM     16  C   UNL     1       2.309  -5.464   5.786  0.00  0.00    +0.015 C 
ATOM     17  C   UNL     1       4.541  -5.163   4.704  0.00  0.00    +0.015 C 
ATOM     18  C   UNL     1       3.669  -3.426   6.274  0.00  0.00    +0.015 C 
ENDBRANCH  12  15
ENDBRANCH   7   9
BRANCH   8  19
ATOM     19  C   UNL     1       0.651   0.416   2.051  0.00  0.00    +0.224 C 
ATOM     20  O   UNL     1      -0.545   0.511   2.233  0.00  0.00    -0.275 OA
ATOM     21  N   UNL     1       1.512   0.887   2.974  0.00  0.00    -0.285 N 
ATOM     22  H   UNL     1       2.463   0.719   2.881  0.00  0.00    +0.155 HD
BRANCH  21  23
ATOM     23  C   UNL     1       1.035   1.619   4.067  0.00  0.00    +0.033 A 
ATOM     24  C   UNL     1      -0.252   1.403   4.541  0.00  0.00    +0.023 A 
ATOM     25  C   UNL     1      -0.720   2.127   5.620  0.00  0.00    +0.002 A 
ATOM     26  C   UNL     1       0.092   3.066   6.229  0.00  0.00    +0.000 A 
ATOM     27  C   UNL     1       1.374   3.285   5.759  0.00  0.00    +0.002 A 
ATOM     28  C   UNL     1       1.850   2.559   4.684  0.00  0.00    +0.023 A 
ENDBRANCH  21  23
ENDBRANCH   8  19
BRANCH   6  29
ATOM     29  C   UNL     1      -1.168  -3.260   0.744  0.00  0.00    +0.228 C 
ATOM     30  O   UNL     1      -0.329  -4.118   0.567  0.00  0.00    -0.275 OA
ATOM     31  N   UNL     1      -2.472  -3.594   0.802  0.00  0.00    -0.285 N 
ATOM     32  H   UNL     1      -3.150  -2.900   0.830  0.00  0.00    +0.155 HD
BRANCH  31  33
ATOM     33  C   UNL     1      -2.849  -4.941   0.823  0.00  0.00    +0.033 A 
ATOM     34  C   UNL     1      -4.053  -5.335   0.253  0.00  0.00    +0.023 A 
ATOM     35  C   UNL     1      -4.422  -6.666   0.275  0.00  0.00    +0.002 A 
ATOM     36  C   UNL     1      -3.594  -7.605   0.863  0.00  0.00    +0.000 A 
ATOM     37  C   UNL     1      -2.395  -7.215   1.431  0.00  0.00    +0.002 A 
ATOM     38  C   UNL     1      -2.017  -5.887   1.407  0.00  0.00    +0.023 A 
ENDBRANCH  31  33
ENDBRANCH   6  29
BRANCH   2  39
ATOM     39  O   UNL     1       1.013  -0.175  -1.618  0.00  0.00    -0.388 OA
ATOM     40  H   UNL     1       0.676   0.225  -2.432  0.00  0.00    +0.210 HD
ENDBRANCH   2  39
TORSDOF 7
