REMARK  Name = ZINC04801109
REMARK  7 active torsions:
REMARK  status: ('A' for Active; 'I' for Inactive)
REMARK    1  A    between atoms: C_1  and  C_2
REMARK    2  A    between atoms: C_6  and  N_8
REMARK    3  A    between atoms: C_12  and  C_14
REMARK    4  A    between atoms: C_15  and  C_16
REMARK    5  A    between atoms: C_15  and  N_62
REMARK    6  A    between atoms: C_21  and  N_34
REMARK    7  A    between atoms: N_26  and  C_27
REMARK                            x       y       z     vdW  Elec       q    Type
REMARK                         _______ _______ _______ _____ _____    ______ ____
ROOT
ATOM      1  C   UNL     1      -4.997  -3.203   2.427  0.00  0.00    +0.101 A 
ATOM      2  N   UNL     1      -3.986  -3.181   3.241  0.00  0.00    -0.235 NA
ATOM      3  C   UNL     1      -3.974  -3.917   4.381  0.00  0.00    +0.078 A 
ATOM      4  C   UNL     1      -2.888  -3.890   5.258  0.00  0.00    +0.031 A 
ATOM      5  C   UNL     1      -2.916  -4.657   6.401  0.00  0.00    +0.035 A 
ATOM      6  C   UNL     1      -4.011  -5.460   6.692  0.00  0.00    +0.127 A 
ATOM      7  C   UNL     1      -5.094  -5.504   5.842  0.00  0.00    +0.048 A 
ATOM      8  C   UNL     1      -5.086  -4.734   4.680  0.00  0.00    +0.067 A 
ATOM      9  C   UNL     1      -6.213  -4.741   3.736  0.00  0.00    +0.266 A 
ATOM     10  O   UNL     1      -7.201  -5.423   3.936  0.00  0.00    -0.267 OA
ATOM     11  N   UNL     1      -6.108  -3.959   2.636  0.00  0.00    -0.263 N 
ENDROOT
BRANCH  11  12
ATOM     12  C   UNL     1      -7.154  -3.929   1.704  0.00  0.00    +0.086 A 
ATOM     13  C   UNL     1      -7.163  -4.820   0.639  0.00  0.00    +0.029 A 
ATOM     14  C   UNL     1      -8.198  -4.791  -0.276  0.00  0.00    +0.002 A 
ATOM     15  C   UNL     1      -9.220  -3.869  -0.139  0.00  0.00    +0.003 A 
ATOM     16  C   UNL     1      -9.213  -2.977   0.917  0.00  0.00    +0.040 A 
ATOM     17  C   UNL     1      -8.182  -3.003   1.840  0.00  0.00    +0.147 A 
ATOM     18  F   UNL     1      -8.175  -2.131   2.871  0.00  0.00    -0.203 F 
ENDBRANCH  11  12
BRANCH   6  19
ATOM     19  N   UNL     1      -4.014  -6.275   7.928  0.00  0.00    +0.056 N 
ATOM     20  O   UNL     1      -4.972  -6.981   8.189  0.00  0.00    -0.126 OA
ATOM     21  O   UNL     1      -3.060  -6.241   8.684  0.00  0.00    -0.126 OA
ENDBRANCH   6  19
BRANCH   1  22
ATOM     22  C   UNL     1      -4.935  -2.352   1.185  0.00  0.00    -0.003 C 
BRANCH  22  29
ATOM     23  N   UNL     1      -1.216  -0.741  -0.009  0.00  0.00    -0.331 N 
ATOM     24  C   UNL     1      -1.218  -1.756   1.054  0.00  0.00    +0.087 C 
ATOM     25  C   UNL     1      -2.528  -2.545   1.000  0.00  0.00    -0.059 C 
ATOM     26  C   UNL     1      -3.659  -0.608   0.092  0.00  0.00    -0.056 C 
ATOM     27  C   UNL     1      -2.349   0.182   0.146  0.00  0.00    +0.054 C 
ATOM     28  C   UNL     1      -2.327   1.212  -0.986  0.00  0.00    +0.026 C 
ATOM     29  N   UNL     1      -3.657  -1.608   1.180  0.00  0.00    +0.387 N 
ATOM     30  H   UNL     1      -3.549  -1.124   2.079  0.00  0.00    -0.081 HD
BRANCH  23  36
ATOM     31  C   UNL     1       3.046   0.238  -2.251  0.00  0.00    +0.044 C 
ATOM     32  C   UNL     1       2.082   0.447  -1.112  0.00  0.00    -0.049 A 
ATOM     33  C   UNL     1       2.397   1.327  -0.092  0.00  0.00    +0.003 A 
ATOM     34  C   UNL     1       1.514   1.522   0.954  0.00  0.00    +0.002 A 
ATOM     35  C   UNL     1       0.315   0.837   0.985  0.00  0.00    +0.023 A 
ATOM     36  C   UNL     1      -0.004  -0.047  -0.037  0.00  0.00    +0.030 A 
ATOM     37  C   UNL     1       0.884  -0.241  -1.088  0.00  0.00    +0.026 A 
ENDBRANCH  23  36
ENDBRANCH  22  29
ENDBRANCH   1  22
TORSDOF 5
