REMARK  Name = ZINC30979802
REMARK  11 active torsions:
REMARK  status: ('A' for Active; 'I' for Inactive)
REMARK    1  A    between atoms: C_1  and  C_2
REMARK    2  A    between atoms: C_5  and  C_9
REMARK    3  A    between atoms: C_6  and  C_8
REMARK    4  A    between atoms: C_9  and  C_11
REMARK    5  A    between atoms: C_9  and  N_14
REMARK    6  A    between atoms: C_11  and  C_12
REMARK    7  A    between atoms: C_11  and  C_13
REMARK    8  A    between atoms: C_15  and  C_17
REMARK    9  A    between atoms: N_20  and  C_23
REMARK   10  A    between atoms: C_23  and  C_24
REMARK   11  A    between atoms: C_26  and  C_29
REMARK                            x       y       z     vdW  Elec       q    Type
REMARK                         _______ _______ _______ _____ _____    ______ ____
ROOT
ATOM      1  C   UNL     1      -4.011   7.662   0.990  0.00  0.00    +0.071 C 
ATOM      2  C   UNL     1      -2.986   7.923   2.098  0.00  0.00    -0.006 C 
ATOM      3  C   UNL     1      -3.036   9.399   2.495  0.00  0.00    -0.077 C 
ATOM      4  N   UNL     1      -4.386   9.736   2.964  0.00  0.00    +0.386 N 
ATOM      5  C   UNL     1      -5.382   9.539   1.903  0.00  0.00    -0.077 C 
ATOM      6  C   UNL     1      -5.402   8.066   1.487  0.00  0.00    -0.006 C 
ATOM      7  H   UNL     1      -4.635   9.051   3.788  0.00  0.00    -0.081 HD
ENDROOT
BRANCH   1   9
ATOM      8  N   UNL     1      -2.884   5.618   0.172  0.00  0.00    -0.308 N 
ATOM      9  C   UNL     1      -4.009   6.198   0.636  0.00  0.00    +0.216 C 
ATOM     10  O   UNL     1      -5.019   5.540   0.767  0.00  0.00    -0.276 OA
ATOM     11  H   UNL     1      -1.967   6.214   0.053  0.00  0.00    +0.149 HD
BRANCH   8  12
ATOM     12  C   UNL     1      -2.881   4.194  -0.172  0.00  0.00    +0.106 C 
BRANCH  12  17
ATOM     13  C   UNL     1       2.476   2.093   0.359  0.00  0.00    +0.044 C 
ATOM     14  C   UNL     1       1.079   2.641   0.221  0.00  0.00    -0.050 A 
ATOM     15  C   UNL     1       0.883   3.923  -0.260  0.00  0.00    +0.004 A 
ATOM     16  C   UNL     1      -0.398   4.425  -0.387  0.00  0.00    +0.006 A 
ATOM     17  C   UNL     1      -1.484   3.646  -0.034  0.00  0.00    -0.024 A 
ATOM     18  C   UNL     1      -1.289   2.363   0.441  0.00  0.00    -0.045 A 
ATOM     19  C   UNL     1      -0.007   1.862   0.574  0.00  0.00    +0.007 A 
ATOM     20  C   UNL     1      -2.473   1.511   0.820  0.00  0.00    +0.044 C 
ENDBRANCH  12  17
BRANCH  12  21
ATOM     21  C   UNL     1      -3.358   4.018  -1.615  0.00  0.00    +0.008 C 
ATOM     22  C   UNL     1      -2.356   4.674  -2.567  0.00  0.00    +0.009 C 
ATOM     23  C   UNL     1      -3.466   2.526  -1.938  0.00  0.00    +0.009 C 
ENDBRANCH  12  21
ENDBRANCH   8  12
ENDBRANCH   1   9
BRANCH   4  24
ATOM     24  C   UNL     1      -4.436  11.109   3.484  0.00  0.00    +0.022 C 
BRANCH  24  25
ATOM     25  C   UNL     1      -3.585  11.207   4.724  0.00  0.00    +0.211 A 
ATOM     26  N   UNL     1      -2.312  11.513   4.772  0.00  0.00    -0.193 NA
ATOM     27  C   UNL     1      -1.980  11.480   6.082  0.00  0.00    +0.202 A 
ATOM     28  N   UNL     1      -3.060  11.159   6.747  0.00  0.00    -0.056 NA
ATOM     29  O   UNL     1      -3.989  11.005   5.982  0.00  0.00    -0.340 OA
BRANCH  27  30
ATOM     30  C   UNL     1      -0.640  11.755   6.659  0.00  0.00    +0.023 A 
ATOM     31  C   UNL     1       0.426  12.081   5.823  0.00  0.00    +0.013 A 
ATOM     32  C   UNL     1       1.669  12.341   6.364  0.00  0.00    +0.016 A 
ATOM     33  C   UNL     1       1.859  12.268   7.734  0.00  0.00    +0.018 A 
ATOM     34  C   UNL     1       0.804  11.940   8.567  0.00  0.00    +0.016 A 
ATOM     35  C   UNL     1      -0.444  11.683   8.036  0.00  0.00    +0.013 A 
ATOM     36 BR   UNL     1       3.566  12.618   8.468  0.00  0.00    -0.050 Br
ENDBRANCH  27  30
ENDBRANCH  24  25
ENDBRANCH   4  24
TORSDOF 7
