REMARK  Name = ZINC11880992
REMARK  12 active torsions:
REMARK  status: ('A' for Active; 'I' for Inactive)
REMARK    1  A    between atoms: C_1  and  C_2
REMARK    2  A    between atoms: C_2  and  C_3
REMARK    3  A    between atoms: C_3  and  C_4
REMARK    4  A    between atoms: C_4  and  C_18
REMARK    5  A    between atoms: N_7  and  C_11
REMARK    6  A    between atoms: C_11  and  C_12
REMARK    7  A    between atoms: C_23  and  C_24
REMARK    8  A    between atoms: C_23  and  N_70
REMARK    9  A    between atoms: C_28  and  O_31
REMARK   10  A    between atoms: C_29  and  O_30
REMARK   11  A    between atoms: O_31  and  C_32
REMARK   12  A    between atoms: C_32  and  C_33
REMARK                            x       y       z     vdW  Elec       q    Type
REMARK                         _______ _______ _______ _____ _____    ______ ____
ROOT
ATOM      1  C   UNL     1       1.762  -1.218   1.237  0.00  0.00    +0.018 C 
ATOM      2  C   UNL     1       0.901  -2.483   1.278  0.00  0.00    -0.013 C 
ATOM      3  C   UNL     1       1.204  -3.259   2.562  0.00  0.00    -0.078 C 
ATOM      4  C   UNL     1       1.769  -1.214   3.734  0.00  0.00    -0.078 C 
ATOM      5  C   UNL     1       1.482  -0.377   2.486  0.00  0.00    -0.013 C 
ATOM      6  N   UNL     1       0.890  -2.403   3.727  0.00  0.00    +0.382 N 
ATOM      7  H   UNL     1      -0.086  -2.095   3.660  0.00  0.00    -0.081 HD
ENDROOT
BRANCH   1   8
ATOM      8  C   UNL     1       1.419  -0.406  -0.014  0.00  0.00    +0.115 C 
ATOM      9  C   UNL     1       2.164   0.914  -0.014  0.00  0.00    +0.247 C 
ATOM     10  O   UNL     1       3.365   1.077  -0.024  0.00  0.00    -0.273 OA
ATOM     11  N   UNL     1       1.213   1.869   0.001  0.00  0.00    -0.222 N 
ATOM     12  C   UNL     1      -0.016   1.341   0.009  0.00  0.00    +0.309 C 
ATOM     13  O   UNL     1      -1.036   2.003   0.018  0.00  0.00    -0.252 OA
ATOM     14  N   UNL     1       0.002  -0.004   0.002  0.00  0.00    -0.285 N 
ATOM     15  H   UNL     1      -0.768  -0.594   0.006  0.00  0.00    +0.151 HD
BRANCH   8  16
ATOM     16  C   UNL     1       1.738  -1.204  -1.279  0.00  0.00    +0.035 C 
BRANCH  16  18
ATOM     17  C   UNL     1       1.756  -1.147  -3.777  0.00  0.00    +0.004 C 
ATOM     18  C   UNL     1       1.437  -0.348  -2.511  0.00  0.00    -0.001 C 
ENDBRANCH  16  18
ENDBRANCH   8  16
BRANCH  11  19
ATOM     19  C   UNL     1       1.491   3.307   0.005  0.00  0.00    +0.149 C 
BRANCH  19  20
ATOM     20  C   UNL     1       1.602   3.801   1.448  0.00  0.00    +0.136 C 
ATOM     21  C   UNL     1       1.780   5.335   1.465  0.00  0.00    +0.035 C 
ATOM     22  C   UNL     1       2.811   5.534   2.610  0.00  0.00    +0.031 C 
ATOM     23  C   UNL     1       3.677   4.259   2.452  0.00  0.00    +0.160 C 
ATOM     24  O   UNL     1       2.755   3.224   2.072  0.00  0.00    -0.375 OA
ENDBRANCH  19  20
ENDBRANCH  11  19
ENDBRANCH   1   8
BRANCH   6  25
ATOM     25  C   UNL     1       1.067  -3.169   4.978  0.00  0.00    -0.039 C 
BRANCH  25  26
ATOM     26  C   UNL     1       0.380  -4.503   4.841  0.00  0.00    -0.019 A 
ATOM     27  C   UNL     1      -0.878  -4.692   5.383  0.00  0.00    +0.005 A 
ATOM     28  C   UNL     1      -1.513  -5.912   5.255  0.00  0.00    +0.004 A 
ATOM     29  C   UNL     1      -0.889  -6.954   4.593  0.00  0.00    +0.049 A 
ATOM     30  C   UNL     1       0.373  -6.774   4.053  0.00  0.00    +0.162 A 
ATOM     31  C   UNL     1       1.011  -5.543   4.177  0.00  0.00    +0.160 A 
BRANCH  31  32
ATOM     32  O   UNL     1       2.251  -5.361   3.649  0.00  0.00    -0.503 OA
ATOM     33  H   UNL     1       2.972  -5.573   4.256  0.00  0.00    +0.292 HD
ENDBRANCH  31  32
BRANCH  30  34
ATOM     34  O   UNL     1       0.989  -7.797   3.402  0.00  0.00    -0.489 OA
BRANCH  34  35
ATOM     35  C   UNL     1       0.275  -9.032   3.313  0.00  0.00    +0.226 C 
ATOM     36  C   UNL     1       1.120 -10.056   2.553  0.00  0.00    +0.048 C 
ENDBRANCH  34  35
ENDBRANCH  30  34
ENDBRANCH  25  26
ENDBRANCH   6  25
TORSDOF 10
