REMARK  Name = ZINC01154332
REMARK  6 active torsions:
REMARK  status: ('A' for Active; 'I' for Inactive)
REMARK    1  A    between atoms: C_1  and  C_2
REMARK    2  A    between atoms: C_5  and  N_9
REMARK    3  A    between atoms: C_6  and  C_8
REMARK    4  A    between atoms: C_10  and  C_12
REMARK    5  A    between atoms: C_13  and  C_30
REMARK    6  A    between atoms: C_18  and  C_20
REMARK                            x       y       z     vdW  Elec       q    Type
REMARK                         _______ _______ _______ _____ _____    ______ ____
ROOT
ATOM      1  C   UNL     1      -0.205  -6.556  -0.914  0.00  0.00    +0.056 C 
ATOM      2  C   UNL     1      -0.430  -7.458  -1.892  0.00  0.00    +0.019 C 
ATOM      3  N   UNL     1      -0.492  -8.795  -1.617  0.00  0.00    -0.273 N 
ATOM      4  C   UNL     1      -0.339  -9.309  -0.390  0.00  0.00    +0.304 C 
ATOM      5  O   UNL     1      -0.411 -10.513  -0.243  0.00  0.00    -0.252 OA
ATOM      6  N   UNL     1      -0.107  -8.533   0.688  0.00  0.00    -0.288 N 
ATOM      7  C   UNL     1      -0.016  -7.076   0.496  0.00  0.00    +0.142 C 
ATOM      8  C   UNL     1      -0.618  -6.983  -3.310  0.00  0.00    +0.061 C 
ATOM      9  H   UNL     1      -0.656  -9.406  -2.352  0.00  0.00    +0.156 HD
ATOM     10  H   UNL     1       0.002  -8.926   1.568  0.00  0.00    +0.151 HD
ENDROOT
BRANCH   7  11
ATOM     11  C   UNL     1      -1.060  -6.431   1.372  0.00  0.00    -0.015 A 
ATOM     12  C   UNL     1      -2.257  -7.046   1.575  0.00  0.00    +0.006 A 
ATOM     13  C   UNL     1      -3.234  -6.465   2.382  0.00  0.00    +0.001 A 
ATOM     14  C   UNL     1      -3.019  -5.266   2.990  0.00  0.00    +0.008 A 
ATOM     15  C   UNL     1      -1.795  -4.602   2.804  0.00  0.00    -0.018 A 
ATOM     16  C   UNL     1      -0.799  -5.196   1.988  0.00  0.00    -0.013 A 
ATOM     17  C   UNL     1       0.428  -4.534   1.807  0.00  0.00    +0.009 A 
ATOM     18  C   UNL     1       0.645  -3.339   2.420  0.00  0.00    +0.001 A 
ATOM     19  C   UNL     1      -0.332  -2.758   3.227  0.00  0.00    +0.001 A 
ATOM     20  C   UNL     1      -1.536  -3.363   3.415  0.00  0.00    +0.008 A 
ENDBRANCH   7  11
BRANCH   1  22
ATOM     21  N   UNL     1      -1.273  -4.471  -1.407  0.00  0.00    -0.281 N 
ATOM     22  C   UNL     1      -0.140  -5.169  -1.198  0.00  0.00    +0.248 C 
ATOM     23  O   UNL     1       0.940  -4.609  -1.254  0.00  0.00    -0.270 OA
ATOM     24  H   UNL     1      -2.136  -4.900  -1.294  0.00  0.00    +0.155 HD
BRANCH  21  29
ATOM     25  C   UNL     1      -1.000   0.984  -2.941  0.00  0.00    +0.044 C 
ATOM     26  C   UNL     1      -1.073  -0.465  -2.533  0.00  0.00    -0.050 A 
ATOM     27  C   UNL     1      -0.063  -1.018  -1.767  0.00  0.00    +0.005 A 
ATOM     28  C   UNL     1      -0.126  -2.345  -1.392  0.00  0.00    +0.024 A 
ATOM     29  C   UNL     1      -1.206  -3.126  -1.785  0.00  0.00    +0.037 A 
ATOM     30  C   UNL     1      -2.219  -2.568  -2.554  0.00  0.00    -0.029 A 
ATOM     31  C   UNL     1      -2.152  -1.238  -2.921  0.00  0.00    +0.008 A 
ATOM     32  C   UNL     1      -3.392  -3.411  -2.983  0.00  0.00    +0.045 C 
ENDBRANCH  21  29
ENDBRANCH   1  22
TORSDOF 3
