REMARK  Name = ZINC06282225
REMARK  11 active torsions:
REMARK  status: ('A' for Active; 'I' for Inactive)
REMARK    1  A    between atoms: C_1  and  C_2
REMARK    2  A    between atoms: C_7  and  C_14
REMARK    3  A    between atoms: C_14  and  C_16
REMARK    4  A    between atoms: C_14  and  N_71
REMARK    5  A    between atoms: N_20  and  C_21
REMARK    6  A    between atoms: C_21  and  C_22
REMARK    7  A    between atoms: C_21  and  C_23
REMARK    8  A    between atoms: C_21  and  C_24
REMARK    9  A    between atoms: N_27  and  C_30
REMARK   10  A    between atoms: C_34  and  C_37
REMARK   11  A    between atoms: C_35  and  C_36
REMARK                            x       y       z     vdW  Elec       q    Type
REMARK                         _______ _______ _______ _____ _____    ______ ____
ROOT
ATOM      1  C   UNL     1       5.044   1.143  -0.080  0.00  0.00    +0.039 C 
ENDROOT
BRANCH   1   8
ATOM      2  C   UNL     1      -1.947   4.901  -0.868  0.00  0.00    +0.044 C 
ATOM      3  C   UNL     1      -0.753   3.996  -0.706  0.00  0.00    -0.048 A 
ATOM      4  C   UNL     1      -0.942   2.626  -0.585  0.00  0.00    +0.004 A 
ATOM      5  C   UNL     1       0.126   1.788  -0.431  0.00  0.00    +0.010 A 
ATOM      6  C   UNL     1       1.422   2.314  -0.408  0.00  0.00    -0.001 A 
ATOM      7  C   UNL     1       2.589   1.444  -0.252  0.00  0.00    +0.017 A 
ATOM      8  C   UNL     1       3.821   2.010  -0.238  0.00  0.00    +0.011 A 
ATOM      9  C   UNL     1       3.963   3.408  -0.371  0.00  0.00    +0.251 A 
ATOM     10  O   UNL     1       5.080   3.896  -0.356  0.00  0.00    -0.268 OA
ATOM     11  N   UNL     1       2.897   4.215  -0.515  0.00  0.00    -0.322 N 
ATOM     12  H   UNL     1       3.030   5.171  -0.604  0.00  0.00    +0.169 HD
ATOM     13  C   UNL     1       1.618   3.701  -0.537  0.00  0.00    +0.049 A 
ATOM     14  C   UNL     1       0.514   4.536  -0.687  0.00  0.00    +0.029 A 
ENDBRANCH   1   8
BRANCH   1  20
ATOM     15  C   UNL     1       5.308   1.170  -2.487  0.00  0.00    -0.058 C 
ATOM     16  C   UNL     1       6.278   1.516  -3.619  0.00  0.00    +0.086 C 
ATOM     17  N   UNL     1       7.485   0.686  -3.497  0.00  0.00    -0.333 N 
ATOM     18  C   UNL     1       8.146   0.909  -2.204  0.00  0.00    +0.086 C 
ATOM     19  C   UNL     1       7.176   0.563  -1.072  0.00  0.00    -0.058 C 
ATOM     20  N   UNL     1       5.977   1.419  -1.193  0.00  0.00    +0.391 N 
ATOM     21  H   UNL     1       6.265   2.404  -1.151  0.00  0.00    -0.080 HD
BRANCH  17  22
ATOM     22  C   UNL     1       8.364   0.923  -4.556  0.00  0.00    +0.033 A 
ATOM     23  C   UNL     1       8.942   2.177  -4.714  0.00  0.00    +0.023 A 
ATOM     24  C   UNL     1       9.811   2.408  -5.762  0.00  0.00    +0.002 A 
ATOM     25  C   UNL     1      10.106   1.393  -6.654  0.00  0.00    +0.004 A 
ATOM     26  C   UNL     1       9.533   0.144  -6.500  0.00  0.00    -0.046 A 
ATOM     27  C   UNL     1       8.667  -0.095  -5.451  0.00  0.00    -0.027 A 
ATOM     28  C   UNL     1       8.047  -1.458  -5.280  0.00  0.00    +0.046 C 
ATOM     29  C   UNL     1       9.857  -0.958  -7.475  0.00  0.00    +0.044 C 
ENDBRANCH  17  22
ENDBRANCH   1  20
BRANCH   1  30
ATOM     30  C   UNL     1       5.727   1.471   1.223  0.00  0.00    +0.143 A 
ATOM     31  N   UNL     1       6.370   2.576   1.513  0.00  0.00    -0.115 NA
ATOM     32  N   UNL     1       6.808   2.476   2.721  0.00  0.00    -0.023 NA
ATOM     33  N   UNL     1       6.467   1.333   3.206  0.00  0.00    -0.043 NA
ATOM     34  N   UNL     1       5.799   0.684   2.313  0.00  0.00    -0.225 N 
BRANCH  34  35
ATOM     35  C   UNL     1       5.227  -0.656   2.458  0.00  0.00    +0.059 C 
ATOM     36  C   UNL     1       5.881  -1.602   1.448  0.00  0.00    +0.036 C 
ATOM     37  C   UNL     1       5.482  -1.169   3.876  0.00  0.00    +0.036 C 
ATOM     38  C   UNL     1       3.720  -0.598   2.200  0.00  0.00    +0.036 C 
ENDBRANCH  34  35
ENDBRANCH   1  30
TORSDOF 5
