REMARK  Name = ZINC63234477
REMARK  7 active torsions:
REMARK  status: ('A' for Active; 'I' for Inactive)
REMARK    1  A    between atoms: C_4  and  N_11
REMARK    2  A    between atoms: C_5  and  C_7
REMARK    3  A    between atoms: C_12  and  C_14
REMARK    4  A    between atoms: C_14  and  C_15
REMARK    5  A    between atoms: C_15  and  C_16
REMARK    6  A    between atoms: C_16  and  C_17
REMARK    7  A    between atoms: C_25  and  C_27
REMARK                            x       y       z     vdW  Elec       q    Type
REMARK                         _______ _______ _______ _____ _____    ______ ____
ROOT
ATOM      1  C   UNL     1       8.556  -0.442  -0.519  0.00  0.00    +0.034 C 
ENDROOT
BRANCH   1   2
ATOM      2  C   UNL     1       9.685   0.551  -0.625  0.00  0.00    -0.033 C 
ATOM      3  C   UNL     1       9.586   1.900  -0.604  0.00  0.00    +0.001 A 
ATOM      4  C   UNL     1       8.442   2.811  -0.481  0.00  0.00    +0.030 A 
ATOM      5  C   UNL     1       8.662   4.146  -0.493  0.00  0.00    +0.042 A 
ATOM      6  C   UNL     1       9.953   4.679  -0.620  0.00  0.00    +0.022 A 
ATOM      7  C   UNL     1      11.053   3.906  -0.737  0.00  0.00    +0.027 A 
ATOM      8  C   UNL     1      10.938   2.488  -0.736  0.00  0.00    +0.043 A 
ATOM      9  N   UNL     1      11.838   1.540  -0.836  0.00  0.00    -0.372 N 
ATOM     10  C   UNL     1      11.158   0.241  -0.771  0.00  0.00    +0.155 C 
ATOM     11 CL   UNL     1       7.311   5.227  -0.348  0.00  0.00    -0.084 Cl
ATOM     12  H   UNL     1      12.794   1.674  -0.932  0.00  0.00    +0.161 HD
BRANCH  10  13
ATOM     13  C   UNL     1      11.643  -0.544   0.420  0.00  0.00    +0.068 A 
ATOM     14  C   UNL     1      12.280  -1.756   0.226  0.00  0.00    +0.026 A 
ATOM     15  C   UNL     1      12.723  -2.470   1.329  0.00  0.00    +0.003 A 
ATOM     16  C   UNL     1      12.508  -1.937   2.591  0.00  0.00    +0.020 A 
ATOM     17  C   UNL     1      11.864  -0.720   2.707  0.00  0.00    +0.111 A 
ATOM     18  N   UNL     1      11.461  -0.065   1.635  0.00  0.00    -0.257 NA
ENDBRANCH  10  13
ENDBRANCH   1   2
BRANCH   1  19
ATOM     19  C   UNL     1       7.229   0.307  -0.386  0.00  0.00    +0.014 C 
BRANCH  19  20
ATOM     20  C   UNL     1       6.083  -0.701  -0.278  0.00  0.00    +0.096 C 
BRANCH  20  22
ATOM     21  N   UNL     1       3.622  -0.651  -0.037  0.00  0.00    -0.285 N 
ATOM     22  C   UNL     1       4.775   0.037  -0.147  0.00  0.00    +0.217 C 
ATOM     23  O   UNL     1       4.761   1.250  -0.141  0.00  0.00    -0.275 OA
ATOM     24  H   UNL     1       3.639  -1.618   0.038  0.00  0.00    +0.155 HD
BRANCH  21  28
ATOM     25  C   UNL     1      -0.019   1.375  -0.023  0.00  0.00    +0.001 A 
ATOM     26  C   UNL     1       1.087   1.947  -0.626  0.00  0.00    +0.002 A 
ATOM     27  C   UNL     1       2.295   1.278  -0.633  0.00  0.00    +0.024 A 
ATOM     28  C   UNL     1       2.399   0.030  -0.032  0.00  0.00    +0.045 A 
ATOM     29  C   UNL     1       1.287  -0.541   0.573  0.00  0.00    +0.076 A 
ATOM     30  C   UNL     1       0.082   0.133   0.576  0.00  0.00    +0.014 A 
BRANCH  29  31
ATOM     31  C   UNL     1       1.396  -1.895   1.226  0.00  0.00    +0.419 C 
ATOM     32  F   UNL     1       0.155  -2.255   1.761  0.00  0.00    -0.166 F 
ATOM     33  F   UNL     1       1.785  -2.842   0.273  0.00  0.00    -0.166 F 
ATOM     34  F   UNL     1       2.349  -1.845   2.249  0.00  0.00    -0.166 F 
ENDBRANCH  29  31
ENDBRANCH  21  28
ENDBRANCH  20  22
ENDBRANCH  19  20
ENDBRANCH   1  19
TORSDOF 7
