REMARK  Name = ZINC59578155
REMARK  8 active torsions:
REMARK  status: ('A' for Active; 'I' for Inactive)
REMARK    1  A    between atoms: C_1  and  C_2
REMARK    2  A    between atoms: C_15  and  C_17
REMARK    3  A    between atoms: C_17  and  N_18
REMARK    4  A    between atoms: N_18  and  C_19
REMARK    5  A    between atoms: N_18  and  C_22
REMARK    6  A    between atoms: C_22  and  C_24
REMARK    7  A    between atoms: C_22  and  C_25
REMARK    8  A    between atoms: C_29  and  C_31
REMARK                            x       y       z     vdW  Elec       q    Type
REMARK                         _______ _______ _______ _____ _____    ______ ____
ROOT
ATOM      1  C   UNL     1       2.711  -1.393   2.315  0.00  0.00    +0.020 C 
ENDROOT
BRANCH   1  15
ATOM      2  C   UNL     1      -1.091  -4.013   2.684  0.00  0.00    +0.029 C 
ATOM      3  C   UNL     1      -0.129  -3.517   3.767  0.00  0.00    +0.087 C 
ATOM      4  C   UNL     1      -0.929  -3.074   4.992  0.00  0.00    +0.118 C 
ATOM      5  C   UNL     1      -0.068  -2.230   5.895  0.00  0.00    +0.219 C 
ATOM      6  O   UNL     1       0.375  -2.704   6.920  0.00  0.00    -0.275 OA
ATOM      7  N   UNL     1       0.214  -0.950   5.571  0.00  0.00    -0.284 N 
ATOM      8  C   UNL     1      -0.208  -0.418   4.347  0.00  0.00    +0.055 A 
ATOM      9  C   UNL     1      -0.865   0.799   4.290  0.00  0.00    +0.025 A 
ATOM     10  C   UNL     1      -1.252   1.316   3.067  0.00  0.00    +0.002 A 
ATOM     11  C   UNL     1      -0.984   0.621   1.901  0.00  0.00    +0.002 A 
ATOM     12  C   UNL     1      -0.337  -0.600   1.950  0.00  0.00    +0.025 A 
ATOM     13  C   UNL     1       0.044  -1.129   3.173  0.00  0.00    +0.058 A 
ATOM     14  N   UNL     1       0.648  -2.390   3.248  0.00  0.00    -0.268 N 
ATOM     15  C   UNL     1       1.923  -2.562   2.847  0.00  0.00    +0.204 C 
ATOM     16  O   UNL     1       2.437  -3.659   2.915  0.00  0.00    -0.277 OA
ATOM     17  H   UNL     1       0.713  -0.395   6.191  0.00  0.00    +0.155 HD
ENDBRANCH   1  15
BRANCH   1  18
ATOM     18  N   UNL     1       4.096  -1.810   2.061  0.00  0.00    +0.392 N 
ATOM     19  H   UNL     1       4.614  -1.037   1.672  0.00  0.00    -0.080 HD
BRANCH  18  20
ATOM     20  C   UNL     1       4.103  -2.931   1.111  0.00  0.00    -0.067 C 
ATOM     21  C   UNL     1       5.082  -2.857  -0.062  0.00  0.00    -0.017 C 
ATOM     22  C   UNL     1       3.583  -2.663  -0.302  0.00  0.00    -0.017 C 
ENDBRANCH  18  20
BRANCH  18  23
ATOM     23  C   UNL     1       4.720  -2.232   3.322  0.00  0.00    -0.040 C 
ATOM     24  C   UNL     1       6.127  -2.765   3.042  0.00  0.00    -0.008 C 
BRANCH  23  25
ATOM     25  C   UNL     1       4.805  -1.055   4.259  0.00  0.00    -0.061 A 
ATOM     26  C   UNL     1       5.137   0.195   3.770  0.00  0.00    +0.002 A 
ATOM     27  C   UNL     1       5.216   1.274   4.630  0.00  0.00    +0.001 A 
ATOM     28  C   UNL     1       4.961   1.104   5.978  0.00  0.00    +0.012 A 
ATOM     29  C   UNL     1       4.628  -0.145   6.466  0.00  0.00    +0.055 A 
ATOM     30  C   UNL     1       4.545  -1.224   5.606  0.00  0.00    +0.014 A 
BRANCH  29  31
ATOM     31  C   UNL     1       4.351  -0.330   7.936  0.00  0.00    +0.417 C 
ATOM     32  F   UNL     1       4.492   0.896   8.595  0.00  0.00    -0.166 F 
ATOM     33  F   UNL     1       3.046  -0.805   8.109  0.00  0.00    -0.166 F 
ATOM     34  F   UNL     1       5.257  -1.254   8.469  0.00  0.00    -0.166 F 
ENDBRANCH  29  31
ENDBRANCH  23  25
ENDBRANCH  18  23
ENDBRANCH   1  18
TORSDOF 6
