REMARK  Name = ZINC35991081
REMARK  10 active torsions:
REMARK  status: ('A' for Active; 'I' for Inactive)
REMARK    1  A    between atoms: C_1  and  C_2
REMARK    2  A    between atoms: C_2  and  N_3
REMARK    3  A    between atoms: C_4  and  C_23
REMARK    4  A    between atoms: C_5  and  C_18
REMARK    5  A    between atoms: C_6  and  C_11
REMARK    6  A    between atoms: C_18  and  O_20
REMARK    7  A    between atoms: O_20  and  C_21
REMARK    8  A    between atoms: C_21  and  C_22
REMARK    9  A    between atoms: C_23  and  N_24
REMARK   10  A    between atoms: C_27  and  C_30
REMARK                            x       y       z     vdW  Elec       q    Type
REMARK                         _______ _______ _______ _____ _____    ______ ____
ROOT
ATOM      1  N   UNL     1       0.415  -0.074  -1.204  0.00  0.00    -0.261 N 
ATOM      2  C   UNL     1      -0.234  -0.616  -2.276  0.00  0.00    +0.010 C 
ATOM      3  C   UNL     1       0.444  -1.277  -3.239  0.00  0.00    +0.077 C 
ATOM      4  C   UNL     1       1.947  -1.396  -3.088  0.00  0.00    +0.146 C 
ATOM      5  N   UNL     1       2.549  -0.776  -1.896  0.00  0.00    -0.288 N 
ATOM      6  C   UNL     1       1.740  -0.144  -1.024  0.00  0.00    +0.307 C 
ATOM      7  O   UNL     1       2.228   0.374  -0.038  0.00  0.00    -0.252 OA
ATOM      8  H   UNL     1       3.506  -0.819  -1.744  0.00  0.00    +0.151 HD
ENDROOT
BRANCH   4   9
ATOM      9  C   UNL     1       2.586  -0.779  -4.305  0.00  0.00    +0.013 A 
ATOM     10  C   UNL     1       3.155  -1.586  -5.272  0.00  0.00    +0.008 A 
ATOM     11  C   UNL     1       3.742  -1.019  -6.389  0.00  0.00    +0.001 A 
ATOM     12  C   UNL     1       3.759   0.355  -6.540  0.00  0.00    +0.003 A 
ATOM     13  C   UNL     1       3.190   1.164  -5.574  0.00  0.00    +0.039 A 
ATOM     14  C   UNL     1       2.598   0.597  -4.458  0.00  0.00    +0.129 A 
ATOM     15  F   UNL     1       2.037   1.387  -3.516  0.00  0.00    -0.205 F 
ENDBRANCH   4   9
BRANCH   1  17
ATOM     16  C   UNL     1      -0.416   2.124  -0.525  0.00  0.00    +0.025 C 
ATOM     17  C   UNL     1      -0.383   0.631  -0.197  0.00  0.00    +0.111 C 
ENDBRANCH   1  17
BRANCH   3  18
ATOM     18  C   UNL     1      -0.227  -1.841  -4.350  0.00  0.00    +0.339 C 
ATOM     19  O   UNL     1      -1.422  -1.665  -4.492  0.00  0.00    -0.245 OA
BRANCH  18  20
ATOM     20  O   UNL     1       0.460  -2.572  -5.252  0.00  0.00    -0.462 OA
BRANCH  20  21
ATOM     21  C   UNL     1      -0.281  -3.111  -6.349  0.00  0.00    +0.229 C 
ATOM     22  C   UNL     1       0.659  -3.904  -7.259  0.00  0.00    +0.048 C 
ENDBRANCH  20  21
ENDBRANCH  18  20
ENDBRANCH   3  18
BRANCH   2  23
ATOM     23  C   UNL     1      -1.730  -0.474  -2.387  0.00  0.00    -0.026 C 
BRANCH  23  24
ATOM     24  N   UNL     1      -2.374  -1.714  -1.933  0.00  0.00    +0.383 N 
ATOM     25  C   UNL     1      -2.117  -1.902  -0.500  0.00  0.00    -0.078 C 
ATOM     26  C   UNL     1      -2.717  -3.232  -0.040  0.00  0.00    -0.016 C 
ATOM     27  C   UNL     1      -4.227  -3.220  -0.292  0.00  0.00    -0.018 C 
ATOM     28  C   UNL     1      -4.484  -2.950  -1.778  0.00  0.00    -0.016 C 
ATOM     29  C   UNL     1      -3.819  -1.629  -2.173  0.00  0.00    -0.078 C 
ATOM     30  C   UNL     1      -4.821  -4.576   0.091  0.00  0.00    +0.007 C 
ATOM     31  H   UNL     1      -1.994  -2.496  -2.446  0.00  0.00    -0.081 HD
ENDBRANCH  23  24
ENDBRANCH   2  23
TORSDOF 7
