REMARK  Name = ZINC39557203
REMARK  13 active torsions:
REMARK  status: ('A' for Active; 'I' for Inactive)
REMARK    1  A    between atoms: C_1  and  C_2
REMARK    2  A    between atoms: C_2  and  C_3
REMARK    3  A    between atoms: C_3  and  C_4
REMARK    4  A    between atoms: N_6  and  C_36
REMARK    5  A    between atoms: C_11  and  C_15
REMARK    6  A    between atoms: C_17  and  S_24
REMARK    7  A    between atoms: C_20  and  O_21
REMARK    8  A    between atoms: O_21  and  C_22
REMARK    9  A    between atoms: C_22  and  C_23
REMARK   10  A    between atoms: S_24  and  N_27
REMARK   11  A    between atoms: N_27  and  C_28
REMARK   12  A    between atoms: C_31  and  C_35
REMARK   13  A    between atoms: C_33  and  C_34
REMARK                            x       y       z     vdW  Elec       q    Type
REMARK                         _______ _______ _______ _____ _____    ______ ____
ROOT
ATOM      1  C   UNL     1       4.138  -3.510   4.766  0.00  0.00    +0.060 A 
ATOM      2  C   UNL     1       4.164  -2.269   5.410  0.00  0.00    +0.043 A 
ATOM      3  C   UNL     1       4.933  -2.098   6.540  0.00  0.00    +0.109 A 
ATOM      4  C   UNL     1       5.683  -3.150   7.041  0.00  0.00    +0.032 A 
ATOM      5  C   UNL     1       5.668  -4.380   6.415  0.00  0.00    +0.048 A 
ATOM      6  C   UNL     1       4.894  -4.573   5.280  0.00  0.00    +0.131 A 
ENDROOT
BRANCH   1  13
ATOM      7  C   UNL     1       1.224  -2.109   1.079  0.00  0.00    +0.083 C 
ATOM      8  N   UNL     1       0.784  -2.883   0.120  0.00  0.00    -0.186 NA
ATOM      9  N   UNL     1       0.918  -4.148   0.346  0.00  0.00    -0.240 N 
ATOM     10  C   UNL     1       1.295  -4.290   1.747  0.00  0.00    +0.230 C 
ATOM     11  C   UNL     1       1.800  -2.883   2.077  0.00  0.00    +0.097 C 
ATOM     12  N   UNL     1       2.602  -2.662   3.084  0.00  0.00    -0.230 NA
ATOM     13  C   UNL     1       3.317  -3.700   3.555  0.00  0.00    +0.156 C 
ATOM     14  N   UNL     1       3.308  -4.889   2.967  0.00  0.00    -0.159 NA
ATOM     15  C   UNL     1       2.414  -5.247   2.027  0.00  0.00    +0.266 C 
ATOM     16  O   UNL     1       2.520  -6.289   1.410  0.00  0.00    -0.271 OA
ATOM     17  C   UNL     1       0.726  -5.233  -0.620  0.00  0.00    +0.153 C 
BRANCH   7  18
ATOM     18  C   UNL     1       1.126  -0.605   1.094  0.00  0.00    +0.059 C 
BRANCH  18  20
ATOM     19  C   UNL     1       0.327   1.400  -0.165  0.00  0.00    +0.004 C 
ATOM     20  C   UNL     1       0.427  -0.127  -0.180  0.00  0.00    +0.003 C 
ENDBRANCH  18  20
ENDBRANCH   7  18
ENDBRANCH   1  13
BRANCH   3  21
ATOM     21  S   UNL     1       4.964  -0.534   7.351  0.00  0.00    +0.072 S 
ATOM     22  O   UNL     1       6.186  -0.475   8.073  0.00  0.00    -0.150 OA
ATOM     23  O   UNL     1       4.608   0.436   6.375  0.00  0.00    -0.150 OA
BRANCH  21  24
ATOM     24  N   UNL     1       3.749  -0.542   8.476  0.00  0.00    -0.216 N 
ATOM     25  H   UNL     1       3.031   0.108   8.420  0.00  0.00    +0.174 HD
BRANCH  24  26
ATOM     26  C   UNL     1       3.758  -1.485   9.507  0.00  0.00    +0.051 A 
ATOM     27  C   UNL     1       4.962  -1.890  10.069  0.00  0.00    +0.025 A 
ATOM     28  C   UNL     1       4.967  -2.822  11.088  0.00  0.00    +0.005 A 
ATOM     29  C   UNL     1       3.775  -3.353  11.548  0.00  0.00    -0.050 A 
ATOM     30  C   UNL     1       2.575  -2.952  10.990  0.00  0.00    +0.008 A 
ATOM     31  C   UNL     1       2.563  -2.015   9.975  0.00  0.00    -0.028 A 
ATOM     32  C   UNL     1       1.254  -1.574   9.372  0.00  0.00    +0.046 C 
ATOM     33  C   UNL     1       3.785  -4.370  12.660  0.00  0.00    +0.044 C 
ENDBRANCH  24  26
ENDBRANCH  21  24
ENDBRANCH   3  21
BRANCH   6  34
ATOM     34  O   UNL     1       4.873  -5.783   4.667  0.00  0.00    -0.492 OA
BRANCH  34  35
ATOM     35  C   UNL     1       5.668  -6.819   5.248  0.00  0.00    +0.226 C 
ATOM     36  C   UNL     1       5.518  -8.099   4.425  0.00  0.00    +0.048 C 
ENDBRANCH  34  35
ENDBRANCH   6  34
TORSDOF 8
