REMARK  Name = ZINC35089598
REMARK  16 active torsions:
REMARK  status: ('A' for Active; 'I' for Inactive)
REMARK    1  A    between atoms: C_1  and  C_2
REMARK    2  A    between atoms: C_2  and  C_3
REMARK    3  A    between atoms: C_3  and  C_4
REMARK    4  A    between atoms: C_4  and  C_5
REMARK    5  A    between atoms: C_5  and  C_7
REMARK    6  A    between atoms: C_5  and  C_9
REMARK    7  A    between atoms: C_7  and  C_8
REMARK    8  A    between atoms: N_11  and  C_12
REMARK    9  A    between atoms: N_11  and  C_17
REMARK   10  A    between atoms: C_12  and  C_13
REMARK   11  A    between atoms: C_13  and  N_14
REMARK   12  A    between atoms: N_14  and  C_15
REMARK   13  A    between atoms: N_14  and  C_16
REMARK   14  A    between atoms: C_17  and  C_19
REMARK   15  A    between atoms: C_17  and  C_20
REMARK   16  A    between atoms: N_30  and  C_31
REMARK                            x       y       z     vdW  Elec       q    Type
REMARK                         _______ _______ _______ _____ _____    ______ ____
ROOT
ATOM      1  C   UNL     1       2.346  -5.930  -4.280  0.00  0.00    +0.138 A 
ATOM      2  N   UNL     1       3.304  -5.815  -5.148  0.00  0.00    -0.231 NA
ATOM      3  C   UNL     1       3.221  -6.381  -6.379  0.00  0.00    +0.078 A 
ATOM      4  C   UNL     1       4.252  -6.258  -7.313  0.00  0.00    +0.028 A 
ATOM      5  C   UNL     1       4.125  -6.848  -8.550  0.00  0.00    +0.002 A 
ATOM      6  C   UNL     1       2.983  -7.565  -8.882  0.00  0.00    +0.001 A 
ATOM      7  C   UNL     1       1.952  -7.700  -7.978  0.00  0.00    +0.015 A 
ATOM      8  C   UNL     1       2.061  -7.111  -6.720  0.00  0.00    +0.065 A 
ATOM      9  C   UNL     1       0.994  -7.223  -5.715  0.00  0.00    +0.266 A 
ATOM     10  O   UNL     1      -0.030  -7.839  -5.946  0.00  0.00    -0.267 OA
ATOM     11  N   UNL     1       1.198  -6.619  -4.521  0.00  0.00    -0.263 N 
ENDROOT
BRANCH  11  12
ATOM     12  C   UNL     1       0.215  -6.700  -3.526  0.00  0.00    +0.052 A 
ATOM     13  C   UNL     1      -1.009  -6.046  -3.708  0.00  0.00    +0.027 A 
ATOM     14  C   UNL     1      -1.981  -6.107  -2.759  0.00  0.00    +0.010 A 
ATOM     15  C   UNL     1      -1.761  -6.835  -1.576  0.00  0.00    -0.018 A 
ATOM     16  C   UNL     1      -2.747  -6.915  -0.579  0.00  0.00    +0.008 A 
ATOM     17  C   UNL     1      -2.502  -7.628   0.555  0.00  0.00    +0.001 A 
ATOM     18  C   UNL     1      -1.286  -8.281   0.744  0.00  0.00    +0.001 A 
ATOM     19  C   UNL     1      -0.307  -8.226  -0.200  0.00  0.00    +0.008 A 
ATOM     20  C   UNL     1      -0.524  -7.500  -1.385  0.00  0.00    -0.016 A 
ATOM     21  C   UNL     1       0.462  -7.426  -2.382  0.00  0.00    +0.034 A 
ENDBRANCH  11  12
BRANCH   1  22
ATOM     22  C   UNL     1       2.517  -5.272  -2.935  0.00  0.00    +0.139 C 
ATOM     23  C   UNL     1       3.832  -5.734  -2.304  0.00  0.00    +0.036 C 
BRANCH  22  26
ATOM     24  C   UNL     1       1.587  -3.057  -2.530  0.00  0.00    +0.219 C 
ATOM     25  O   UNL     1       1.560  -1.862  -2.734  0.00  0.00    -0.275 OA
ATOM     26  N   UNL     1       2.541  -3.817  -3.103  0.00  0.00    -0.293 N 
BRANCH  24  27
ATOM     27  C   UNL     1       0.554  -3.692  -1.635  0.00  0.00    +0.075 C 
BRANCH  27  28
ATOM     28  C   UNL     1       1.224  -4.180  -0.349  0.00  0.00    +0.009 C 
ATOM     29  C   UNL     1       1.797  -2.984   0.413  0.00  0.00    +0.004 C 
ENDBRANCH  27  28
BRANCH  27  30
ATOM     30  C   UNL     1      -0.524  -2.663  -1.289  0.00  0.00    +0.013 C 
BRANCH  30  31
ATOM     31  C   UNL     1      -1.626  -3.334  -0.467  0.00  0.00    +0.000 C 
BRANCH  31  33
ATOM     32  C   UNL     1      -3.751  -2.955   0.791  0.00  0.00    +0.004 C 
ATOM     33  C   UNL     1      -2.649  -2.284  -0.031  0.00  0.00    -0.003 C 
ENDBRANCH  31  33
ENDBRANCH  30  31
ENDBRANCH  27  30
ENDBRANCH  24  27
BRANCH  26  34
ATOM     34  C   UNL     1       3.601  -3.188  -3.894  0.00  0.00    +0.090 C 
BRANCH  34  35
ATOM     35  C   UNL     1       4.740  -2.757  -2.968  0.00  0.00    -0.060 C 
BRANCH  35  36
ATOM     36  N   UNL     1       5.804  -2.126  -3.761  0.00  0.00    +0.377 N 
ATOM     37  C   UNL     1       6.842  -1.605  -2.862  0.00  0.00    -0.097 C 
ATOM     38  C   UNL     1       6.395  -3.120  -4.667  0.00  0.00    -0.097 C 
ATOM     39  H   UNL     1       5.415  -1.368  -4.302  0.00  0.00    -0.083 HD
ENDBRANCH  35  36
ENDBRANCH  34  35
ENDBRANCH  26  34
ENDBRANCH  22  26
ENDBRANCH   1  22
TORSDOF 11
