REMARK  Name = ZINC01261657
REMARK  5 active torsions:
REMARK  status: ('A' for Active; 'I' for Inactive)
REMARK    1  A    between atoms: C_6  and  N_7
REMARK    2  A    between atoms: N_7  and  C_8
REMARK    3  A    between atoms: C_9  and  C_10
REMARK    4  A    between atoms: C_9  and  C_12
REMARK    5  A    between atoms: C_14  and  C_17
REMARK                            x       y       z     vdW  Elec       q    Type
REMARK                         _______ _______ _______ _____ _____    ______ ____
ROOT
ATOM      1  C   UNL     1      -4.851  -0.033   0.042  0.00  0.00    +0.120 A 
ATOM      2  N   UNL     1      -6.083  -0.519   0.055  0.00  0.00    -0.238 NA
ATOM      3  C   UNL     1      -7.135   0.281   0.068  0.00  0.00    +0.086 A 
ATOM      4  C   UNL     1      -6.948   1.638   0.067  0.00  0.00    +0.075 A 
ATOM      5  S   UNL     1      -5.162   1.728   0.055  0.00  0.00    -0.074 S 
ENDROOT
BRANCH   3   6
ATOM      6  C   UNL     1      -8.504  -0.285   0.082  0.00  0.00    +0.086 A 
ATOM      7  C   UNL     1      -8.717  -1.643   0.088  0.00  0.00    +0.028 A 
ATOM      8  C   UNL     1     -10.106  -2.108   0.101  0.00  0.00    +0.019 A 
ATOM      9  C   UNL     1     -10.413  -3.446   0.375  0.00  0.00    +0.026 A 
ATOM     10  C   UNL     1     -11.728  -3.855   0.383  0.00  0.00    +0.019 A 
ATOM     11  C   UNL     1     -12.747  -2.949   0.123  0.00  0.00    +0.019 A 
ATOM     12  C   UNL     1     -12.460  -1.627  -0.150  0.00  0.00    +0.048 A 
ATOM     13  C   UNL     1     -11.142  -1.194  -0.165  0.00  0.00    +0.139 A 
ATOM     14  O   UNL     1     -10.841   0.099  -0.437  0.00  0.00    -0.422 OA
ATOM     15  C   UNL     1      -9.694   0.585   0.095  0.00  0.00    +0.347 A 
ATOM     16  O   UNL     1      -9.644   1.706   0.567  0.00  0.00    -0.244 OA
ATOM     17 BR   UNL     1     -12.148  -5.662   0.751  0.00  0.00    -0.050 Br
ENDBRANCH   3   6
BRANCH   1  19
ATOM     18  C   UNL     1      -2.392  -0.054   0.022  0.00  0.00    +0.093 C 
ATOM     19  C   UNL     1      -3.563  -0.752   0.028  0.00  0.00    +0.098 C 
BRANCH  18  20
ATOM     20  N   UNL     1      -1.199  -0.720   0.008  0.00  0.00    -0.319 N 
ATOM     21  H   UNL     1      -1.186  -1.690   0.003  0.00  0.00    +0.152 HD
BRANCH  20  27
ATOM     22  C   UNL     1      -0.017   1.384   0.010  0.00  0.00    +0.027 A 
ATOM     23  C   UNL     1       1.170   2.092   0.002  0.00  0.00    +0.051 A 
ATOM     24  C   UNL     1       2.382   1.419  -0.012  0.00  0.00    +0.162 A 
ATOM     25  C   UNL     1       2.405   0.029  -0.017  0.00  0.00    +0.164 A 
ATOM     26  C   UNL     1       1.214  -0.681  -0.012  0.00  0.00    +0.072 A 
ATOM     27  C   UNL     1       0.002  -0.004   0.002  0.00  0.00    +0.035 A 
ATOM     28  O   UNL     1       3.585  -0.649  -0.023  0.00  0.00    -0.485 OA
ATOM     29  C   UNL     1       4.750   0.091  -0.404  0.00  0.00    +0.270 C 
ATOM     30  C   UNL     1       4.734   1.431   0.343  0.00  0.00    +0.270 C 
ATOM     31  O   UNL     1       3.542   2.134  -0.022  0.00  0.00    -0.485 OA
ENDBRANCH  20  27
ENDBRANCH  18  20
BRANCH  19  32
ATOM     32  C   UNL     1      -3.543  -2.184   0.020  0.00  0.00    +0.103 C 
ATOM     33  N   UNL     1      -3.527  -3.320   0.013  0.00  0.00    -0.191 NA
ENDBRANCH  19  32
ENDBRANCH   1  19
TORSDOF 5
