REMARK  Name = ZINC13098036
REMARK  5 active torsions:
REMARK  status: ('A' for Active; 'I' for Inactive)
REMARK    1  A    between atoms: C_1  and  C_2
REMARK    2  A    between atoms: C_15  and  C_17
REMARK    3  A    between atoms: C_17  and  S_18
REMARK    4  A    between atoms: S_18  and  C_19
REMARK    5  A    between atoms: N_29  and  C_30
REMARK                            x       y       z     vdW  Elec       q    Type
REMARK                         _______ _______ _______ _____ _____    ______ ____
ROOT
ATOM      1  C   UNL     1      -2.481   0.815   0.018  0.00  0.00    +0.151 C 
ENDROOT
BRANCH   1  15
ATOM      2  C   UNL     1       5.369   6.998   0.073  0.00  0.00    +0.008 C 
ATOM      3  C   UNL     1       4.312   5.931   0.366  0.00  0.00    -0.009 C 
ATOM      4  C   UNL     1       4.590   4.687  -0.482  0.00  0.00    +0.008 C 
ATOM      5  C   UNL     1       3.700   3.533  -0.017  0.00  0.00    +0.037 C 
ATOM      6  C   UNL     1       2.249   4.006   0.002  0.00  0.00    -0.023 A 
ATOM      7  C   UNL     1       1.954   5.323   0.013  0.00  0.00    -0.004 A 
ATOM      8  S   UNL     1       0.183   5.397   0.030  0.00  0.00    -0.073 S 
ATOM      9  C   UNL     1      -0.155   3.655   0.024  0.00  0.00    +0.116 A 
ATOM     10  C   UNL     1       1.123   3.074   0.008  0.00  0.00    +0.075 A 
ATOM     11  C   UNL     1       1.153   1.641  -0.000  0.00  0.00    +0.260 A 
ATOM     12  O   UNL     1       2.216   1.044  -0.014  0.00  0.00    -0.267 OA
ATOM     13  N   UNL     1      -0.011   0.966   0.007  0.00  0.00    -0.310 N 
ATOM     14  H   UNL     1       0.002  -0.004   0.002  0.00  0.00    +0.170 HD
ATOM     15  C   UNL     1      -1.204   1.615   0.017  0.00  0.00    +0.121 A 
ATOM     16  N   UNL     1      -1.264   2.920   0.030  0.00  0.00    -0.226 NA
ATOM     17  C   UNL     1       2.919   6.470   0.010  0.00  0.00    +0.046 C 
ENDBRANCH   1  15
BRANCH   1  18
ATOM     18  S   UNL     1      -3.898   1.942   0.031  0.00  0.00    -0.080 S 
BRANCH  18  19
ATOM     19  C   UNL     1      -5.217   0.774   0.030  0.00  0.00    +0.173 A 
ATOM     20  N   UNL     1      -4.922  -0.502   0.016  0.00  0.00    -0.223 NA
ATOM     21  C   UNL     1      -5.881  -1.450   0.019  0.00  0.00    +0.079 A 
ATOM     22  C   UNL     1      -5.565  -2.812   0.008  0.00  0.00    +0.028 A 
ATOM     23  C   UNL     1      -6.569  -3.739   0.006  0.00  0.00    +0.002 A 
ATOM     24  C   UNL     1      -7.902  -3.348   0.016  0.00  0.00    +0.001 A 
ATOM     25  C   UNL     1      -8.243  -2.024   0.026  0.00  0.00    +0.015 A 
ATOM     26  C   UNL     1      -7.239  -1.057   0.028  0.00  0.00    +0.065 A 
ATOM     27  C   UNL     1      -7.545   0.380   0.038  0.00  0.00    +0.263 A 
ATOM     28  O   UNL     1      -8.694   0.781   0.046  0.00  0.00    -0.267 OA
ATOM     29  N   UNL     1      -6.501   1.242   0.038  0.00  0.00    -0.284 N 
BRANCH  29  30
ATOM     30  C   UNL     1      -6.749   2.685   0.049  0.00  0.00    +0.093 C 
ATOM     31  C   UNL     1      -7.592   3.068   1.283  0.00  0.00    +0.025 C 
ATOM     32  C   UNL     1      -8.536   4.183   0.766  0.00  0.00    +0.002 C 
ATOM     33  C   UNL     1      -8.886   3.700  -0.664  0.00  0.00    +0.002 C 
ATOM     34  C   UNL     1      -7.571   3.088  -1.188  0.00  0.00    +0.025 C 
ENDBRANCH  29  30
ENDBRANCH  18  19
ENDBRANCH   1  18
TORSDOF 4
