REMARK  Name = ZINC56159858
REMARK  9 active torsions:
REMARK  status: ('A' for Active; 'I' for Inactive)
REMARK    1  A    between atoms: C_1  and  C_2
REMARK    2  A    between atoms: C_2  and  C_4
REMARK    3  A    between atoms: C_2  and  N_17
REMARK    4  A    between atoms: C_7  and  N_10
REMARK    5  A    between atoms: N_13  and  C_14
REMARK    6  A    between atoms: N_17  and  C_18
REMARK    7  A    between atoms: C_18  and  C_20
REMARK    8  A    between atoms: C_18  and  C_21
REMARK    9  A    between atoms: N_23  and  C_24
REMARK                            x       y       z     vdW  Elec       q    Type
REMARK                         _______ _______ _______ _____ _____    ______ ____
ROOT
ATOM      1  C   UNL     1       0.975   1.276   0.413  0.00  0.00    -0.009 C 
ATOM      2  C   UNL     1       1.277  -0.220   0.521  0.00  0.00    -0.043 C 
ENDROOT
BRANCH   2   3
ATOM      3  C   UNL     1       2.089  -0.656  -0.672  0.00  0.00    -0.062 A 
ATOM      4  C   UNL     1       1.463  -0.899  -1.881  0.00  0.00    +0.004 A 
ATOM      5  C   UNL     1       2.204  -1.298  -2.976  0.00  0.00    +0.023 A 
ATOM      6  C   UNL     1       3.579  -1.456  -2.862  0.00  0.00    +0.035 A 
ATOM      7  C   UNL     1       4.204  -1.212  -1.646  0.00  0.00    +0.023 A 
ATOM      8  C   UNL     1       3.458  -0.807  -0.557  0.00  0.00    +0.004 A 
BRANCH   6   9
ATOM      9  N   UNL     1       4.332  -1.862  -3.969  0.00  0.00    -0.269 N 
ATOM     10  C   UNL     1       3.977  -1.466  -5.207  0.00  0.00    +0.304 C 
ATOM     11  O   UNL     1       3.059  -0.682  -5.355  0.00  0.00    -0.253 OA
ATOM     12  N   UNL     1       4.637  -1.941  -6.282  0.00  0.00    -0.296 N 
ATOM     13  H   UNL     1       5.111  -2.427  -3.845  0.00  0.00    +0.156 HD
ATOM     14  H   UNL     1       5.369  -2.567  -6.164  0.00  0.00    +0.151 HD
BRANCH  12  15
ATOM     15  C   UNL     1       4.251  -1.511  -7.628  0.00  0.00    +0.075 C 
ATOM     16  C   UNL     1       4.167  -2.584  -8.716  0.00  0.00    +0.024 C 
ATOM     17  C   UNL     1       5.317  -1.574  -8.724  0.00  0.00    +0.024 C 
ENDBRANCH  12  15
ENDBRANCH   6   9
ENDBRANCH   2   3
BRANCH   2  18
ATOM     18  N   UNL     1       0.016  -0.973   0.557  0.00  0.00    +0.391 N 
ATOM     19  H   UNL     1      -0.542  -0.732  -0.249  0.00  0.00    -0.084 HD
ATOM     20  H   UNL     1       0.215  -1.962   0.545  0.00  0.00    -0.084 HD
BRANCH  18  21
ATOM     21  C   UNL     1      -0.721  -0.635   1.782  0.00  0.00    +0.014 C 
ATOM     22  C   UNL     1       0.071  -1.113   3.001  0.00  0.00    -0.004 C 
BRANCH  21  23
ATOM     23  C   UNL     1      -2.067  -1.312   1.761  0.00  0.00    +0.203 C 
ATOM     24  O   UNL     1      -2.382  -2.006   0.817  0.00  0.00    -0.277 OA
ATOM     25  N   UNL     1      -2.921  -1.145   2.789  0.00  0.00    -0.285 N 
ATOM     26  H   UNL     1      -2.703  -0.528   3.506  0.00  0.00    +0.155 HD
BRANCH  25  27
ATOM     27  C   UNL     1      -4.124  -1.862   2.825  0.00  0.00    +0.069 A 
ATOM     28  C   UNL     1      -4.271  -3.012   2.061  0.00  0.00    +0.026 A 
ATOM     29  C   UNL     1      -5.458  -3.717   2.098  0.00  0.00    +0.002 A 
ATOM     30  C   UNL     1      -6.500  -3.280   2.894  0.00  0.00    +0.003 A 
ATOM     31  C   UNL     1      -6.359  -2.135   3.656  0.00  0.00    +0.040 A 
ATOM     32  C   UNL     1      -5.171  -1.427   3.629  0.00  0.00    +0.144 A 
ATOM     33  F   UNL     1      -5.031  -0.311   4.378  0.00  0.00    -0.204 F 
ENDBRANCH  25  27
ENDBRANCH  21  23
ENDBRANCH  18  21
ENDBRANCH   2  18
TORSDOF 7
