REMARK  Name = ZINC43036121
REMARK  9 active torsions:
REMARK  status: ('A' for Active; 'I' for Inactive)
REMARK    1  A    between atoms: C_1  and  C_2
REMARK    2  A    between atoms: C_7  and  C_8
REMARK    3  A    between atoms: C_8  and  C_10
REMARK    4  A    between atoms: C_8  and  N_14
REMARK    5  A    between atoms: C_10  and  C_12
REMARK    6  A    between atoms: C_10  and  N_13
REMARK    7  A    between atoms: N_14  and  C_15
REMARK    8  A    between atoms: N_14  and  C_16
REMARK    9  A    between atoms: C_16  and  C_17
REMARK                            x       y       z     vdW  Elec       q    Type
REMARK                         _______ _______ _______ _____ _____    ______ ____
ROOT
ATOM      1  C   UNL     1      -0.340   0.521   2.890  0.00  0.00    +0.072 C 
ENDROOT
BRANCH   1   8
ATOM      2  C   UNL     1      -2.185   2.215   1.450  0.00  0.00    +0.044 C 
ATOM      3  C   UNL     1      -1.722   0.917   0.841  0.00  0.00    -0.046 A 
ATOM      4  C   UNL     1      -2.175   0.539  -0.409  0.00  0.00    +0.003 A 
ATOM      5  C   UNL     1      -1.750  -0.652  -0.968  0.00  0.00    +0.000 A 
ATOM      6  C   UNL     1      -0.871  -1.465  -0.276  0.00  0.00    +0.000 A 
ATOM      7  C   UNL     1      -0.417  -1.087   0.973  0.00  0.00    +0.005 A 
ATOM      8  C   UNL     1      -0.839   0.106   1.530  0.00  0.00    -0.029 A 
ENDBRANCH   1   8
BRANCH   1   9
ATOM      9  C   UNL     1       0.785   1.546   2.730  0.00  0.00    -0.056 C 
ATOM     10  C   UNL     1       0.982   2.297   4.048  0.00  0.00    -0.012 C 
BRANCH   9  11
ATOM     11  N   UNL     1       2.030   0.853   2.370  0.00  0.00    +0.381 N 
ATOM     12  H   UNL     1       1.909   0.382   1.487  0.00  0.00    -0.090 HD
ATOM     13  H   UNL     1       2.778   1.526   2.293  0.00  0.00    -0.090 HD
ATOM     14  H   UNL     1       2.257   0.177   3.084  0.00  0.00    -0.090 HD
ENDBRANCH   9  11
ENDBRANCH   1   9
BRANCH   1  15
ATOM     15  N   UNL     1       0.168  -0.657   3.606  0.00  0.00    -0.296 NA
ATOM     16  C   UNL     1      -0.902  -1.637   3.834  0.00  0.00    +0.105 C 
BRANCH  15  17
ATOM     17  C   UNL     1       0.806  -0.270   4.871  0.00  0.00    +0.121 C 
BRANCH  17  18
ATOM     18  C   UNL     1       1.039  -1.498   5.712  0.00  0.00    -0.019 A 
ATOM     19  C   UNL     1       0.182  -1.795   6.755  0.00  0.00    +0.006 A 
ATOM     20  C   UNL     1       0.396  -2.922   7.527  0.00  0.00    +0.000 A 
ATOM     21  C   UNL     1       1.467  -3.753   7.255  0.00  0.00    +0.001 A 
ATOM     22  C   UNL     1       2.325  -3.457   6.213  0.00  0.00    +0.015 A 
ATOM     23  C   UNL     1       2.108  -2.332   5.438  0.00  0.00    +0.022 A 
ATOM     24 BR   UNL     1       3.277  -1.930   4.007  0.00  0.00    -0.050 Br
ENDBRANCH  17  18
ENDBRANCH  15  17
ENDBRANCH   1  15
TORSDOF 6
