REMARK  Name = ZINC09663391
REMARK  6 active torsions:
REMARK  status: ('A' for Active; 'I' for Inactive)
REMARK    1  A    between atoms: C_1  and  C_2
REMARK    2  A    between atoms: C_5  and  N_8
REMARK    3  A    between atoms: C_13  and  C_30
REMARK    4  A    between atoms: C_21  and  C_23
REMARK    5  A    between atoms: C_33  and  O_36
REMARK    6  A    between atoms: O_36  and  C_37
REMARK                            x       y       z     vdW  Elec       q    Type
REMARK                         _______ _______ _______ _____ _____    ______ ____
ROOT
ATOM      1  N   UNL     1       0.051  -4.127  -0.091  0.00  0.00    -0.208 N 
ATOM      2  C   UNL     1       0.189  -4.823   1.044  0.00  0.00    +0.234 C 
ATOM      3  O   UNL     1       0.292  -4.342   2.152  0.00  0.00    -0.274 OA
ATOM      4  C   UNL     1       0.197  -6.302   0.729  0.00  0.00    +0.130 C 
ATOM      5  C   UNL     1       1.626  -6.854   0.949  0.00  0.00    +0.117 C 
ATOM      6  N   UNL     1       2.280  -6.625  -0.365  0.00  0.00    -0.229 NA
ATOM      7  N   UNL     1       1.316  -6.918  -1.306  0.00  0.00    -0.220 N 
ATOM      8  C   UNL     1       0.027  -6.339  -0.816  0.00  0.00    +0.194 C 
ATOM      9  C   UNL     1      -0.053  -4.878  -1.193  0.00  0.00    +0.249 C 
ATOM     10  O   UNL     1      -0.187  -4.452  -2.320  0.00  0.00    -0.273 OA
ATOM     11  C   UNL     1       1.497  -7.601  -2.453  0.00  0.00    +0.261 C 
ATOM     12  O   UNL     1       0.584  -7.705  -3.248  0.00  0.00    -0.269 OA
ATOM     13  H   UNL     1       2.592  -5.669  -0.452  0.00  0.00    +0.145 HD
ENDROOT
BRANCH   1  18
ATOM     14  C   UNL     1      -0.107   1.545  -0.214  0.00  0.00    +0.044 C 
ATOM     15  C   UNL     1      -0.065   0.039  -0.182  0.00  0.00    -0.050 A 
ATOM     16  C   UNL     1       0.982  -0.635  -0.783  0.00  0.00    +0.005 A 
ATOM     17  C   UNL     1       1.023  -2.016  -0.754  0.00  0.00    +0.024 A 
ATOM     18  C   UNL     1       0.012  -2.726  -0.121  0.00  0.00    +0.044 A 
ATOM     19  C   UNL     1      -1.037  -2.046   0.482  0.00  0.00    +0.024 A 
ATOM     20  C   UNL     1      -1.071  -0.666   0.455  0.00  0.00    +0.005 A 
ENDBRANCH   1  18
BRANCH  11  21
ATOM     21  C   UNL     1       2.805  -8.226  -2.744  0.00  0.00    +0.039 A 
ATOM     22  C   UNL     1       3.809  -8.234  -1.773  0.00  0.00    +0.013 A 
ATOM     23  C   UNL     1       5.027  -8.818  -2.050  0.00  0.00    +0.002 A 
ATOM     24  C   UNL     1       5.257  -9.394  -3.287  0.00  0.00    +0.015 A 
ATOM     25  C   UNL     1       4.267  -9.389  -4.254  0.00  0.00    +0.019 A 
ATOM     26  C   UNL     1       3.040  -8.814  -3.987  0.00  0.00    +0.028 A 
ATOM     27 BR   UNL     1       4.591 -10.178  -5.942  0.00  0.00    -0.050 Br
ENDBRANCH  11  21
BRANCH   5  28
ATOM     28  C   UNL     1       2.330  -6.089   2.040  0.00  0.00    -0.028 A 
ATOM     29  C   UNL     1       2.896  -4.858   1.765  0.00  0.00    +0.009 A 
ATOM     30  C   UNL     1       3.542  -4.155   2.763  0.00  0.00    +0.046 A 
ATOM     31  C   UNL     1       3.623  -4.685   4.043  0.00  0.00    +0.120 A 
ATOM     32  C   UNL     1       3.054  -5.920   4.316  0.00  0.00    +0.046 A 
ATOM     33  C   UNL     1       2.404  -6.617   3.316  0.00  0.00    +0.009 A 
BRANCH  31  34
ATOM     34  O   UNL     1       4.259  -3.996   5.026  0.00  0.00    -0.495 OA
ATOM     35  C   UNL     1       4.304  -4.603   6.319  0.00  0.00    +0.277 C 
ENDBRANCH  31  34
ENDBRANCH   5  28
TORSDOF 4
