REMARK  Name = ZINC26742794
REMARK  5 active torsions:
REMARK  status: ('A' for Active; 'I' for Inactive)
REMARK    1  A    between atoms: C_3  and  C_7
REMARK    2  A    between atoms: C_12  and  C_16
REMARK    3  A    between atoms: C_16  and  C_18
REMARK    4  A    between atoms: C_25  and  C_27
REMARK    5  A    between atoms: N_36  and  N_37
REMARK                            x       y       z     vdW  Elec       q    Type
REMARK                         _______ _______ _______ _____ _____    ______ ____
ROOT
ATOM      1  C   UNL     1       0.854   4.197   0.039  0.00  0.00    +0.048 A 
ATOM      2  C   UNL     1      -0.494   4.015   0.106  0.00  0.00    +0.108 A 
ATOM      3  N   UNL     1      -1.121   5.224   0.128  0.00  0.00    -0.269 N 
ATOM      4  C   UNL     1      -0.190   6.247   0.066  0.00  0.00    +0.059 A 
ATOM      5  C   UNL     1       1.082   5.655   0.007  0.00  0.00    +0.011 A 
ATOM      6  C   UNL     1       2.224   6.449  -0.064  0.00  0.00    +0.011 A 
ATOM      7  C   UNL     1       2.109   7.811  -0.076  0.00  0.00    +0.009 A 
ATOM      8  C   UNL     1       0.849   8.412  -0.018  0.00  0.00    -0.016 A 
ATOM      9  C   UNL     1      -0.299   7.630   0.052  0.00  0.00    +0.035 A 
ATOM     10  C   UNL     1      -2.456   5.399   0.195  0.00  0.00    +0.332 C 
ATOM     11  O   UNL     1      -2.922   6.522   0.204  0.00  0.00    -0.248 OA
ATOM     12  N   UNL     1      -3.274   4.330   0.253  0.00  0.00    -0.235 N 
ATOM     13  H   UNL     1      -2.853   3.314   0.245  0.00  0.00    +0.171 HD
ENDROOT
BRANCH   8  14
ATOM     14  C   UNL     1       0.735   9.890  -0.033  0.00  0.00    -0.018 A 
ATOM     15  C   UNL     1      -0.520  10.495   0.018  0.00  0.00    +0.011 A 
ATOM     16  C   UNL     1      -0.621  11.871   0.009  0.00  0.00    +0.039 A 
ATOM     17  C   UNL     1       0.522  12.651  -0.061  0.00  0.00    +0.123 A 
ATOM     18  C   UNL     1       1.771  12.054  -0.118  0.00  0.00    +0.039 A 
ATOM     19  C   UNL     1       1.882  10.679  -0.104  0.00  0.00    +0.011 A 
ATOM     20  F   UNL     1       0.419  13.998  -0.076  0.00  0.00    -0.205 F 
ENDBRANCH   8  14
BRANCH  12  21
ATOM     21  N   UNL     1      -4.627   4.507   0.321  0.00  0.00    -0.253 NA
ATOM     22  H   UNL     1      -5.124   3.527   0.360  0.00  0.00    +0.141 HD
ATOM     23  H   UNL     1      -4.876   5.082   1.225  0.00  0.00    +0.141 HD
ENDBRANCH  12  21
BRANCH   1  24
ATOM     24  C   UNL     1       1.881   3.147  -0.001  0.00  0.00    +0.197 C 
ATOM     25  O   UNL     1       2.067   2.515  -1.025  0.00  0.00    -0.287 OA
BRANCH  24  30
ATOM     26  C   UNL     1       5.360   1.111   2.889  0.00  0.00    +0.177 C 
ATOM     27  N   UNL     1       4.208   1.995   2.547  0.00  0.00    -0.333 N 
ATOM     28  C   UNL     1       3.462   2.889   3.299  0.00  0.00    +0.088 A 
ATOM     29  C   UNL     1       2.521   3.442   2.527  0.00  0.00    +0.031 A 
ATOM     30  C   UNL     1       2.686   2.857   1.199  0.00  0.00    +0.044 A 
ATOM     31  C   UNL     1       3.749   1.975   1.294  0.00  0.00    +0.041 A 
ATOM     32  C   UNL     1       4.451   1.045   0.300  0.00  0.00    +0.125 C 
ATOM     33  S   UNL     1       5.997   0.660   1.223  0.00  0.00    -0.125 S 
BRANCH  26  36
ATOM     34  C   UNL     1       4.913  -1.510   5.567  0.00  0.00    +0.020 A 
ATOM     35  C   UNL     1       5.367  -0.372   4.916  0.00  0.00    +0.009 A 
ATOM     36  C   UNL     1       4.897  -0.113   3.638  0.00  0.00    +0.003 A 
ATOM     37  C   UNL     1       3.995  -0.986   3.061  0.00  0.00    +0.117 A 
ATOM     38  N   UNL     1       3.590  -2.061   3.708  0.00  0.00    -0.263 NA
ATOM     39  C   UNL     1       4.014  -2.340   4.925  0.00  0.00    +0.111 A 
ENDBRANCH  26  36
ENDBRANCH  24  30
ENDBRANCH   1  24
TORSDOF 5
