REMARK  Name = ZINC20082356
REMARK  12 active torsions:
REMARK  status: ('A' for Active; 'I' for Inactive)
REMARK    1  A    between atoms: C_1  and  C_2
REMARK    2  A    between atoms: C_2  and  C_3
REMARK    3  A    between atoms: C_10  and  C_15
REMARK    4  A    between atoms: C_15  and  C_17
REMARK    5  A    between atoms: C_15  and  N_26
REMARK    6  A    between atoms: N_21  and  C_22
REMARK    7  A    between atoms: C_22  and  C_23
REMARK    8  A    between atoms: C_23  and  O_24
REMARK    9  A    between atoms: O_24  and  C_25
REMARK   10  A    between atoms: N_29  and  C_32
REMARK   11  A    between atoms: C_34  and  C_39
REMARK   12  A    between atoms: C_37  and  C_38
REMARK                            x       y       z     vdW  Elec       q    Type
REMARK                         _______ _______ _______ _____ _____    ______ ____
ROOT
ATOM      1  C   UNL     1       6.159  -0.614  -0.059  0.00  0.00    +0.162 C 
ENDROOT
BRANCH   1   9
ATOM      2  C   UNL     1       0.002  -0.004   0.002  0.00  0.00    -0.047 A 
ATOM      3  C   UNL     1      -0.017   1.384   0.010  0.00  0.00    +0.005 A 
ATOM      4  C   UNL     1       1.159   2.104   0.002  0.00  0.00    +0.026 A 
ATOM      5  C   UNL     1       2.378   1.434  -0.013  0.00  0.00    +0.049 A 
ATOM      6  C   UNL     1       2.393   0.026  -0.021  0.00  0.00    -0.001 A 
ATOM      7  C   UNL     1       1.187  -0.683  -0.013  0.00  0.00    +0.013 A 
ATOM      8  C   UNL     1       3.681  -0.669  -0.036  0.00  0.00    +0.021 A 
ATOM      9  C   UNL     1       4.817   0.071  -0.043  0.00  0.00    +0.042 A 
ATOM     10  C   UNL     1       4.747   1.480  -0.034  0.00  0.00    +0.254 A 
ATOM     11  O   UNL     1       5.780   2.127  -0.040  0.00  0.00    -0.268 OA
ATOM     12  N   UNL     1       3.569   2.128  -0.020  0.00  0.00    -0.322 N 
ATOM     13  H   UNL     1       3.564   3.228  -0.013  0.00  0.00    +0.169 HD
BRANCH   2  15
ATOM     14  C   UNL     1      -1.750  -1.020  -1.429  0.00  0.00    +0.009 C 
ATOM     15  C   UNL     1      -1.297  -0.769   0.011  0.00  0.00    +0.032 C 
ENDBRANCH   2  15
ENDBRANCH   1   9
BRANCH   1  16
ATOM     16  N   UNL     1       6.946  -0.123  -1.198  0.00  0.00    -0.286 NA
ATOM     17  C   UNL     1       6.221  -0.317  -2.462  0.00  0.00    +0.104 C 
ATOM     18  C   UNL     1       7.037   0.278  -3.611  0.00  0.00    +0.120 C 
ATOM     19  N   UNL     1       8.356  -0.369  -3.659  0.00  0.00    -0.327 N 
ATOM     20  C   UNL     1       9.081  -0.175  -2.396  0.00  0.00    +0.120 C 
ATOM     21  C   UNL     1       8.264  -0.770  -1.246  0.00  0.00    +0.104 C 
BRANCH  19  22
ATOM     22  C   UNL     1       9.104   0.098  -4.742  0.00  0.00    +0.033 A 
ATOM     23  C   UNL     1       9.483   1.433  -4.803  0.00  0.00    +0.026 A 
ATOM     24  C   UNL     1      10.223   1.891  -5.875  0.00  0.00    -0.049 A 
ATOM     25  C   UNL     1      10.587   1.023  -6.887  0.00  0.00    +0.004 A 
ATOM     26  C   UNL     1      10.211  -0.307  -6.831  0.00  0.00    +0.005 A 
ATOM     27  C   UNL     1       9.475  -0.773  -5.759  0.00  0.00    -0.029 A 
ATOM     28  C   UNL     1       9.071  -2.223  -5.695  0.00  0.00    +0.045 C 
ATOM     29  C   UNL     1      10.634   3.340  -5.941  0.00  0.00    +0.044 C 
ENDBRANCH  19  22
ENDBRANCH   1  16
BRANCH   1  30
ATOM     30  C   UNL     1       6.891  -0.314   1.224  0.00  0.00    +0.173 A 
ATOM     31  N   UNL     1       7.481   0.812   1.544  0.00  0.00    -0.111 NA
ATOM     32  N   UNL     1       7.990   0.675   2.719  0.00  0.00    -0.023 NA
ATOM     33  N   UNL     1       7.747  -0.513   3.154  0.00  0.00    -0.044 NA
ATOM     34  N   UNL     1       7.072  -1.153   2.261  0.00  0.00    -0.225 N 
BRANCH  34  35
ATOM     35  C   UNL     1       6.593  -2.534   2.357  0.00  0.00    +0.175 C 
BRANCH  35  36
ATOM     36  C   UNL     1       7.656  -3.483   1.797  0.00  0.00    +0.183 C 
BRANCH  36  37
ATOM     37  O   UNL     1       7.188  -4.830   1.891  0.00  0.00    -0.381 OA
ATOM     38  C   UNL     1       8.110  -5.801   1.392  0.00  0.00    +0.194 C 
ENDBRANCH  36  37
ENDBRANCH  35  36
ENDBRANCH  34  35
ENDBRANCH   1  30
TORSDOF 8
