REMARK  Name = ZINC62952758
REMARK  6 active torsions:
REMARK  status: ('A' for Active; 'I' for Inactive)
REMARK    1  A    between atoms: C_1  and  C_2
REMARK    2  A    between atoms: C_2  and  C_3
REMARK    3  A    between atoms: C_3  and  C_21
REMARK    4  A    between atoms: N_6  and  S_9
REMARK    5  A    between atoms: S_9  and  C_12
REMARK    6  A    between atoms: C_15  and  N_19
REMARK                            x       y       z     vdW  Elec       q    Type
REMARK                         _______ _______ _______ _____ _____    ______ ____
ROOT
ATOM      1  S   UNL     1      -4.394  -2.970   2.184  0.00  0.00    +0.063 S 
ATOM      2  O   UNL     1      -3.771  -4.246   2.129  0.00  0.00    -0.153 OA
ATOM      3  O   UNL     1      -4.505  -2.228   3.391  0.00  0.00    -0.153 OA
ENDROOT
BRANCH   1   4
ATOM      4  C   UNL     1      -6.031  -3.182   1.570  0.00  0.00    +0.133 A 
ATOM      5  C   UNL     1      -7.025  -2.290   1.932  0.00  0.00    +0.047 A 
ATOM      6  C   UNL     1      -8.311  -2.454   1.452  0.00  0.00    +0.040 A 
ATOM      7  C   UNL     1      -8.605  -3.515   0.605  0.00  0.00    +0.027 A 
ATOM      8  C   UNL     1      -7.604  -4.408   0.243  0.00  0.00    +0.040 A 
ATOM      9  C   UNL     1      -6.319  -4.236   0.721  0.00  0.00    +0.047 A 
ATOM     10 BR   UNL     1      -4.956  -5.447   0.223  0.00  0.00    -0.048 Br
ATOM     11 BR   UNL     1      -6.625  -0.846   3.086  0.00  0.00    -0.048 Br
BRANCH   7  12
ATOM     12  N   UNL     1      -9.903  -3.683   0.119  0.00  0.00    -0.358 N 
ATOM     13  H   UNL     1     -10.601  -3.059   0.373  0.00  0.00    +0.142 HD
ATOM     14  H   UNL     1     -10.107  -4.425  -0.473  0.00  0.00    +0.142 HD
ENDBRANCH   7  12
ENDBRANCH   1   4
BRANCH   1  18
ATOM     15  C   UNL     1      -1.433  -0.534   0.013  0.00  0.00    -0.030 C 
ATOM     16  C   UNL     1      -2.150  -0.039   1.271  0.00  0.00    +0.024 C 
ATOM     17  C   UNL     1      -3.597  -0.542   1.262  0.00  0.00    +0.110 C 
ATOM     18  N   UNL     1      -3.588  -2.003   1.107  0.00  0.00    -0.176 NA
ATOM     19  C   UNL     1      -2.851  -2.590  -0.020  0.00  0.00    +0.110 C 
ATOM     20  C   UNL     1      -1.412  -2.064   0.004  0.00  0.00    +0.024 C 
ATOM     21  C   UNL     1      -2.173  -0.027  -1.227  0.00  0.00    +0.011 C 
BRANCH  15  23
ATOM     22  C   UNL     1      -0.019   1.526   0.010  0.00  0.00    +0.004 C 
ATOM     23  C   UNL     1       0.002  -0.004   0.002  0.00  0.00    +0.003 C 
ENDBRANCH  15  23
ENDBRANCH   1  18
TORSDOF 4
