REMARK  Name = ZINC02307507
REMARK  4 active torsions:
REMARK  status: ('A' for Active; 'I' for Inactive)
REMARK    1  A    between atoms: C_1  and  C_2
REMARK    2  A    between atoms: C_2  and  C_27
REMARK    3  A    between atoms: C_7  and  C_11
REMARK    4  A    between atoms: N_12  and  N_13
REMARK                            x       y       z     vdW  Elec       q    Type
REMARK                         _______ _______ _______ _____ _____    ______ ____
ROOT
ATOM      1  N   UNL     1       1.140   2.042   0.002  0.00  0.00    -0.208 N 
ATOM      2  C   UNL     1       2.372   1.498   0.602  0.00  0.00    +0.188 C 
ATOM      3  C   UNL     1       2.381   0.019   0.291  0.00  0.00    +0.062 A 
ATOM      4  C   UNL     1       1.215  -0.645   0.010  0.00  0.00    +0.095 A 
ATOM      5  C   UNL     1       1.572  -2.027  -0.242  0.00  0.00    +0.025 A 
ATOM      6  C   UNL     1       0.822  -3.157  -0.572  0.00  0.00    +0.012 A 
ATOM      7  C   UNL     1       1.508  -4.334  -0.742  0.00  0.00    +0.001 A 
ATOM      8  C   UNL     1       2.883  -4.411  -0.594  0.00  0.00    +0.002 A 
ATOM      9  C   UNL     1       3.652  -3.308  -0.266  0.00  0.00    +0.026 A 
ATOM     10  C   UNL     1       2.982  -2.100  -0.089  0.00  0.00    +0.049 A 
ATOM     11  N   UNL     1       3.431  -0.848   0.233  0.00  0.00    -0.355 N 
ATOM     12  H   UNL     1       4.358  -0.613   0.395  0.00  0.00    +0.166 HD
ATOM     13  N   UNL     1       0.002  -0.004   0.002  0.00  0.00    -0.236 NA
ATOM     14  C   UNL     1      -0.016   1.302   0.009  0.00  0.00    +0.206 C 
ENDROOT
BRANCH   1  16
ATOM     15  C   UNL     1       0.063   3.799  -1.107  0.00  0.00    +0.134 C 
ATOM     16  N   UNL     1       1.149   3.317  -0.577  0.00  0.00    -0.186 NA
BRANCH  15  22
ATOM     17  C   UNL     1      -0.908   7.357  -0.360  0.00  0.00    +0.012 C 
ATOM     18  C   UNL     1      -1.358   7.171  -1.810  0.00  0.00    -0.025 C 
ATOM     19  C   UNL     1      -0.290   7.555  -2.848  0.00  0.00    -0.000 C 
ATOM     20  C   UNL     1       1.138   7.246  -2.381  0.00  0.00    +0.031 C 
ATOM     21  C   UNL     1       1.178   5.883  -1.733  0.00  0.00    -0.021 C 
ATOM     22  C   UNL     1       0.072   5.134  -1.714  0.00  0.00    -0.028 C 
ATOM     23  C   UNL     1      -1.177   5.728  -2.342  0.00  0.00    +0.026 C 
ATOM     24  C   UNL     1      -0.858   6.396  -3.692  0.00  0.00    +0.013 C 
ATOM     25  C   UNL     1      -2.739   7.766  -2.092  0.00  0.00    +0.012 C 
ENDBRANCH  15  22
ENDBRANCH   1  16
TORSDOF 2
