REMARK  Name = ZINC34708720
REMARK  8 active torsions:
REMARK  status: ('A' for Active; 'I' for Inactive)
REMARK    1  A    between atoms: C_1  and  C_2
REMARK    2  A    between atoms: C_2  and  C_4
REMARK    3  A    between atoms: C_2  and  N_10
REMARK    4  A    between atoms: C_11  and  C_13
REMARK    5  A    between atoms: C_16  and  C_31
REMARK    6  A    between atoms: C_21  and  C_23
REMARK    7  A    between atoms: C_26  and  O_29
REMARK    8  A    between atoms: O_29  and  C_30
REMARK                            x       y       z     vdW  Elec       q    Type
REMARK                         _______ _______ _______ _____ _____    ______ ____
ROOT
ATOM      1  C   UNL     1       0.629  -0.880   3.014  0.00  0.00    +0.093 C 
ATOM      2  C   UNL     1      -0.562  -0.690   3.957  0.00  0.00    +0.024 C 
ATOM      3  C   UNL     1      -1.683  -1.657   3.567  0.00  0.00    +0.037 C 
ATOM      4  C   UNL     1      -1.181  -3.098   3.707  0.00  0.00    +0.116 C 
ATOM      5  N   UNL     1       0.049  -3.249   2.916  0.00  0.00    -0.296 N 
ATOM      6  C   UNL     1       1.158  -2.312   3.148  0.00  0.00    +0.120 C 
ATOM      7  C   UNL     1       0.158  -4.228   1.997  0.00  0.00    +0.247 C 
ATOM      8  O   UNL     1       1.135  -4.279   1.276  0.00  0.00    -0.270 OA
ENDROOT
BRANCH   7   9
ATOM      9  C   UNL     1      -0.909  -5.239   1.865  0.00  0.00    +0.037 A 
ATOM     10  C   UNL     1      -1.322  -5.661   0.599  0.00  0.00    +0.016 A 
ATOM     11  C   UNL     1      -2.318  -6.605   0.480  0.00  0.00    +0.046 A 
ATOM     12  C   UNL     1      -2.912  -7.137   1.618  0.00  0.00    +0.120 A 
ATOM     13  C   UNL     1      -2.505  -6.720   2.880  0.00  0.00    +0.046 A 
ATOM     14  C   UNL     1      -1.506  -5.781   3.007  0.00  0.00    +0.016 A 
BRANCH  12  15
ATOM     15  O   UNL     1      -3.894  -8.067   1.498  0.00  0.00    -0.495 OA
ATOM     16  C   UNL     1      -4.462  -8.572   2.708  0.00  0.00    +0.277 C 
ENDBRANCH  12  15
ENDBRANCH   7   9
BRANCH   3  17
ATOM     17  C   UNL     1      -2.867  -1.446   4.475  0.00  0.00    -0.043 A 
ATOM     18  C   UNL     1      -2.731  -1.619   5.840  0.00  0.00    +0.004 A 
ATOM     19  C   UNL     1      -3.817  -1.425   6.672  0.00  0.00    +0.000 A 
ATOM     20  C   UNL     1      -5.040  -1.059   6.140  0.00  0.00    +0.000 A 
ATOM     21  C   UNL     1      -5.175  -0.886   4.775  0.00  0.00    +0.000 A 
ATOM     22  C   UNL     1      -4.088  -1.075   3.943  0.00  0.00    +0.004 A 
ENDBRANCH   3  17
BRANCH   1  24
ATOM     23  N   UNL     1       1.077  -0.750   0.585  0.00  0.00    -0.308 N 
ATOM     24  C   UNL     1       0.190  -0.637   1.594  0.00  0.00    +0.218 C 
ATOM     25  O   UNL     1      -0.962  -0.339   1.358  0.00  0.00    -0.275 OA
ATOM     26  H   UNL     1       1.998  -0.988   0.774  0.00  0.00    +0.149 HD
BRANCH  23  28
ATOM     27  C   UNL     1       0.716   0.985  -1.101  0.00  0.00    +0.033 C 
ATOM     28  C   UNL     1       0.650  -0.513  -0.796  0.00  0.00    +0.100 C 
BRANCH  28  29
ATOM     29  C   UNL     1       1.560  -1.258  -1.738  0.00  0.00    -0.027 A 
ATOM     30  C   UNL     1       2.919  -1.308  -1.490  0.00  0.00    +0.005 A 
ATOM     31  C   UNL     1       3.754  -1.992  -2.355  0.00  0.00    +0.000 A 
ATOM     32  C   UNL     1       3.230  -2.625  -3.466  0.00  0.00    +0.000 A 
ATOM     33  C   UNL     1       1.871  -2.575  -3.713  0.00  0.00    +0.000 A 
ATOM     34  C   UNL     1       1.035  -1.895  -2.847  0.00  0.00    +0.005 A 
ENDBRANCH  28  29
ENDBRANCH  23  28
ENDBRANCH   1  24
TORSDOF 6
