REMARK  Name = ZINC35782589
REMARK  20 active torsions:
REMARK  status: ('A' for Active; 'I' for Inactive)
REMARK    1  A    between atoms: C_1  and  C_2
REMARK    2  A    between atoms: C_2  and  C_3
REMARK    3  A    between atoms: C_3  and  C_4
REMARK    4  A    between atoms: C_4  and  C_5
REMARK    5  A    between atoms: C_5  and  C_7
REMARK    6  A    between atoms: C_5  and  O_36
REMARK    7  A    between atoms: C_7  and  N_8
REMARK    8  A    between atoms: N_8  and  C_9
REMARK    9  A    between atoms: N_8  and  C_32
REMARK   10  A    between atoms: C_9  and  C_10
REMARK   11  A    between atoms: C_11  and  C_30
REMARK   12  A    between atoms: N_13  and  C_24
REMARK   13  A    between atoms: C_14  and  O_15
REMARK   14  A    between atoms: O_15  and  C_16
REMARK   15  A    between atoms: C_19  and  O_22
REMARK   16  A    between atoms: O_22  and  C_23
REMARK   17  A    between atoms: C_30  and  C_31
REMARK   18  A    between atoms: C_32  and  C_33
REMARK   19  A    between atoms: C_33  and  C_34
REMARK   20  A    between atoms: C_33  and  C_35
REMARK                            x       y       z     vdW  Elec       q    Type
REMARK                         _______ _______ _______ _____ _____    ______ ____
ROOT
ATOM      1  C   UNL     1       2.877  -6.684  -5.355  0.00  0.00    +0.021 A 
ATOM      2  C   UNL     1       2.661  -5.922  -6.507  0.00  0.00    +0.068 A 
ATOM      3  N   UNL     1       3.790  -5.830  -7.161  0.00  0.00    -0.168 NA
ATOM      4  N   UNL     1       4.772  -6.531  -6.449  0.00  0.00    -0.200 N 
ATOM      5  C   UNL     1       4.188  -7.046  -5.334  0.00  0.00    +0.225 A 
ENDROOT
BRANCH   4   6
ATOM      6  C   UNL     1       6.117  -6.672  -6.817  0.00  0.00    +0.069 A 
ATOM      7  C   UNL     1       7.113  -6.600  -5.853  0.00  0.00    +0.028 A 
ATOM      8  C   UNL     1       8.438  -6.739  -6.219  0.00  0.00    +0.002 A 
ATOM      9  C   UNL     1       8.772  -6.951  -7.544  0.00  0.00    +0.000 A 
ATOM     10  C   UNL     1       7.782  -7.022  -8.507  0.00  0.00    +0.002 A 
ATOM     11  C   UNL     1       6.455  -6.890  -8.146  0.00  0.00    +0.028 A 
ENDBRANCH   4   6
BRANCH   2  12
ATOM     12  C   UNL     1       1.348  -5.311  -6.925  0.00  0.00    +0.054 C 
ATOM     13  C   UNL     1       1.463  -3.786  -6.893  0.00  0.00    +0.010 C 
ENDBRANCH   2  12
BRANCH   1  14
ATOM     14  C   UNL     1       1.843  -7.036  -4.317  0.00  0.00    -0.036 C 
BRANCH  14  15
ATOM     15  N   UNL     1       1.969  -6.125  -3.172  0.00  0.00    +0.384 N 
ATOM     16  H   UNL     1       2.911  -6.164  -2.813  0.00  0.00    -0.081 HD
BRANCH  15  17
ATOM     17  C   UNL     1       1.665  -4.753  -3.602  0.00  0.00    -0.047 C 
BRANCH  17  18
ATOM     18  C   UNL     1       1.972  -3.781  -2.461  0.00  0.00    +0.098 C 
BRANCH  18  19
ATOM     19  O   UNL     1       1.034  -3.979  -1.401  0.00  0.00    -0.394 OA
ATOM     20  H   UNL     1       0.113  -3.834  -1.659  0.00  0.00    +0.210 HD
ENDBRANCH  18  19
BRANCH  18  21
ATOM     21  C   UNL     1       1.867  -2.344  -2.973  0.00  0.00    +0.029 C 
BRANCH  21  22
ATOM     22  C   UNL     1       2.295  -1.376  -1.868  0.00  0.00    +0.002 C 
BRANCH  22  24
ATOM     23  C   UNL     1       2.617   1.030  -1.276  0.00  0.00    +0.004 C 
ATOM     24  C   UNL     1       2.190   0.062  -2.381  0.00  0.00    -0.003 C 
ENDBRANCH  22  24
ENDBRANCH  21  22
ENDBRANCH  18  21
ENDBRANCH  17  18
ENDBRANCH  15  17
BRANCH  15  25
ATOM     25  C   UNL     1       1.027  -6.528  -2.119  0.00  0.00    -0.075 C 
BRANCH  25  26
ATOM     26  C   UNL     1       1.375  -7.937  -1.635  0.00  0.00    -0.034 C 
ATOM     27  C   UNL     1       2.779  -7.935  -1.027  0.00  0.00    +0.005 C 
ATOM     28  C   UNL     1       0.362  -8.378  -0.577  0.00  0.00    +0.005 C 
ENDBRANCH  25  26
ENDBRANCH  15  25
ENDBRANCH  14  15
ENDBRANCH   1  14
BRANCH   5  29
ATOM     29  O   UNL     1       4.801  -7.788  -4.377  0.00  0.00    -0.438 OA
BRANCH  29  30
ATOM     30  C   UNL     1       4.929  -9.125  -4.591  0.00  0.00    +0.131 A 
ATOM     31  C   UNL     1       4.540  -9.674  -5.804  0.00  0.00    +0.050 A 
ATOM     32  C   UNL     1       4.671 -11.031  -6.021  0.00  0.00    +0.049 A 
ATOM     33  C   UNL     1       5.191 -11.846  -5.026  0.00  0.00    +0.120 A 
ATOM     34  C   UNL     1       5.579 -11.297  -3.813  0.00  0.00    +0.049 A 
ATOM     35  C   UNL     1       5.455  -9.939  -3.598  0.00  0.00    +0.050 A 
BRANCH  33  36
ATOM     36  O   UNL     1       5.319 -13.183  -5.240  0.00  0.00    -0.495 OA
ATOM     37  C   UNL     1       5.861 -13.961  -4.171  0.00  0.00    +0.277 C 
ENDBRANCH  33  36
ENDBRANCH  29  30
ENDBRANCH   5  29
TORSDOF 15
