REMARK  Name = ZINC08586083
REMARK  10 active torsions:
REMARK  status: ('A' for Active; 'I' for Inactive)
REMARK    1  A    between atoms: C_1  and  C_2
REMARK    2  A    between atoms: C_9  and  C_13
REMARK    3  A    between atoms: C_10  and  O_12
REMARK    4  A    between atoms: C_13  and  C_15
REMARK    5  A    between atoms: C_13  and  N_66
REMARK    6  A    between atoms: N_19  and  C_20
REMARK    7  A    between atoms: C_25  and  C_26
REMARK    8  A    between atoms: C_25  and  N_66
REMARK    9  A    between atoms: C_32  and  C_33
REMARK   10  A    between atoms: C_32  and  N_66
REMARK                            x       y       z     vdW  Elec       q    Type
REMARK                         _______ _______ _______ _____ _____    ______ ____
ROOT
ATOM      1  C   UNL     1       0.773   5.175   1.286  0.00  0.00    +0.040 C 
ENDROOT
BRANCH   1  10
ATOM      2  C   UNL     1      -2.838   8.211   7.012  0.00  0.00    +0.044 C 
ATOM      3  C   UNL     1      -1.560   7.870   6.289  0.00  0.00    -0.050 A 
ATOM      4  C   UNL     1      -0.337   8.242   6.841  0.00  0.00    +0.005 A 
ATOM      5  C   UNL     1       0.835   7.950   6.213  0.00  0.00    +0.029 A 
ATOM      6  C   UNL     1       0.817   7.261   4.989  0.00  0.00    +0.075 A 
ATOM      7  C   UNL     1      -0.428   6.883   4.429  0.00  0.00    +0.001 A 
ATOM      8  C   UNL     1      -1.617   7.201   5.104  0.00  0.00    +0.013 A 
ATOM      9  C   UNL     1      -0.446   6.195   3.199  0.00  0.00    +0.017 A 
ATOM     10  C   UNL     1       0.745   5.913   2.600  0.00  0.00    +0.008 A 
ATOM     11  C   UNL     1       1.943   6.314   3.205  0.00  0.00    +0.215 A 
ATOM     12  N   UNL     1       1.953   6.960   4.351  0.00  0.00    -0.213 NA
BRANCH  11  13
ATOM     13  O   UNL     1       3.119   6.030   2.594  0.00  0.00    -0.492 OA
ATOM     14  H   UNL     1       3.461   6.749   2.045  0.00  0.00    +0.294 HD
ENDBRANCH  11  13
ENDBRANCH   1  10
BRANCH   1  15
ATOM     15  C   UNL     1      -0.607   5.173   0.682  0.00  0.00    +0.143 A 
ATOM     16  N   UNL     1      -1.632   4.457   1.074  0.00  0.00    -0.115 NA
ATOM     17  N   UNL     1      -2.630   4.737   0.308  0.00  0.00    -0.023 NA
ATOM     18  N   UNL     1      -2.265   5.608  -0.567  0.00  0.00    -0.044 NA
ATOM     19  N   UNL     1      -1.025   5.902  -0.370  0.00  0.00    -0.227 N 
BRANCH  19  20
ATOM     20  C   UNL     1      -0.222   6.851  -1.145  0.00  0.00    +0.111 C 
ATOM     21  C   UNL     1      -0.810   8.271  -1.016  0.00  0.00    +0.027 C 
ATOM     22  C   UNL     1      -0.612   8.893  -2.421  0.00  0.00    +0.002 C 
ATOM     23  C   UNL     1      -0.891   7.699  -3.367  0.00  0.00    +0.002 C 
ATOM     24  C   UNL     1      -0.273   6.487  -2.639  0.00  0.00    +0.027 C 
ENDBRANCH  19  20
ENDBRANCH   1  15
BRANCH   1  25
ATOM     25  N   UNL     1       1.237   3.792   1.524  0.00  0.00    +0.397 N 
ATOM     26  H   UNL     1       2.154   3.822   1.986  0.00  0.00    -0.079 HD
BRANCH  25  27
ATOM     27  C   UNL     1       0.281   3.082   2.399  0.00  0.00    -0.039 C 
BRANCH  27  28
ATOM     28  C   UNL     1       0.881   1.760   2.803  0.00  0.00    -0.046 A 
ATOM     29  C   UNL     1       0.652   0.623   2.042  0.00  0.00    +0.005 A 
ATOM     30  C   UNL     1       1.225  -0.571   2.452  0.00  0.00    +0.020 A 
ATOM     31  C   UNL     1       1.999  -0.589   3.597  0.00  0.00    +0.111 A 
ATOM     32  N   UNL     1       2.195   0.512   4.296  0.00  0.00    -0.263 NA
ATOM     33  C   UNL     1       1.666   1.665   3.936  0.00  0.00    +0.112 A 
ENDBRANCH  27  28
ENDBRANCH  25  27
BRANCH  25  34
ATOM     34  C   UNL     1       1.372   3.076   0.238  0.00  0.00    -0.001 C 
BRANCH  34  35
ATOM     35  C   UNL     1       2.584   3.604  -0.486  0.00  0.00    +0.089 A 
ATOM     36  C   UNL     1       3.835   3.120  -0.382  0.00  0.00    +0.042 A 
ATOM     37  C   UNL     1       4.650   3.908  -1.226  0.00  0.00    +0.041 A 
ATOM     38  C   UNL     1       3.849   4.827  -1.795  0.00  0.00    +0.195 A 
ATOM     39  O   UNL     1       2.598   4.634  -1.347  0.00  0.00    -0.470 OA
ENDBRANCH  34  35
ENDBRANCH  25  34
ENDBRANCH   1  25
TORSDOF 9
