REMARK  Name = ZINC02344205
REMARK  4 active torsions:
REMARK  status: ('A' for Active; 'I' for Inactive)
REMARK    1  A    between atoms: C_1  and  S_2
REMARK    2  A    between atoms: S_2  and  C_3
REMARK    3  A    between atoms: C_6  and  C_9
REMARK    4  A    between atoms: C_26  and  C_28
REMARK                            x       y       z     vdW  Elec       q    Type
REMARK                         _______ _______ _______ _____ _____    ______ ____
ROOT
ATOM      1  C   UNL     1       2.971  -1.843  -5.391  0.00  0.00    +0.234 C 
ATOM      2  C   UNL     1       1.856  -1.928  -6.392  0.00  0.00    +0.027 C 
ATOM      3  C   UNL     1       1.294  -3.116  -6.696  0.00  0.00    +0.083 C 
ATOM      4  C   UNL     1       1.831  -4.321  -6.013  0.00  0.00    +0.042 A 
ATOM      5  C   UNL     1       1.131  -5.519  -6.001  0.00  0.00    +0.013 A 
ATOM      6  C   UNL     1       1.667  -6.615  -5.352  0.00  0.00    +0.001 A 
ATOM      7  C   UNL     1       2.893  -6.519  -4.718  0.00  0.00    +0.004 A 
ATOM      8  C   UNL     1       3.596  -5.329  -4.726  0.00  0.00    +0.046 A 
ATOM      9  C   UNL     1       3.072  -4.223  -5.373  0.00  0.00    +0.131 A 
ATOM     10  O   UNL     1       3.740  -3.046  -5.403  0.00  0.00    -0.479 OA
ATOM     11  N   UNL     1       0.281  -3.213  -7.591  0.00  0.00    -0.213 NA
ATOM     12  C   UNL     1      -0.235  -2.194  -8.239  0.00  0.00    +0.237 C 
ATOM     13  N   UNL     1      -1.228  -2.114  -9.152  0.00  0.00    -0.205 NA
ATOM     14  C   UNL     1      -1.399  -0.877  -9.529  0.00  0.00    +0.203 C 
ATOM     15  N   UNL     1      -0.515  -0.075  -8.873  0.00  0.00    -0.251 N 
ATOM     16  N   UNL     1       0.235  -0.910  -8.042  0.00  0.00    -0.208 N 
ATOM     17  C   UNL     1       1.328  -0.693  -7.088  0.00  0.00    +0.160 C 
ATOM     18  H   UNL     1      -0.424   0.886  -8.966  0.00  0.00    +0.171 HD
ENDROOT
BRANCH  17  19
ATOM     19  C   UNL     1       2.472  -0.042  -7.823  0.00  0.00    -0.003 A 
ATOM     20  C   UNL     1       3.026   1.129  -7.341  0.00  0.00    +0.009 A 
ATOM     21  C   UNL     1       4.075   1.726  -8.015  0.00  0.00    +0.020 A 
ATOM     22  C   UNL     1       4.571   1.151  -9.172  0.00  0.00    +0.042 A 
ATOM     23  C   UNL     1       4.018  -0.021  -9.654  0.00  0.00    +0.040 A 
ATOM     24  C   UNL     1       2.971  -0.621  -8.976  0.00  0.00    +0.048 A 
ATOM     25 CL   UNL     1       2.279  -2.096  -9.577  0.00  0.00    -0.083 Cl
ATOM     26 CL   UNL     1       5.888   1.901 -10.018  0.00  0.00    -0.083 Cl
ENDBRANCH  17  19
BRANCH   1  30
ATOM     27  C   UNL     1       1.328  -1.255  -1.490  0.00  0.00    +0.008 A 
ATOM     28  C   UNL     1       1.887  -0.185  -2.178  0.00  0.00    +0.015 A 
ATOM     29  C   UNL     1       2.417  -0.379  -3.438  0.00  0.00    +0.008 A 
ATOM     30  C   UNL     1       2.392  -1.635  -4.016  0.00  0.00    -0.003 A 
ATOM     31  C   UNL     1       1.835  -2.702  -3.333  0.00  0.00    +0.008 A 
ATOM     32  C   UNL     1       1.309  -2.517  -2.070  0.00  0.00    +0.015 A 
BRANCH  27  34
ATOM     33  C   UNL     1       0.901   0.755   0.439  0.00  0.00    +0.090 C 
ATOM     34  S   UNL     1       0.650  -1.012   0.119  0.00  0.00    -0.129 S 
ENDBRANCH  27  34
ENDBRANCH   1  30
TORSDOF 3
