REMARK  Name = ZINC15969146
REMARK  7 active torsions:
REMARK  status: ('A' for Active; 'I' for Inactive)
REMARK    1  A    between atoms: C_1  and  C_2
REMARK    2  A    between atoms: C_16  and  C_19
REMARK    3  A    between atoms: C_19  and  C_20
REMARK    4  A    between atoms: C_23  and  O_26
REMARK    5  A    between atoms: N_29  and  C_32
REMARK    6  A    between atoms: C_32  and  C_33
REMARK    7  A    between atoms: C_33  and  C_34
REMARK                            x       y       z     vdW  Elec       q    Type
REMARK                         _______ _______ _______ _____ _____    ______ ____
ROOT
ATOM      1  C   UNL     1       3.812   0.782   0.050  0.00  0.00    +0.046 C 
ATOM      2  C   UNL     1       3.170  -0.582   0.021  0.00  0.00    -0.028 A 
ATOM      3  C   UNL     1       3.234  -1.347  -1.125  0.00  0.00    +0.025 A 
ATOM      4  C   UNL     1       2.648  -2.600  -1.161  0.00  0.00    +0.042 A 
ATOM      5  C   UNL     1       1.995  -3.088  -0.041  0.00  0.00    +0.027 A 
ATOM      6  C   UNL     1       1.930  -2.327   1.104  0.00  0.00    +0.005 A 
ATOM      7  C   UNL     1       2.520  -1.066   1.153  0.00  0.00    +0.042 A 
ATOM      8  N   UNL     1       2.328  -0.491   2.412  0.00  0.00    -0.283 N 
ATOM      9  C   UNL     1       1.637  -1.299   3.239  0.00  0.00    +0.243 C 
ATOM     10  O   UNL     1       1.323  -1.063   4.386  0.00  0.00    -0.273 OA
ATOM     11  C   UNL     1       1.319  -2.546   2.459  0.00  0.00    +0.136 C 
ATOM     12  C   UNL     1      -0.192  -2.792   2.364  0.00  0.00    +0.122 C 
ATOM     13  C   UNL     1      -0.491  -3.821   3.491  0.00  0.00    +0.107 C 
ATOM     14  C   UNL     1       0.872  -4.073   4.169  0.00  0.00    +0.072 C 
ATOM     15  N   UNL     1       1.882  -3.737   3.121  0.00  0.00    -0.295 NA
ATOM     16  C   UNL     1      -0.923  -5.054   2.732  0.00  0.00    +0.227 C 
ATOM     17  O   UNL     1      -1.246  -6.109   3.235  0.00  0.00    -0.275 OA
ATOM     18  N   UNL     1      -0.896  -4.800   1.418  0.00  0.00    -0.241 N 
ATOM     19  C   UNL     1      -0.505  -3.547   1.092  0.00  0.00    +0.228 C 
ATOM     20  O   UNL     1      -0.415  -3.096  -0.030  0.00  0.00    -0.275 OA
ATOM     21 CL   UNL     1       2.732  -3.559  -2.606  0.00  0.00    -0.084 Cl
ATOM     22  H   UNL     1       2.654   0.387   2.661  0.00  0.00    +0.155 HD
ATOM     23  H   UNL     1       2.001  -4.494   2.465  0.00  0.00    +0.124 HD
ENDROOT
BRANCH  14  24
ATOM     24  C   UNL     1       1.028  -3.179   5.401  0.00  0.00    +0.054 C 
BRANCH  24  25
ATOM     25  C   UNL     1       0.541  -3.916   6.622  0.00  0.00    -0.046 A 
ATOM     26  C   UNL     1      -0.785  -3.822   7.001  0.00  0.00    +0.007 A 
ATOM     27  C   UNL     1      -1.234  -4.497   8.120  0.00  0.00    +0.045 A 
ATOM     28  C   UNL     1      -0.352  -5.268   8.864  0.00  0.00    +0.117 A 
ATOM     29  C   UNL     1       0.978  -5.360   8.481  0.00  0.00    +0.045 A 
ATOM     30  C   UNL     1       1.421  -4.688   7.358  0.00  0.00    +0.007 A 
BRANCH  28  31
ATOM     31  O   UNL     1      -0.791  -5.931   9.965  0.00  0.00    -0.507 OA
ATOM     32  H   UNL     1      -1.111  -6.826   9.784  0.00  0.00    +0.292 HD
ENDBRANCH  28  31
ENDBRANCH  24  25
ENDBRANCH  14  24
BRANCH  18  33
ATOM     33  C   UNL     1      -1.268  -5.797   0.411  0.00  0.00    +0.121 C 
BRANCH  33  34
ATOM     34  C   UNL     1      -2.766  -5.693   0.119  0.00  0.00    +0.054 C 
BRANCH  34  35
ATOM     35  C   UNL     1      -3.147  -6.718  -0.918  0.00  0.00    -0.046 A 
ATOM     36  C   UNL     1      -3.093  -6.397  -2.261  0.00  0.00    +0.004 A 
ATOM     37  C   UNL     1      -3.443  -7.337  -3.212  0.00  0.00    +0.000 A 
ATOM     38  C   UNL     1      -3.847  -8.600  -2.819  0.00  0.00    +0.000 A 
ATOM     39  C   UNL     1      -3.901  -8.922  -1.476  0.00  0.00    +0.000 A 
ATOM     40  C   UNL     1      -3.546  -7.982  -0.525  0.00  0.00    +0.004 A 
ENDBRANCH  34  35
ENDBRANCH  33  34
ENDBRANCH  18  33
TORSDOF 6
