REMARK  Name = ZINC38535655
REMARK  9 active torsions:
REMARK  status: ('A' for Active; 'I' for Inactive)
REMARK    1  A    between atoms: C5*_1  and  C4*_2
REMARK    2  A    between atoms: C5*_1  and  O5*_30
REMARK    3  A    between atoms: C3*_4  and  O3*_29
REMARK    4  A    between atoms: C2*_6  and  O2*_28
REMARK    5  A    between atoms: C1*_8  and  N_11
REMARK    6  A    between atoms: C_12  and  S_23
REMARK    7  A    between atoms: C_18  and  N_22
REMARK    8  A    between atoms: S_23  and  C_24
REMARK    9  A    between atoms: C_24  and  C_25
REMARK                            x       y       z     vdW  Elec       q    Type
REMARK                         _______ _______ _______ _____ _____    ______ ____
ROOT
ATOM      1  N   UNL     1       0.738  -2.804  -1.712  0.00  0.00    -0.254 N 
ATOM      2  C   UNL     1       0.934  -3.709  -2.854  0.00  0.00    +0.256 C 
ATOM      3  N   UNL     1       1.970  -4.668  -2.457  0.00  0.00    -0.242 NA
ATOM      4  C   UNL     1       2.350  -4.395  -1.256  0.00  0.00    +0.165 C 
ATOM      5  C   UNL     1       1.603  -3.218  -0.742  0.00  0.00    +0.159 C 
ATOM      6  N   UNL     1       1.873  -2.795   0.475  0.00  0.00    -0.198 NA
ATOM      7  C   UNL     1       2.790  -3.392   1.237  0.00  0.00    +0.226 C 
ATOM      8  N   UNL     1       3.505  -4.439   0.868  0.00  0.00    -0.141 NA
ATOM      9  C   UNL     1       3.354  -5.006  -0.335  0.00  0.00    +0.291 C 
ATOM     10  O   UNL     1       4.017  -5.971  -0.670  0.00  0.00    -0.266 OA
ENDROOT
BRANCH   1  14
ATOM     11  C4* UNL     1       0.002  -0.004   0.002  0.00  0.00    +0.177 C 
ATOM     12  C3* UNL     1      -1.440  -0.562   0.104  0.00  0.00    +0.178 C 
ATOM     13  C2* UNL     1      -1.263  -1.958  -0.552  0.00  0.00    +0.193 C 
ATOM     14  C1* UNL     1      -0.197  -1.679  -1.633  0.00  0.00    +0.241 C 
ATOM     15  O4* UNL     1       0.506  -0.489  -1.253  0.00  0.00    -0.348 OA
BRANCH  13  16
ATOM     16  O2* UNL     1      -0.789  -2.912   0.401  0.00  0.00    -0.385 OA
ATOM     17  H2* UNL     1      -1.389  -3.055   1.145  0.00  0.00    +0.210 HD
ENDBRANCH  13  16
BRANCH  12  18
ATOM     18  O3* UNL     1      -1.850  -0.681   1.468  0.00  0.00    -0.386 OA
ATOM     19  H3* UNL     1      -1.870   0.158   1.948  0.00  0.00    +0.210 HD
ENDBRANCH  12  18
BRANCH  11  20
ATOM     20  C5* UNL     1      -0.019   1.526   0.010  0.00  0.00    +0.190 C 
BRANCH  20  21
ATOM     21  O5* UNL     1       1.322   2.020   0.000  0.00  0.00    -0.392 OA
ATOM     22  H5* UNL     1       1.385   2.985   0.005  0.00  0.00    +0.210 HD
ENDBRANCH  20  21
ENDBRANCH  11  20
ENDBRANCH   1  14
BRANCH   7  23
ATOM     23  N   UNL     1       3.005  -2.883   2.492  0.00  0.00    -0.234 NA
ATOM     24  H   UNL     1       3.664  -3.292   3.074  0.00  0.00    +0.173 HD
ENDBRANCH   7  23
BRANCH   2  25
ATOM     25  S   UNL     1      -0.612  -4.581  -3.228  0.00  0.00    -0.104 S 
BRANCH  25  26
ATOM     26  C   UNL     1      -0.984  -5.489  -1.702  0.00  0.00    +0.197 C 
BRANCH  26  27
ATOM     27  C   UNL     1      -2.262  -6.267  -1.880  0.00  0.00    +0.366 C 
ATOM     28  O   UNL     1      -2.866  -6.214  -2.938  0.00  0.00    -0.245 OA
ATOM     29  O   UNL     1      -2.692  -6.950  -0.966  0.00  0.00    -0.245 OA
ENDBRANCH  26  27
ENDBRANCH  25  26
ENDBRANCH   2  25
TORSDOF 9
