REMARK  Name = ZINC14065905
REMARK  5 active torsions:
REMARK  status: ('A' for Active; 'I' for Inactive)
REMARK    1  A    between atoms: C_1  and  C_2
REMARK    2  A    between atoms: C_9  and  C_14
REMARK    3  A    between atoms: N_16  and  N_17
REMARK    4  A    between atoms: C_20  and  C_24
REMARK    5  A    between atoms: C_20  and  C_30
REMARK                            x       y       z     vdW  Elec       q    Type
REMARK                         _______ _______ _______ _____ _____    ______ ____
ROOT
ATOM      1  N   UNL     1       4.551   4.476   0.349  0.00  0.00    -0.136 N 
ATOM      2  C   UNL     1       5.432   4.851   1.297  0.00  0.00    +0.272 C 
ATOM      3  O   UNL     1       5.205   5.046   2.472  0.00  0.00    -0.270 OA
ATOM      4  C   UNL     1       6.766   4.980   0.589  0.00  0.00    +0.165 C 
ATOM      5  N   UNL     1       6.452   4.630  -0.807  0.00  0.00    -0.276 N 
ATOM      6  C   UNL     1       5.138   4.347  -0.847  0.00  0.00    +0.327 C 
ATOM      7  O   UNL     1       4.548   4.014  -1.856  0.00  0.00    -0.251 OA
ATOM      8  H   UNL     1       7.073   4.605  -1.552  0.00  0.00    +0.152 HD
ENDROOT
BRANCH   4   9
ATOM      9  C   UNL     1       7.279   6.394   0.678  0.00  0.00    -0.011 A 
ATOM     10  C   UNL     1       7.296   7.048   1.897  0.00  0.00    +0.006 A 
ATOM     11  C   UNL     1       7.771   8.343   1.979  0.00  0.00    +0.000 A 
ATOM     12  C   UNL     1       8.220   8.989   0.842  0.00  0.00    +0.000 A 
ATOM     13  C   UNL     1       8.197   8.338  -0.377  0.00  0.00    +0.000 A 
ATOM     14  C   UNL     1       7.727   7.040  -0.459  0.00  0.00    +0.006 A 
ENDBRANCH   4   9
BRANCH   4  15
ATOM     15  C   UNL     1       7.769   4.016   1.168  0.00  0.00    -0.011 A 
ATOM     16  C   UNL     1       7.981   3.977   2.534  0.00  0.00    +0.006 A 
ATOM     17  C   UNL     1       8.898   3.090   3.066  0.00  0.00    +0.000 A 
ATOM     18  C   UNL     1       9.610   2.248   2.231  0.00  0.00    +0.000 A 
ATOM     19  C   UNL     1       9.401   2.291   0.865  0.00  0.00    +0.000 A 
ATOM     20  C   UNL     1       8.481   3.175   0.334  0.00  0.00    +0.006 A 
ENDBRANCH   4  15
BRANCH   1  23
ATOM     21  C   UNL     1       2.272   5.148   0.188  0.00  0.00    +0.261 C 
ATOM     22  O   UNL     1       2.626   6.165  -0.378  0.00  0.00    -0.269 OA
ATOM     23  N   UNL     1       3.189   4.245   0.587  0.00  0.00    -0.220 N 
ATOM     24  H   UNL     1       2.907   3.434   1.038  0.00  0.00    +0.174 HD
BRANCH  21  32
ATOM     25  C   UNL     1      -5.737   5.837   1.262  0.00  0.00    +0.029 C 
ATOM     26  C   UNL     1      -4.213   5.857   1.394  0.00  0.00    +0.134 C 
ATOM     27  C   UNL     1      -3.624   6.715   0.307  0.00  0.00    +0.230 C 
ATOM     28  O   UNL     1      -4.312   7.594  -0.165  0.00  0.00    -0.274 OA
ATOM     29  N   UNL     1      -2.390   6.561  -0.164  0.00  0.00    -0.284 N 
ATOM     30  C   UNL     1      -1.456   5.618   0.260  0.00  0.00    +0.048 A 
ATOM     31  C   UNL     1      -0.109   5.842   0.025  0.00  0.00    +0.037 A 
ATOM     32  C   UNL     1       0.840   4.904   0.438  0.00  0.00    +0.040 A 
ATOM     33  C   UNL     1       0.434   3.735   1.089  0.00  0.00    +0.014 A 
ATOM     34  C   UNL     1      -0.904   3.512   1.324  0.00  0.00    +0.017 A 
ATOM     35  C   UNL     1      -1.848   4.442   0.910  0.00  0.00    +0.030 A 
ATOM     36  S   UNL     1      -3.564   4.167   1.224  0.00  0.00    -0.111 S 
ATOM     37  H   UNL     1      -2.113   7.164  -0.872  0.00  0.00    +0.155 HD
ENDBRANCH  21  32
ENDBRANCH   1  23
TORSDOF 4
