REMARK  Name = ZINC09345199
REMARK  9 active torsions:
REMARK  status: ('A' for Active; 'I' for Inactive)
REMARK    1  A    between atoms: C_1  and  C_2
REMARK    2  A    between atoms: C_2  and  C_3
REMARK    3  A    between atoms: C_2  and  C_4
REMARK    4  A    between atoms: C_7  and  C_10
REMARK    5  A    between atoms: C_21  and  C_23
REMARK    6  A    between atoms: C_26  and  O_31
REMARK    7  A    between atoms: C_28  and  O_29
REMARK    8  A    between atoms: O_29  and  C_30
REMARK    9  A    between atoms: O_31  and  C_32
REMARK                            x       y       z     vdW  Elec       q    Type
REMARK                         _______ _______ _______ _____ _____    ______ ____
ROOT
ATOM      1  C   UNL     1       2.683  -1.859  -4.964  0.00  0.00    +0.159 C 
ATOM      2  C   UNL     1       2.031  -3.186  -5.282  0.00  0.00    +0.027 C 
ATOM      3  C   UNL     1       2.814  -4.284  -5.323  0.00  0.00    +0.083 C 
ATOM      4  C   UNL     1       2.162  -5.578  -5.647  0.00  0.00    +0.042 A 
ATOM      5  C   UNL     1       2.795  -6.789  -5.405  0.00  0.00    +0.013 A 
ATOM      6  C   UNL     1       2.151  -7.971  -5.719  0.00  0.00    +0.001 A 
ATOM      7  C   UNL     1       0.882  -7.947  -6.272  0.00  0.00    +0.004 A 
ATOM      8  C   UNL     1       0.245  -6.744  -6.517  0.00  0.00    +0.046 A 
ATOM      9  C   UNL     1       0.879  -5.553  -6.208  0.00  0.00    +0.131 A 
ATOM     10  O   UNL     1       0.280  -4.359  -6.444  0.00  0.00    -0.479 OA
ATOM     11  C   UNL     1       0.556  -3.289  -5.538  0.00  0.00    +0.238 C 
ATOM     12  N   UNL     1       4.146  -4.214  -5.080  0.00  0.00    -0.213 NA
ATOM     13  C   UNL     1       4.789  -3.106  -4.796  0.00  0.00    +0.237 C 
ATOM     14  N   UNL     1       4.130  -1.900  -4.720  0.00  0.00    -0.208 N 
ATOM     15  N   UNL     1       5.093  -0.939  -4.404  0.00  0.00    -0.251 N 
ATOM     16  C   UNL     1       6.279  -1.602  -4.299  0.00  0.00    +0.203 C 
ATOM     17  N   UNL     1       6.092  -2.862  -4.532  0.00  0.00    -0.205 NA
ATOM     18  H   UNL     1       4.947   0.012  -4.283  0.00  0.00    +0.171 HD
ENDROOT
BRANCH   1  22
ATOM     19  C   UNL     1       0.789  -0.246  -1.491  0.00  0.00    -0.045 A 
ATOM     20  C   UNL     1       0.430   0.205  -2.747  0.00  0.00    +0.004 A 
ATOM     21  C   UNL     1       1.043  -0.316  -3.870  0.00  0.00    +0.006 A 
ATOM     22  C   UNL     1       2.015  -1.289  -3.738  0.00  0.00    -0.021 A 
ATOM     23  C   UNL     1       2.376  -1.741  -2.482  0.00  0.00    +0.006 A 
ATOM     24  C   UNL     1       1.766  -1.216  -1.358  0.00  0.00    +0.004 A 
BRANCH  19  26
ATOM     25  C   UNL     1       0.302   1.842  -0.245  0.00  0.00    +0.012 C 
ATOM     26  C   UNL     1       0.121   0.323  -0.266  0.00  0.00    +0.013 C 
ATOM     27  C   UNL     1      -1.371  -0.013  -0.296  0.00  0.00    +0.012 C 
ENDBRANCH  19  26
ENDBRANCH   1  22
BRANCH  11  28
ATOM     28  C   UNL     1      -0.159  -3.543  -4.235  0.00  0.00    +0.039 A 
ATOM     29  C   UNL     1       0.468  -4.257  -3.232  0.00  0.00    +0.015 A 
ATOM     30  C   UNL     1      -0.185  -4.491  -2.037  0.00  0.00    +0.046 A 
ATOM     31  C   UNL     1      -1.472  -4.009  -1.841  0.00  0.00    +0.124 A 
ATOM     32  C   UNL     1      -2.102  -3.292  -2.846  0.00  0.00    +0.091 A 
ATOM     33  C   UNL     1      -1.443  -3.054  -4.043  0.00  0.00    +0.131 A 
BRANCH  33  34
ATOM     34  O   UNL     1      -2.056  -2.346  -5.028  0.00  0.00    -0.495 OA
ATOM     35  C   UNL     1      -3.349  -1.813  -4.735  0.00  0.00    +0.277 C 
ENDBRANCH  33  34
BRANCH  31  36
ATOM     36  O   UNL     1      -2.113  -4.240  -0.666  0.00  0.00    -0.495 OA
ATOM     37  C   UNL     1      -1.403  -4.987   0.325  0.00  0.00    +0.277 C 
ENDBRANCH  31  36
ENDBRANCH  11  28
TORSDOF 5
