REMARK  Name = ZINC67627434
REMARK  7 active torsions:
REMARK  status: ('A' for Active; 'I' for Inactive)
REMARK    1  A    between atoms: C_1  and  C_2
REMARK    2  A    between atoms: C_2  and  C_4
REMARK    3  A    between atoms: C_2  and  N_11
REMARK    4  A    between atoms: C_8  and  O_10
REMARK    5  A    between atoms: N_11  and  C_12
REMARK    6  A    between atoms: N_15  and  C_16
REMARK    7  A    between atoms: C_16  and  C_17
REMARK                            x       y       z     vdW  Elec       q    Type
REMARK                         _______ _______ _______ _____ _____    ______ ____
ROOT
ATOM      1  N   UNL     1       0.617  -0.404  -1.309  0.00  0.00    -0.282 N 
ATOM      2  C   UNL     1       2.002  -0.055  -1.638  0.00  0.00    +0.134 C 
ATOM      3  C   UNL     1      -0.168  -0.989  -2.235  0.00  0.00    +0.303 C 
ATOM      4  O   UNL     1      -1.317  -1.278  -1.963  0.00  0.00    -0.253 OA
ATOM      5  N   UNL     1       0.320  -1.253  -3.463  0.00  0.00    -0.292 N 
ATOM      6  H   UNL     1       1.236  -1.022  -3.681  0.00  0.00    +0.151 HD
ENDROOT
BRANCH   1   8
ATOM      7  C   UNL     1       0.302   1.362   0.353  0.00  0.00    +0.033 C 
ATOM      8  C   UNL     1       0.086  -0.117   0.026  0.00  0.00    +0.104 C 
BRANCH   8   9
ATOM      9  C   UNL     1       0.802  -0.966   1.044  0.00  0.00    -0.024 A 
ATOM     10  C   UNL     1       0.079  -1.792   1.885  0.00  0.00    +0.006 A 
ATOM     11  C   UNL     1       0.733  -2.573   2.820  0.00  0.00    +0.004 A 
ATOM     12  C   UNL     1       2.111  -2.529   2.917  0.00  0.00    +0.045 A 
ATOM     13  C   UNL     1       2.838  -1.701   2.075  0.00  0.00    +0.117 A 
ATOM     14  C   UNL     1       2.180  -0.923   1.133  0.00  0.00    +0.050 A 
BRANCH  13  15
ATOM     15  O   UNL     1       4.193  -1.656   2.168  0.00  0.00    -0.507 OA
ATOM     16  H   UNL     1       4.647  -2.297   1.606  0.00  0.00    +0.292 HD
ENDBRANCH  13  15
ENDBRANCH   8   9
ENDBRANCH   1   8
BRANCH   5  17
ATOM     17  C   UNL     1      -0.534  -1.888  -4.470  0.00  0.00    +0.180 C 
BRANCH  17  18
ATOM     18  C   UNL     1       0.245  -2.072  -5.747  0.00  0.00    +0.123 A 
ATOM     19  C   UNL     1       0.969  -3.157  -6.054  0.00  0.00    +0.055 A 
ATOM     20  C   UNL     1       1.547  -2.901  -7.379  0.00  0.00    +0.020 A 
ATOM     21  C   UNL     1       2.378  -3.622  -8.236  0.00  0.00    +0.011 A 
ATOM     22  C   UNL     1       2.745  -3.082  -9.437  0.00  0.00    +0.001 A 
ATOM     23  C   UNL     1       2.296  -1.822  -9.807  0.00  0.00    +0.004 A 
ATOM     24  C   UNL     1       1.474  -1.095  -8.973  0.00  0.00    +0.047 A 
ATOM     25  C   UNL     1       1.089  -1.625  -7.748  0.00  0.00    +0.135 A 
ATOM     26  O   UNL     1       0.311  -1.173  -6.744  0.00  0.00    -0.458 OA
ENDBRANCH  17  18
ENDBRANCH   5  17
TORSDOF 5
