REMARK  Name = ZINC09345275
REMARK  6 active torsions:
REMARK  status: ('A' for Active; 'I' for Inactive)
REMARK    1  A    between atoms: C_1  and  C_2
REMARK    2  A    between atoms: C_10  and  C_13
REMARK    3  A    between atoms: C_16  and  C_19
REMARK    4  A    between atoms: C_19  and  O_21
REMARK    5  A    between atoms: O_21  and  C_22
REMARK    6  A    between atoms: C_23  and  C_31
REMARK                            x       y       z     vdW  Elec       q    Type
REMARK                         _______ _______ _______ _____ _____    ______ ____
ROOT
ATOM      1  C   UNL     1       0.055   2.150   1.951  0.00  0.00    +0.044 C 
ATOM      2  C   UNL     1       0.137   0.710   1.515  0.00  0.00    -0.050 A 
ATOM      3  C   UNL     1       0.272   0.403   0.172  0.00  0.00    +0.007 A 
ATOM      4  C   UNL     1       0.347  -0.913  -0.243  0.00  0.00    +0.046 A 
ATOM      5  C   UNL     1       0.288  -1.934   0.689  0.00  0.00    +0.131 A 
ATOM      6  C   UNL     1       0.155  -1.623   2.048  0.00  0.00    +0.043 A 
ATOM      7  C   UNL     1       0.084  -0.299   2.457  0.00  0.00    +0.017 A 
ATOM      8  C   UNL     1       0.101  -2.742   3.023  0.00  0.00    +0.083 C 
ATOM      9  C   UNL     1       0.507  -3.957   2.600  0.00  0.00    +0.028 C 
ATOM     10  C   UNL     1       1.003  -4.151   1.196  0.00  0.00    +0.234 C 
ATOM     11  O   UNL     1       0.357  -3.236   0.309  0.00  0.00    -0.479 OA
ATOM     12  C   UNL     1       0.447  -5.107   3.580  0.00  0.00    +0.166 C 
ATOM     13  N   UNL     1      -0.055  -4.784   4.924  0.00  0.00    -0.182 N 
ATOM     14  C   UNL     1      -0.422  -3.498   5.196  0.00  0.00    +0.209 C 
ATOM     15  N   UNL     1      -0.341  -2.549   4.290  0.00  0.00    -0.216 NA
ATOM     16  N   UNL     1      -0.842  -3.486   6.500  0.00  0.00    -0.275 N 
ATOM     17  C   UNL     1      -0.727  -4.760   7.000  0.00  0.00    +0.208 C 
ATOM     18  N   UNL     1      -0.263  -5.541   6.078  0.00  0.00    -0.169 NA
ATOM     19  H   UNL     1      -1.165  -2.711   6.987  0.00  0.00    +0.156 HD
ENDROOT
BRANCH  12  20
ATOM     20  C   UNL     1       1.836  -5.673   3.725  0.00  0.00    +0.014 A 
ATOM     21  C   UNL     1       2.693  -5.165   4.683  0.00  0.00    +0.009 A 
ATOM     22  C   UNL     1       3.967  -5.685   4.817  0.00  0.00    +0.001 A 
ATOM     23  C   UNL     1       4.385  -6.713   3.993  0.00  0.00    +0.003 A 
ATOM     24  C   UNL     1       3.530  -7.223   3.034  0.00  0.00    +0.039 A 
ATOM     25  C   UNL     1       2.251  -6.707   2.903  0.00  0.00    +0.129 A 
ATOM     26  F   UNL     1       1.413  -7.207   1.970  0.00  0.00    -0.205 F 
ENDBRANCH  12  20
BRANCH  10  27
ATOM     27  C   UNL     1       2.490  -3.915   1.156  0.00  0.00    -0.003 A 
ATOM     28  C   UNL     1       3.348  -4.966   0.882  0.00  0.00    +0.008 A 
ATOM     29  C   UNL     1       4.710  -4.757   0.843  0.00  0.00    +0.015 A 
ATOM     30  C   UNL     1       5.224  -3.481   1.082  0.00  0.00    +0.059 A 
ATOM     31  C   UNL     1       4.354  -2.425   1.358  0.00  0.00    +0.015 A 
ATOM     32  C   UNL     1       2.993  -2.647   1.388  0.00  0.00    +0.008 A 
BRANCH  30  33
ATOM     33  C   UNL     1       6.683  -3.249   1.042  0.00  0.00    +0.339 C 
ATOM     34  O   UNL     1       7.438  -4.170   0.802  0.00  0.00    -0.245 OA
BRANCH  33  35
ATOM     35  O   UNL     1       7.176  -2.017   1.273  0.00  0.00    -0.464 OA
ATOM     36  C   UNL     1       8.596  -1.865   1.219  0.00  0.00    +0.280 C 
ENDBRANCH  33  35
ENDBRANCH  30  33
ENDBRANCH  10  27
TORSDOF 4
