REMARK  Name = ZINC33776099
REMARK  4 active torsions:
REMARK  status: ('A' for Active; 'I' for Inactive)
REMARK    1  A    between atoms: C_3  and  N_26
REMARK    2  A    between atoms: C_4  and  N_11
REMARK    3  A    between atoms: C_6  and  C_7
REMARK    4  A    between atoms: C_13  and  C_23
REMARK                            x       y       z     vdW  Elec       q    Type
REMARK                         _______ _______ _______ _____ _____    ______ ____
ROOT
ATOM      1  N   UNL     1      -2.424   3.831   0.047  0.00  0.00    -0.324 N 
ATOM      2  C   UNL     1      -2.957   4.249  -1.080  0.00  0.00    +0.212 A 
ATOM      3  C   UNL     1      -4.181   5.075  -1.082  0.00  0.00    +0.097 A 
ATOM      4  C   UNL     1      -4.367   5.927  -2.163  0.00  0.00    +0.030 A 
ATOM      5  C   UNL     1      -3.335   5.931  -3.202  0.00  0.00    +0.019 A 
ATOM      6  C   UNL     1      -3.304   6.935  -4.177  0.00  0.00    +0.026 A 
ATOM      7  C   UNL     1      -2.320   6.918  -5.141  0.00  0.00    +0.019 A 
ATOM      8  C   UNL     1      -1.363   5.912  -5.150  0.00  0.00    +0.019 A 
ATOM      9  C   UNL     1      -1.383   4.914  -4.196  0.00  0.00    +0.048 A 
ATOM     10  C   UNL     1      -2.364   4.911  -3.217  0.00  0.00    +0.137 A 
ATOM     11  O   UNL     1      -2.396   3.939  -2.277  0.00  0.00    -0.439 OA
ATOM     12 BR   UNL     1      -2.274   8.271  -6.461  0.00  0.00    -0.050 Br
ATOM     13  H   UNL     1      -2.935   4.023   1.002  0.00  0.00    +0.169 HD
ENDROOT
BRANCH   1  17
ATOM     14  C   UNL     1       1.183   1.794   0.002  0.00  0.00    +0.014 A 
ATOM     15  C   UNL     1      -0.004   1.083   0.008  0.00  0.00    +0.026 A 
ATOM     16  C   UNL     1      -1.216   1.755   0.017  0.00  0.00    +0.053 A 
ATOM     17  C   UNL     1      -1.233   3.158   0.032  0.00  0.00    +0.064 A 
ATOM     18  C   UNL     1      -0.029   3.862   0.025  0.00  0.00    +0.040 A 
ATOM     19  C   UNL     1       1.170   3.177   0.010  0.00  0.00    +0.057 A 
BRANCH  16  20
ATOM     20  N   UNL     1      -2.416   1.038   0.018  0.00  0.00    -0.328 N 
ATOM     21  C   UNL     1      -2.557   0.249   1.248  0.00  0.00    +0.105 C 
ATOM     22  C   UNL     1      -3.940  -0.405   1.280  0.00  0.00    +0.019 C 
ATOM     23  C   UNL     1      -4.103  -1.305   0.052  0.00  0.00    +0.003 C 
ATOM     24  C   UNL     1      -3.904  -0.468  -1.215  0.00  0.00    +0.019 C 
ATOM     25  C   UNL     1      -2.521   0.187  -1.175  0.00  0.00    +0.105 C 
ENDBRANCH  16  20
BRANCH  19  26
ATOM     26  C   UNL     1       2.470   3.939   0.002  0.00  0.00    +0.417 C 
ATOM     27  F   UNL     1       3.539   3.037  -0.013  0.00  0.00    -0.166 F 
ATOM     28  F   UNL     1       2.528   4.750  -1.136  0.00  0.00    -0.166 F 
ATOM     29  F   UNL     1       2.549   4.737   1.149  0.00  0.00    -0.166 F 
ENDBRANCH  19  26
ENDBRANCH   1  17
BRANCH   3  30
ATOM     30  C   UNL     1      -5.162   4.999   0.014  0.00  0.00    +0.247 C 
ATOM     31  O   UNL     1      -4.973   4.243   0.948  0.00  0.00    -0.270 OA
ATOM     32  N   UNL     1      -6.269   5.766  -0.018  0.00  0.00    -0.325 N 
ATOM     33  H   UNL     1      -7.002   5.709   0.800  0.00  0.00    +0.145 HD
ATOM     34  H   UNL     1      -6.441   6.450  -0.863  0.00  0.00    +0.145 HD
ENDBRANCH   3  30
TORSDOF 4
