REMARK  Name = ZINC20242831
REMARK  9 active torsions:
REMARK  status: ('A' for Active; 'I' for Inactive)
REMARK    1  A    between atoms: C_1  and  N_2
REMARK    2  A    between atoms: N_2  and  C_3
REMARK    3  A    between atoms: N_2  and  C_33
REMARK    4  A    between atoms: C_3  and  C_4
REMARK    5  A    between atoms: C_4  and  C_5
REMARK    6  A    between atoms: C_5  and  N_6
REMARK    7  A    between atoms: C_7  and  C_9
REMARK    8  A    between atoms: N_15  and  C_26
REMARK    9  A    between atoms: C_26  and  C_27
REMARK                            x       y       z     vdW  Elec       q    Type
REMARK                         _______ _______ _______ _____ _____    ______ ____
ROOT
ATOM      1  C   UNL     1      -1.783   5.450   2.337  0.00  0.00    +0.039 A 
ATOM      2  C   UNL     1      -1.175   6.066   1.241  0.00  0.00    +0.014 A 
ATOM      3  C   UNL     1      -1.043   7.438   1.216  0.00  0.00    +0.020 A 
ATOM      4  C   UNL     1      -1.507   8.208   2.269  0.00  0.00    +0.065 A 
ATOM      5  C   UNL     1      -2.111   7.612   3.365  0.00  0.00    +0.054 A 
ATOM      6  C   UNL     1      -2.255   6.226   3.392  0.00  0.00    +0.037 A 
ATOM      7  N   UNL     1      -2.584   8.344   4.440  0.00  0.00    -0.262 N 
ATOM      8  C   UNL     1      -3.292   9.441   4.475  0.00  0.00    +0.252 C 
ATOM      9  O   UNL     1      -3.584   9.841   5.585  0.00  0.00    -0.270 OA
ATOM     10  C   UNL     1      -3.784  10.255   3.361  0.00  0.00    +0.053 A 
ATOM     11  C   UNL     1      -5.098  10.742   3.394  0.00  0.00    +0.014 A 
ATOM     12  C   UNL     1      -5.580  11.504   2.353  0.00  0.00    +0.001 A 
ATOM     13  C   UNL     1      -4.772  11.794   1.268  0.00  0.00    +0.001 A 
ATOM     14  C   UNL     1      -3.474  11.320   1.226  0.00  0.00    +0.018 A 
ATOM     15  C   UNL     1      -2.980  10.556   2.263  0.00  0.00    +0.056 A 
ATOM     16  S   UNL     1      -1.323   9.960   2.199  0.00  0.00    +0.088 S 
ATOM     17  O   UNL     1      -0.786  10.300   3.470  0.00  0.00    -0.247 OA
ENDROOT
BRANCH   1  19
ATOM     18  N   UNL     1      -1.477   3.231   1.349  0.00  0.00    -0.311 N 
ATOM     19  C   UNL     1      -1.930   3.980   2.374  0.00  0.00    +0.244 C 
ATOM     20  O   UNL     1      -2.460   3.446   3.329  0.00  0.00    -0.270 OA
ATOM     21  H   UNL     1      -0.998   3.715   0.485  0.00  0.00    +0.149 HD
BRANCH  18  22
ATOM     22  C   UNL     1      -1.623   1.774   1.385  0.00  0.00    +0.102 C 
BRANCH  22  23
ATOM     23  C   UNL     1      -1.032   1.170   0.110  0.00  0.00    +0.000 C 
BRANCH  23  24
ATOM     24  C   UNL     1      -1.184  -0.352   0.148  0.00  0.00    -0.077 C 
BRANCH  24  26
ATOM     25  C   UNL     1      -1.392  -0.532  -2.258  0.00  0.00    -0.096 C 
ATOM     26  N   UNL     1      -0.616  -0.932  -1.077  0.00  0.00    +0.380 N 
ATOM     27  H   UNL     1       0.405  -0.539  -1.194  0.00  0.00    -0.082 HD
BRANCH  26  28
ATOM     28  C   UNL     1      -0.528  -2.394  -0.975  0.00  0.00    -0.069 C 
ATOM     29  C   UNL     1       0.367  -2.770   0.208  0.00  0.00    -0.015 C 
ATOM     30  C   UNL     1       0.459  -4.294   0.314  0.00  0.00    -0.002 C 
ATOM     31  C   UNL     1       1.054  -4.860  -0.977  0.00  0.00    -0.000 C 
ATOM     32  C   UNL     1       0.159  -4.484  -2.159  0.00  0.00    -0.002 C 
ATOM     33  C   UNL     1       0.067  -2.961  -2.265  0.00  0.00    -0.015 C 
ENDBRANCH  26  28
ENDBRANCH  24  26
ENDBRANCH  23  24
ENDBRANCH  22  23
ENDBRANCH  18  22
ENDBRANCH   1  19
BRANCH   7  34
ATOM     34  C   UNL     1      -2.232   7.800   5.753  0.00  0.00    +0.149 C 
BRANCH  34  35
ATOM     35  C   UNL     1      -0.947   8.427   6.230  0.00  0.00    -0.030 A 
ATOM     36  C   UNL     1       0.268   7.894   5.840  0.00  0.00    +0.005 A 
ATOM     37  C   UNL     1       1.446   8.472   6.274  0.00  0.00    +0.000 A 
ATOM     38  C   UNL     1       1.410   9.577   7.104  0.00  0.00    +0.000 A 
ATOM     39  C   UNL     1       0.195  10.107   7.497  0.00  0.00    +0.000 A 
ATOM     40  C   UNL     1      -0.984   9.532   7.060  0.00  0.00    +0.005 A 
ENDBRANCH  34  35
ENDBRANCH   7  34
TORSDOF 8
