REMARK  Name = ZINC62430604
REMARK  7 active torsions:
REMARK  status: ('A' for Active; 'I' for Inactive)
REMARK    1  A    between atoms: C_1  and  C_2
REMARK    2  A    between atoms: C_2  and  C_3
REMARK    3  A    between atoms: C_2  and  C_4
REMARK    4  A    between atoms: C_2  and  C_5
REMARK    5  A    between atoms: N_13  and  C_14
REMARK    6  A    between atoms: C_14  and  C_15
REMARK    7  A    between atoms: C_18  and  N_21
REMARK                            x       y       z     vdW  Elec       q    Type
REMARK                         _______ _______ _______ _____ _____    ______ ____
ROOT
ATOM      1  C   UNL     1       0.718  -0.497  -1.257  0.00  0.00    +0.001 C 
ATOM      2  C   UNL     1      -0.023   0.009  -2.497  0.00  0.00    +0.010 C 
ATOM      3  C   UNL     1       0.535  -0.683  -3.747  0.00  0.00    +0.057 C 
ATOM      4  C   UNL     1       2.036  -0.572  -3.720  0.00  0.00    +0.063 A 
ATOM      5  C   UNL     1       2.758  -0.251  -2.618  0.00  0.00    +0.086 A 
ATOM      6  N   UNL     1       4.035  -0.248  -2.987  0.00  0.00    -0.134 NA
ATOM      7  N   UNL     1       4.103  -0.551  -4.239  0.00  0.00    -0.065 NA
ATOM      8  N   UNL     1       2.920  -0.753  -4.715  0.00  0.00    -0.244 N 
ATOM      9  C   UNL     1       2.158   0.033  -1.267  0.00  0.00    +0.063 C 
ENDROOT
BRANCH   1  11
ATOM     10  C   UNL     1      -0.019   1.526   0.010  0.00  0.00    +0.011 C 
ATOM     11  C   UNL     1       0.002  -0.004   0.002  0.00  0.00    -0.035 C 
ATOM     12  C   UNL     1       0.742  -0.511   1.242  0.00  0.00    +0.011 C 
ATOM     13  C   UNL     1      -1.433  -0.534   0.013  0.00  0.00    +0.011 C 
ENDBRANCH   1  11
BRANCH   8  14
ATOM     14  C   UNL     1       2.599  -1.117  -6.098  0.00  0.00    +0.180 C 
BRANCH  14  15
ATOM     15  C   UNL     1       2.389   0.135  -6.910  0.00  0.00    -0.026 A 
ATOM     16  C   UNL     1       1.128   0.695  -7.002  0.00  0.00    +0.007 A 
ATOM     17  C   UNL     1       0.932   1.841  -7.746  0.00  0.00    +0.023 A 
ATOM     18  C   UNL     1       2.004   2.433  -8.403  0.00  0.00    +0.025 A 
ATOM     19  C   UNL     1       3.270   1.868  -8.309  0.00  0.00    +0.023 A 
ATOM     20  C   UNL     1       3.459   0.724  -7.558  0.00  0.00    +0.007 A 
BRANCH  18  21
ATOM     21  N   UNL     1       1.810   3.593  -9.157  0.00  0.00    -0.358 N 
ATOM     22  H   UNL     1       0.926   3.986  -9.222  0.00  0.00    +0.142 HD
ATOM     23  H   UNL     1       2.559   4.005  -9.615  0.00  0.00    +0.142 HD
ENDBRANCH  18  21
ENDBRANCH  14  15
ENDBRANCH   8  14
TORSDOF 4
