REMARK  Name = ZINC01199019
REMARK  7 active torsions:
REMARK  status: ('A' for Active; 'I' for Inactive)
REMARK    1  A    between atoms: C_4  and  C_7
REMARK    2  A    between atoms: C_7  and  C_8
REMARK    3  A    between atoms: C_8  and  N_9
REMARK    4  A    between atoms: C_10  and  C_26
REMARK    5  A    between atoms: C_12  and  C_17
REMARK    6  A    between atoms: C_17  and  C_19
REMARK    7  A    between atoms: C_30  and  N_32
REMARK                            x       y       z     vdW  Elec       q    Type
REMARK                         _______ _______ _______ _____ _____    ______ ____
ROOT
ATOM      1  N   UNL     1       2.831   2.114   0.783  0.00  0.00    -0.283 N 
ATOM      2  C   UNL     1       1.956   1.365  -0.126  0.00  0.00    +0.145 C 
ATOM      3  C   UNL     1       2.795   1.027  -1.336  0.00  0.00    +0.076 C 
ATOM      4  C   UNL     1       4.026   1.545  -1.115  0.00  0.00    +0.249 C 
ATOM      5  C   UNL     1       4.040   2.218   0.201  0.00  0.00    +0.288 C 
ATOM      6  O   UNL     1       5.001   2.780   0.686  0.00  0.00    -0.266 OA
ATOM      7  O   UNL     1       5.076   1.460  -1.963  0.00  0.00    -0.282 OA
ENDROOT
BRANCH   2   8
ATOM      8  C   UNL     1       0.780   2.215  -0.531  0.00  0.00    -0.020 A 
ATOM      9  C   UNL     1       0.960   3.558  -0.805  0.00  0.00    +0.006 A 
ATOM     10  C   UNL     1      -0.119   4.338  -1.177  0.00  0.00    +0.003 A 
ATOM     11  C   UNL     1      -1.378   3.775  -1.276  0.00  0.00    +0.033 A 
ATOM     12  C   UNL     1      -1.556   2.431  -1.009  0.00  0.00    +0.127 A 
ATOM     13  C   UNL     1      -0.479   1.652  -0.631  0.00  0.00    +0.038 A 
BRANCH  12  14
ATOM     14  N   UNL     1      -2.903   1.827  -1.121  0.00  0.00    +0.056 N 
ATOM     15  O   UNL     1      -3.045   0.626  -0.978  0.00  0.00    -0.126 OA
ATOM     16  O   UNL     1      -3.869   2.531  -1.356  0.00  0.00    -0.126 OA
ENDBRANCH  12  14
ENDBRANCH   2   8
BRANCH   3  17
ATOM     17  C   UNL     1       2.360   0.281  -2.521  0.00  0.00    +0.195 C 
ATOM     18  O   UNL     1       2.330   0.828  -3.607  0.00  0.00    -0.287 OA
BRANCH  17  19
ATOM     19  C   UNL     1       1.958  -1.136  -2.396  0.00  0.00    +0.022 A 
ATOM     20  C   UNL     1       2.107  -1.802  -1.177  0.00  0.00    +0.013 A 
ATOM     21  C   UNL     1       1.724  -3.122  -1.065  0.00  0.00    +0.016 A 
ATOM     22  C   UNL     1       1.204  -3.791  -2.161  0.00  0.00    +0.018 A 
ATOM     23  C   UNL     1       1.058  -3.137  -3.374  0.00  0.00    +0.016 A 
ATOM     24  C   UNL     1       1.432  -1.815  -3.497  0.00  0.00    +0.013 A 
ATOM     25 BR   UNL     1       0.688  -5.603  -2.001  0.00  0.00    -0.050 Br
ENDBRANCH  17  19
ENDBRANCH   3  17
BRANCH   1  26
ATOM     26  C   UNL     1       2.455   2.655   2.091  0.00  0.00    +0.114 C 
BRANCH  26  27
ATOM     27  C   UNL     1       2.731   1.609   3.174  0.00  0.00    +0.054 C 
BRANCH  27  31
ATOM     28  C   UNL     1       1.635   3.185   6.990  0.00  0.00    +0.000 A 
ATOM     29  C   UNL     1       0.706   2.495   6.234  0.00  0.00    +0.000 A 
ATOM     30  C   UNL     1       1.060   1.985   4.999  0.00  0.00    +0.004 A 
ATOM     31  C   UNL     1       2.345   2.165   4.520  0.00  0.00    -0.046 A 
ATOM     32  C   UNL     1       3.276   2.850   5.278  0.00  0.00    +0.004 A 
ATOM     33  C   UNL     1       2.920   3.364   6.511  0.00  0.00    +0.000 A 
ENDBRANCH  27  31
ENDBRANCH  26  27
ENDBRANCH   1  26
TORSDOF 7
