REMARK  Name = ZINC39992729
REMARK  10 active torsions:
REMARK  status: ('A' for Active; 'I' for Inactive)
REMARK    1  A    between atoms: C_1  and  C_2
REMARK    2  A    between atoms: C_5  and  C_8
REMARK    3  A    between atoms: C_9  and  C_19
REMARK    4  A    between atoms: N_11  and  C_13
REMARK    5  A    between atoms: C_20  and  C_21
REMARK    6  A    between atoms: C_20  and  C_23
REMARK    7  A    between atoms: N_25  and  C_26
REMARK    8  A    between atoms: C_27  and  C_35
REMARK    9  A    between atoms: C_35  and  O_37
REMARK   10  A    between atoms: O_37  and  C_38
REMARK                            x       y       z     vdW  Elec       q    Type
REMARK                         _______ _______ _______ _____ _____    ______ ____
ROOT
ATOM      1  C   UNL     1       1.547  -4.703   2.090  0.00  0.00    +0.035 C 
ATOM      2  C   UNL     1       2.049  -5.645   2.965  0.00  0.00    +0.114 C 
ENDROOT
BRANCH   1   4
ATOM      3  C   UNL     1       0.105  -4.331  -0.067  0.00  0.00    +0.100 A 
ATOM      4  C   UNL     1       0.975  -5.123   0.813  0.00  0.00    +0.022 A 
ATOM      5  C   UNL     1       1.145  -6.350   0.189  0.00  0.00    +0.123 A 
ATOM      6  N   UNL     1       0.452  -6.323  -0.962  0.00  0.00    -0.239 N 
ATOM      7  N   UNL     1      -0.183  -5.087  -1.103  0.00  0.00    -0.166 NA
BRANCH   3  12
ATOM      8  C   UNL     1      -1.718   1.051   0.859  0.00  0.00    +0.044 C 
ATOM      9  C   UNL     1      -1.241  -0.358   0.617  0.00  0.00    -0.050 A 
ATOM     10  C   UNL     1      -0.968  -0.781  -0.672  0.00  0.00    +0.004 A 
ATOM     11  C   UNL     1      -0.531  -2.070  -0.900  0.00  0.00    +0.010 A 
ATOM     12  C   UNL     1      -0.364  -2.946   0.171  0.00  0.00    +0.003 A 
ATOM     13  C   UNL     1      -0.640  -2.514   1.468  0.00  0.00    +0.010 A 
ATOM     14  C   UNL     1      -1.072  -1.221   1.684  0.00  0.00    +0.004 A 
ENDBRANCH   3  12
BRANCH   6  15
ATOM     15  C   UNL     1       0.373  -7.378  -1.880  0.00  0.00    +0.065 A 
ATOM     16  C   UNL     1       1.040  -8.570  -1.629  0.00  0.00    +0.028 A 
ATOM     17  C   UNL     1       0.960  -9.609  -2.535  0.00  0.00    +0.002 A 
ATOM     18  C   UNL     1       0.217  -9.463  -3.692  0.00  0.00    +0.000 A 
ATOM     19  C   UNL     1      -0.448  -8.277  -3.946  0.00  0.00    +0.002 A 
ATOM     20  C   UNL     1      -0.377  -7.237  -3.040  0.00  0.00    +0.028 A 
ENDBRANCH   6  15
ENDBRANCH   1   4
BRANCH   2  21
ATOM     21  C   UNL     1       2.758  -5.216   4.179  0.00  0.00    +0.259 C 
ATOM     22  O   UNL     1       2.902  -4.031   4.413  0.00  0.00    -0.269 OA
ATOM     23  N   UNL     1       3.248  -6.136   5.034  0.00  0.00    -0.275 N 
ATOM     24  H   UNL     1       3.133  -7.081   4.847  0.00  0.00    +0.156 HD
BRANCH  23  25
ATOM     25  C   UNL     1       3.916  -5.732   6.178  0.00  0.00    +0.087 A 
ATOM     26  C   UNL     1       4.487  -6.530   7.159  0.00  0.00    +0.091 A 
ATOM     27  C   UNL     1       5.135  -5.854   8.269  0.00  0.00    -0.021 A 
ATOM     28  C   UNL     1       5.093  -4.506   8.196  0.00  0.00    -0.004 A 
ATOM     29  S   UNL     1       4.226  -4.165   6.692  0.00  0.00    -0.077 S 
ATOM     30  C   UNL     1       5.666  -3.534   9.180  0.00  0.00    +0.043 C 
ATOM     31  C   UNL     1       5.981  -4.290  10.479  0.00  0.00    +0.005 C 
ATOM     32  C   UNL     1       6.746  -5.571  10.133  0.00  0.00    +0.005 C 
ATOM     33  C   UNL     1       5.814  -6.562   9.432  0.00  0.00    +0.037 C 
BRANCH  26  34
ATOM     34  C   UNL     1       4.438  -7.991   7.079  0.00  0.00    +0.342 C 
ATOM     35  O   UNL     1       5.327  -8.600   6.515  0.00  0.00    -0.245 OA
BRANCH  34  36
ATOM     36  O   UNL     1       3.406  -8.662   7.630  0.00  0.00    -0.464 OA
ATOM     37  C   UNL     1       3.423 -10.087   7.514  0.00  0.00    +0.280 C 
ENDBRANCH  34  36
ENDBRANCH  26  34
ENDBRANCH  23  25
ENDBRANCH   2  21
BRANCH   2  38
ATOM     38  C   UNL     1       1.880  -7.040   2.690  0.00  0.00    +0.104 C 
ATOM     39  N   UNL     1       1.745  -8.147   2.472  0.00  0.00    -0.191 NA
ENDBRANCH   2  38
TORSDOF 8
