REMARK  Name = ZINC06301796
REMARK  7 active torsions:
REMARK  status: ('A' for Active; 'I' for Inactive)
REMARK    1  A    between atoms: C_1  and  C_2
REMARK    2  A    between atoms: C_4  and  C_38
REMARK    3  A    between atoms: C_7  and  C_14
REMARK    4  A    between atoms: C_14  and  C_16
REMARK    5  A    between atoms: C_14  and  N_68
REMARK    6  A    between atoms: N_20  and  C_21
REMARK    7  A    between atoms: C_31  and  C_33
REMARK                            x       y       z     vdW  Elec       q    Type
REMARK                         _______ _______ _______ _____ _____    ______ ____
ROOT
ATOM      1  C   UNL     1       5.036   4.247   0.004  0.00  0.00    +0.039 C 
ENDROOT
BRANCH   1   8
ATOM      2  C   UNL     1      -0.905  -1.074   0.127  0.00  0.00    +0.044 C 
ATOM      3  C   UNL     1       0.359  -0.254   0.100  0.00  0.00    -0.048 A 
ATOM      4  C   UNL     1       1.591  -0.893   0.073  0.00  0.00    +0.007 A 
ATOM      5  C   UNL     1       2.749  -0.169   0.048  0.00  0.00    -0.041 A 
ATOM      6  C   UNL     1       2.693   1.229   0.051  0.00  0.00    +0.002 A 
ATOM      7  C   UNL     1       3.914   2.036   0.024  0.00  0.00    +0.018 A 
ATOM      8  C   UNL     1       3.799   3.387   0.029  0.00  0.00    +0.011 A 
ATOM      9  C   UNL     1       2.523   3.990   0.057  0.00  0.00    +0.251 A 
ATOM     10  O   UNL     1       2.442   5.207   0.059  0.00  0.00    -0.268 OA
ATOM     11  N   UNL     1       1.396   3.258   0.080  0.00  0.00    -0.322 N 
ATOM     12  H   UNL     1       0.536   3.705   0.099  0.00  0.00    +0.169 HD
ATOM     13  C   UNL     1       1.446   1.880   0.078  0.00  0.00    +0.050 A 
ATOM     14  C   UNL     1       0.280   1.122   0.103  0.00  0.00    +0.029 A 
ATOM     15  C   UNL     1       4.081  -0.873   0.019  0.00  0.00    +0.044 C 
ENDBRANCH   1   8
BRANCH   1  23
ATOM     16  C   UNL     1       4.762   4.458  -2.393  0.00  0.00    -0.058 C 
ATOM     17  C   UNL     1       4.509   5.467  -3.518  0.00  0.00    +0.089 C 
ATOM     18  N   UNL     1       5.607   6.445  -3.526  0.00  0.00    -0.299 N 
ATOM     19  C   UNL     1       5.956   7.109  -2.261  0.00  0.00    +0.089 C 
ATOM     20  C   UNL     1       6.153   6.036  -1.185  0.00  0.00    -0.058 C 
ATOM     21  C   UNL     1       6.277   6.725  -4.662  0.00  0.00    +0.282 C 
ATOM     22  O   UNL     1       7.136   7.587  -4.665  0.00  0.00    -0.267 OA
ATOM     23  N   UNL     1       4.936   5.197  -1.123  0.00  0.00    +0.391 N 
ATOM     24  H   UNL     1       4.121   5.804  -0.977  0.00  0.00    -0.080 HD
BRANCH  21  25
ATOM     25  C   UNL     1       5.969   5.991  -5.893  0.00  0.00    +0.189 A 
ATOM     26  C   UNL     1       6.653   6.079  -7.072  0.00  0.00    +0.054 A 
ATOM     27  C   UNL     1       6.018   5.210  -7.973  0.00  0.00    +0.042 A 
ATOM     28  C   UNL     1       4.988   4.637  -7.314  0.00  0.00    +0.196 A 
ATOM     29  O   UNL     1       4.965   5.106  -6.059  0.00  0.00    -0.458 OA
ENDBRANCH  21  25
ENDBRANCH   1  23
BRANCH   1  30
ATOM     30  C   UNL     1       5.133   5.025   1.290  0.00  0.00    +0.143 A 
ATOM     31  N   UNL     1       4.423   6.074   1.626  0.00  0.00    -0.115 NA
ATOM     32  N   UNL     1       4.799   6.450   2.800  0.00  0.00    -0.023 NA
ATOM     33  N   UNL     1       5.736   5.673   3.218  0.00  0.00    -0.044 NA
ATOM     34  N   UNL     1       5.971   4.781   2.316  0.00  0.00    -0.227 N 
BRANCH  34  35
ATOM     35  C   UNL     1       6.962   3.705   2.392  0.00  0.00    +0.111 C 
ATOM     36  C   UNL     1       6.691   2.824   3.630  0.00  0.00    +0.027 C 
ATOM     37  C   UNL     1       8.104   2.454   4.148  0.00  0.00    +0.002 C 
ATOM     38  C   UNL     1       8.907   3.758   3.915  0.00  0.00    +0.002 C 
ATOM     39  C   UNL     1       8.370   4.298   2.573  0.00  0.00    +0.027 C 
ENDBRANCH  34  35
ENDBRANCH   1  30
TORSDOF 5
