REMARK  Name = ZINC08834307
REMARK  5 active torsions:
REMARK  status: ('A' for Active; 'I' for Inactive)
REMARK    1  A    between atoms: C_4  and  N_7
REMARK    2  A    between atoms: N_8  and  C_9
REMARK    3  A    between atoms: C_12  and  N_15
REMARK    4  A    between atoms: N_15  and  S_16
REMARK    5  A    between atoms: S_16  and  C_19
REMARK                            x       y       z     vdW  Elec       q    Type
REMARK                         _______ _______ _______ _____ _____    ______ ____
ROOT
ATOM      1  C   UNL     1       4.753  -0.306   1.872  0.00  0.00    +0.086 A 
ATOM      2  C   UNL     1       5.518   0.761   2.355  0.00  0.00    +0.031 A 
ATOM      3  C   UNL     1       5.069   2.053   2.201  0.00  0.00    +0.026 A 
ATOM      4  C   UNL     1       3.855   2.298   1.565  0.00  0.00    +0.048 A 
ATOM      5  C   UNL     1       3.088   1.239   1.088  0.00  0.00    +0.026 A 
ATOM      6  C   UNL     1       3.533  -0.056   1.234  0.00  0.00    +0.031 A 
ENDROOT
BRANCH   1   8
ATOM      7  N   UNL     1       4.489  -2.571   1.577  0.00  0.00    -0.149 NA
ATOM      8  N   UNL     1       5.196  -1.588   2.022  0.00  0.00    -0.149 NA
BRANCH   7  12
ATOM      9  C   UNL     1       5.831  -6.457   2.032  0.00  0.00    +0.000 A 
ATOM     10  C   UNL     1       4.623  -6.215   1.401  0.00  0.00    +0.002 A 
ATOM     11  C   UNL     1       4.169  -4.922   1.245  0.00  0.00    +0.029 A 
ATOM     12  C   UNL     1       4.932  -3.855   1.727  0.00  0.00    +0.086 A 
ATOM     13  C   UNL     1       6.153  -4.107   2.359  0.00  0.00    +0.029 A 
ATOM     14  C   UNL     1       6.591  -5.406   2.512  0.00  0.00    +0.002 A 
ENDBRANCH   7  12
ENDBRANCH   1   8
BRANCH   4  15
ATOM     15  N   UNL     1       3.404   3.606   1.410  0.00  0.00    -0.216 N 
ATOM     16  H   UNL     1       3.443   4.224   2.157  0.00  0.00    +0.174 HD
BRANCH  15  17
ATOM     17  S   UNL     1       2.800   4.107  -0.048  0.00  0.00    +0.073 S 
ATOM     18  O   UNL     1       2.531   5.497   0.080  0.00  0.00    -0.150 OA
ATOM     19  O   UNL     1       1.800   3.168  -0.418  0.00  0.00    -0.150 OA
BRANCH  17  20
ATOM     20  C   UNL     1       4.098   3.953  -1.230  0.00  0.00    +0.123 A 
ATOM     21  C   UNL     1       3.976   3.059  -2.277  0.00  0.00    +0.045 A 
ATOM     22  C   UNL     1       4.995   2.937  -3.205  0.00  0.00    +0.020 A 
ATOM     23  C   UNL     1       6.134   3.713  -3.087  0.00  0.00    +0.016 A 
ATOM     24  C   UNL     1       6.259   4.603  -2.036  0.00  0.00    +0.018 A 
ATOM     25  C   UNL     1       5.239   4.724  -1.109  0.00  0.00    +0.045 A 
ATOM     26 BR   UNL     1       5.407   5.946   0.325  0.00  0.00    -0.048 Br
ATOM     27 BR   UNL     1       4.828   1.715  -4.638  0.00  0.00    -0.050 Br
ENDBRANCH  17  20
ENDBRANCH  15  17
ENDBRANCH   4  15
TORSDOF 5
