REMARK  Name = ZINC32319818
REMARK  8 active torsions:
REMARK  status: ('A' for Active; 'I' for Inactive)
REMARK    1  A    between atoms: C_1  and  C_2
REMARK    2  A    between atoms: C_5  and  N_9
REMARK    3  A    between atoms: C_7  and  C_8
REMARK    4  A    between atoms: C_10  and  C_30
REMARK    5  A    between atoms: C_13  and  S_14
REMARK    6  A    between atoms: S_14  and  C_15
REMARK    7  A    between atoms: C_15  and  C_16
REMARK    8  A    between atoms: C_16  and  C_18
REMARK                            x       y       z     vdW  Elec       q    Type
REMARK                         _______ _______ _______ _____ _____    ______ ____
ROOT
ATOM      1  N   UNL     1      -9.083  -0.497  -0.117  0.00  0.00    -0.270 N 
ATOM      2  C   UNL     1      -9.743   0.710  -0.197  0.00  0.00    +0.169 A 
ATOM      3  N   UNL     1      -8.838   1.652  -0.063  0.00  0.00    -0.128 NA
ATOM      4  N   UNL     1      -7.676   1.127   0.098  0.00  0.00    -0.122 NA
ATOM      5  C   UNL     1      -7.766  -0.185   0.077  0.00  0.00    +0.197 A 
ENDROOT
BRANCH   1  10
ATOM      6  C   UNL     1     -11.361  -5.682  -0.499  0.00  0.00    +0.044 C 
ATOM      7  C   UNL     1     -10.756  -4.306  -0.397  0.00  0.00    -0.047 A 
ATOM      8  C   UNL     1     -11.043  -3.504   0.692  0.00  0.00    +0.005 A 
ATOM      9  C   UNL     1     -10.491  -2.242   0.788  0.00  0.00    +0.026 A 
ATOM     10  C   UNL     1      -9.646  -1.778  -0.211  0.00  0.00    +0.051 A 
ATOM     11  C   UNL     1      -9.363  -2.583  -1.306  0.00  0.00    +0.030 A 
ATOM     12  C   UNL     1      -9.915  -3.846  -1.394  0.00  0.00    -0.046 A 
ATOM     13  C   UNL     1      -9.604  -4.723  -2.580  0.00  0.00    +0.044 C 
ENDBRANCH   1  10
BRANCH   2  14
ATOM     14  C   UNL     1     -11.193   0.907  -0.401  0.00  0.00    +0.022 A 
ATOM     15  C   UNL     1     -11.998  -0.128  -0.891  0.00  0.00    +0.031 A 
ATOM     16  C   UNL     1     -13.348   0.098  -1.061  0.00  0.00    +0.111 A 
ATOM     17  N   UNL     1     -13.879   1.272  -0.778  0.00  0.00    -0.263 NA
ATOM     18  C   UNL     1     -13.156   2.276  -0.319  0.00  0.00    +0.111 A 
ATOM     19  C   UNL     1     -11.799   2.136  -0.114  0.00  0.00    +0.031 A 
ENDBRANCH   2  14
BRANCH   5  20
ATOM     20  S   UNL     1      -6.437  -1.327   0.258  0.00  0.00    -0.078 S 
BRANCH  20  21
ATOM     21  C   UNL     1      -5.057  -0.174   0.461  0.00  0.00    +0.157 C 
BRANCH  21  22
ATOM     22  C   UNL     1      -3.776  -0.948   0.637  0.00  0.00    +0.173 C 
ATOM     23  O   UNL     1      -3.795  -2.161   0.627  0.00  0.00    -0.291 OA
BRANCH  22  24
ATOM     24  C   UNL     1      -2.506  -0.235   0.822  0.00  0.00    +0.019 A 
ATOM     25  C   UNL     1      -2.474   1.166   0.835  0.00  0.00    +0.013 A 
ATOM     26  C   UNL     1      -1.288   1.805   1.002  0.00  0.00    +0.024 A 
ATOM     27  C   UNL     1      -0.079   1.099   1.163  0.00  0.00    +0.037 A 
ATOM     28  C   UNL     1      -0.104  -0.282   1.160  0.00  0.00    -0.025 A 
ATOM     29  C   UNL     1      -1.316  -0.942   0.986  0.00  0.00    +0.016 A 
ATOM     30  C   UNL     1       1.087  -1.167   1.336  0.00  0.00    +0.037 C 
ATOM     31  C   UNL     1       2.134  -0.668   2.283  0.00  0.00    +0.014 C 
ATOM     32  C   UNL     1       3.009   0.413   1.696  0.00  0.00    +0.096 C 
ATOM     33  C   UNL     1       2.290   1.710   1.587  0.00  0.00    +0.217 C 
ATOM     34  O   UNL     1       2.947   2.709   1.784  0.00  0.00    -0.275 OA
ATOM     35  N   UNL     1       1.032   1.890   1.302  0.00  0.00    -0.285 N 
ATOM     36  H   UNL     1       0.954   2.978   1.158  0.00  0.00    +0.155 HD
ENDBRANCH  22  24
ENDBRANCH  21  22
ENDBRANCH  20  21
ENDBRANCH   5  20
TORSDOF 6
