REMARK  Name = ZINC06814139
REMARK  15 active torsions:
REMARK  status: ('A' for Active; 'I' for Inactive)
REMARK    1  A    between atoms: C_1  and  C_2
REMARK    2  A    between atoms: C_2  and  C_3
REMARK    3  A    between atoms: C_2  and  O_4
REMARK    4  A    between atoms: O_4  and  C_5
REMARK    5  A    between atoms: C_8  and  C_11
REMARK    6  A    between atoms: C_11  and  C_13
REMARK    7  A    between atoms: C_11  and  C_27
REMARK    8  A    between atoms: C_13  and  C_14
REMARK    9  A    between atoms: C_14  and  N_15
REMARK   10  A    between atoms: N_15  and  C_16
REMARK   11  A    between atoms: C_16  and  C_17
REMARK   12  A    between atoms: C_20  and  O_25
REMARK   13  A    between atoms: C_21  and  O_23
REMARK   14  A    between atoms: O_23  and  C_24
REMARK   15  A    between atoms: O_25  and  C_26
REMARK                            x       y       z     vdW  Elec       q    Type
REMARK                         _______ _______ _______ _____ _____    ______ ____
ROOT
ATOM      1  C   UNL     1       1.312  -2.192  -0.207  0.00  0.00    +0.020 C 
ENDROOT
BRANCH   1   5
ATOM      2  C   UNL     1       1.810   2.053  -0.221  0.00  0.00    +0.121 A 
ATOM      3  C   UNL     1       0.648   1.491   0.287  0.00  0.00    +0.046 A 
ATOM      4  C   UNL     1       0.489   0.119   0.290  0.00  0.00    +0.007 A 
ATOM      5  C   UNL     1       1.488  -0.695  -0.212  0.00  0.00    -0.044 A 
ATOM      6  C   UNL     1       2.647  -0.138  -0.720  0.00  0.00    +0.007 A 
ATOM      7  C   UNL     1       2.811   1.234  -0.725  0.00  0.00    +0.046 A 
BRANCH   2   8
ATOM      8  O   UNL     1       1.969   3.402  -0.226  0.00  0.00    -0.489 OA
BRANCH   8  10
ATOM      9  C   UNL     1       2.872   5.352  -1.333  0.00  0.00    +0.051 C 
ATOM     10  C   UNL     1       3.135   3.917  -0.873  0.00  0.00    +0.167 C 
ATOM     11  C   UNL     1       4.310   3.901   0.106  0.00  0.00    +0.051 C 
ENDBRANCH   8  10
ENDBRANCH   2   8
ENDBRANCH   1   5
BRANCH   1  12
ATOM     12  C   UNL     1       2.065  -2.789   0.983  0.00  0.00    -0.004 C 
ATOM     13  C   UNL     1       1.429  -2.301   2.286  0.00  0.00    +0.004 C 
ATOM     14  C   UNL     1       2.183  -2.899   3.476  0.00  0.00    +0.000 C 
ATOM     15  C   UNL     1       3.647  -2.458   3.426  0.00  0.00    +0.000 C 
ATOM     16  C   UNL     1       4.282  -2.946   2.123  0.00  0.00    +0.000 C 
ATOM     17  C   UNL     1       3.529  -2.348   0.933  0.00  0.00    +0.004 C 
ENDBRANCH   1  12
BRANCH   1  18
ATOM     18  C   UNL     1       1.868  -2.775  -1.508  0.00  0.00    -0.011 C 
BRANCH  18  19
ATOM     19  C   UNL     1       1.558  -4.272  -1.569  0.00  0.00    -0.082 C 
BRANCH  19  20
ATOM     20  N   UNL     1       2.187  -4.854  -2.762  0.00  0.00    +0.382 N 
ATOM     21  H   UNL     1       1.792  -4.361  -3.662  0.00  0.00    -0.085 HD
ATOM     22  H   UNL     1       3.276  -4.707  -2.711  0.00  0.00    -0.085 HD
BRANCH  20  23
ATOM     23  C   UNL     1       1.910  -6.294  -2.854  0.00  0.00    -0.047 C 
BRANCH  23  24
ATOM     24  C   UNL     1       2.570  -6.855  -4.087  0.00  0.00    -0.061 A 
ATOM     25  C   UNL     1       1.880  -6.886  -5.285  0.00  0.00    +0.005 A 
ATOM     26  C   UNL     1       2.483  -7.394  -6.420  0.00  0.00    +0.049 A 
ATOM     27  C   UNL     1       3.778  -7.884  -6.356  0.00  0.00    +0.161 A 
ATOM     28  C   UNL     1       4.470  -7.859  -5.149  0.00  0.00    +0.162 A 
ATOM     29  C   UNL     1       3.861  -7.342  -4.016  0.00  0.00    +0.051 A 
BRANCH  28  30
ATOM     30  O   UNL     1       5.741  -8.338  -5.082  0.00  0.00    -0.491 OA
ATOM     31  C   UNL     1       6.390  -8.279  -3.810  0.00  0.00    +0.277 C 
ENDBRANCH  28  30
BRANCH  27  32
ATOM     32  O   UNL     1       4.371  -8.389  -7.471  0.00  0.00    -0.491 OA
ATOM     33  C   UNL     1       3.601  -8.384  -8.675  0.00  0.00    +0.277 C 
ENDBRANCH  27  32
ENDBRANCH  23  24
ENDBRANCH  20  23
ENDBRANCH  19  20
ENDBRANCH  18  19
ENDBRANCH   1  18
TORSDOF 11
