REMARK  Name = ZINC00432518
REMARK  8 active torsions:
REMARK  status: ('A' for Active; 'I' for Inactive)
REMARK    1  A    between atoms: C_1  and  C_2
REMARK    2  A    between atoms: C_2  and  N_3
REMARK    3  A    between atoms: C_10  and  C_22
REMARK    4  A    between atoms: C_12  and  C_18
REMARK    5  A    between atoms: C_12  and  C_20
REMARK    6  A    between atoms: C_13  and  N_17
REMARK    7  A    between atoms: C_14  and  C_15
REMARK    8  A    between atoms: C_25  and  C_27
REMARK                            x       y       z     vdW  Elec       q    Type
REMARK                         _______ _______ _______ _____ _____    ______ ____
ROOT
ATOM      1  N   UNL     1       0.713  -0.491   1.192  0.00  0.00    -0.298 NA
ATOM      2  C   UNL     1      -0.040  -0.178   2.421  0.00  0.00    +0.112 C 
ATOM      3  C   UNL     1       0.832  -0.550   3.595  0.00  0.00    -0.007 C 
ATOM      4  C   UNL     1       1.659  -1.575   3.504  0.00  0.00    -0.026 C 
ATOM      5  C   UNL     1       1.748  -2.448   2.285  0.00  0.00    +0.045 C 
ATOM      6  C   UNL     1       0.960  -1.932   1.103  0.00  0.00    +0.093 C 
ATOM      7  C   UNL     1       3.227  -2.648   1.950  0.00  0.00    +0.074 C 
ATOM      8  C   UNL     1       3.900  -3.388   3.107  0.00  0.00    +0.189 C 
ATOM      9  C   UNL     1       3.607  -2.743   4.428  0.00  0.00    +0.054 C 
ATOM     10  C   UNL     1       2.560  -1.905   4.637  0.00  0.00    +0.074 C 
ENDROOT
BRANCH   7  11
ATOM     11  C   UNL     1       3.353  -3.459   0.687  0.00  0.00    -0.003 A 
ATOM     12  C   UNL     1       3.946  -3.126  -0.486  0.00  0.00    +0.012 A 
ATOM     13  C   UNL     1       3.941  -4.040  -1.523  0.00  0.00    +0.011 A 
ATOM     14  C   UNL     1       3.344  -5.243  -1.336  0.00  0.00    -0.013 A 
ATOM     15  S   UNL     1       2.767  -5.111   0.348  0.00  0.00    -0.098 S 
ATOM     16  C   UNL     1       3.208  -6.394  -2.299  0.00  0.00    +0.051 C 
ENDBRANCH   7  11
BRANCH   9  17
ATOM     17  N   UNL     1       4.437  -3.015   5.478  0.00  0.00    -0.358 N 
ATOM     18  H   UNL     1       5.193  -3.611   5.357  0.00  0.00    +0.142 HD
ATOM     19  H   UNL     1       4.271  -2.612   6.345  0.00  0.00    +0.142 HD
ENDBRANCH   9  17
BRANCH   1  21
ATOM     20  C   UNL     1      -0.019   1.526   0.010  0.00  0.00    +0.020 C 
ATOM     21  C   UNL     1       0.002  -0.004   0.002  0.00  0.00    +0.081 C 
ENDBRANCH   1  21
BRANCH  10  22
ATOM     22  C   UNL     1       2.327  -1.345   5.935  0.00  0.00    +0.101 C 
ATOM     23  N   UNL     1       2.143  -0.901   6.964  0.00  0.00    -0.191 NA
ENDBRANCH  10  22
BRANCH   8  24
ATOM     24  C   UNL     1       5.356  -3.393   2.889  0.00  0.00    +0.091 C 
ATOM     25  N   UNL     1       6.480  -3.396   2.721  0.00  0.00    -0.194 NA
ENDBRANCH   8  24
BRANCH   8  26
ATOM     26  C   UNL     1       3.417  -4.777   3.133  0.00  0.00    +0.091 C 
ATOM     27  N   UNL     1       3.043  -5.850   3.153  0.00  0.00    -0.194 NA
ENDBRANCH   8  26
TORSDOF 6
