REMARK  Name = ZINC04177488
REMARK  12 active torsions:
REMARK  status: ('A' for Active; 'I' for Inactive)
REMARK    1  A    between atoms: C_1  and  C_2
REMARK    2  A    between atoms: C_8  and  C_32
REMARK    3  A    between atoms: C_9  and  N_11
REMARK    4  A    between atoms: C_12  and  C_14
REMARK    5  A    between atoms: C_17  and  S_20
REMARK    6  A    between atoms: S_20  and  N_23
REMARK    7  A    between atoms: N_23  and  C_24
REMARK    8  A    between atoms: N_23  and  C_28
REMARK    9  A    between atoms: C_24  and  C_25
REMARK   10  A    between atoms: C_25  and  C_26
REMARK   11  A    between atoms: C_28  and  C_29
REMARK   12  A    between atoms: C_29  and  C_30
REMARK                            x       y       z     vdW  Elec       q    Type
REMARK                         _______ _______ _______ _____ _____    ______ ____
ROOT
ATOM      1  N   UNL     1       3.642   3.507  -0.014  0.00  0.00    -0.275 N 
ATOM      2  C   UNL     1       3.657   2.160  -0.021  0.00  0.00    +0.249 C 
ATOM      3  O   UNL     1       4.716   1.564  -0.034  0.00  0.00    -0.270 OA
ATOM      4  H   UNL     1       2.683   4.047  -0.003  0.00  0.00    +0.156 HD
ENDROOT
BRANCH   1  12
ATOM      5  C   UNL     1       8.661   9.152   0.253  0.00  0.00    +0.008 C 
ATOM      6  C   UNL     1       8.217   7.698   0.423  0.00  0.00    -0.009 C 
ATOM      7  C   UNL     1       9.110   6.790  -0.427  0.00  0.00    +0.009 C 
ATOM      8  C   UNL     1       8.827   5.328  -0.054  0.00  0.00    +0.043 C 
ATOM      9  C   UNL     1       7.344   5.123  -0.041  0.00  0.00    -0.004 A 
ATOM     10  C   UNL     1       6.390   6.079  -0.026  0.00  0.00    -0.023 A 
ATOM     11  C   UNL     1       5.022   5.589  -0.022  0.00  0.00    +0.068 A 
ATOM     12  C   UNL     1       4.834   4.213  -0.022  0.00  0.00    +0.085 A 
ATOM     13  S   UNL     1       6.452   3.594  -0.041  0.00  0.00    -0.077 S 
ATOM     14  C   UNL     1       6.760   7.557  -0.021  0.00  0.00    +0.040 C 
BRANCH  11  15
ATOM     15  C   UNL     1       3.883   6.512  -0.014  0.00  0.00    +0.244 C 
ATOM     16  O   UNL     1       3.417   6.895   1.043  0.00  0.00    -0.270 OA
ATOM     17  N   UNL     1       3.352   6.936  -1.178  0.00  0.00    -0.325 N 
ATOM     18  H   UNL     1       2.497   7.629  -1.172  0.00  0.00    +0.145 HD
ATOM     19  H   UNL     1       3.772   6.590  -2.133  0.00  0.00    +0.145 HD
ENDBRANCH  11  15
ENDBRANCH   1  12
BRANCH   2  20
ATOM     20  C   UNL     1       2.385   1.407  -0.013  0.00  0.00    +0.037 A 
ATOM     21  C   UNL     1       1.167   2.088   0.002  0.00  0.00    +0.015 A 
ATOM     22  C   UNL     1      -0.017   1.379   0.010  0.00  0.00    +0.029 A 
ATOM     23  C   UNL     1       0.002  -0.004   0.002  0.00  0.00    +0.106 A 
ATOM     24  C   UNL     1       1.206  -0.686  -0.013  0.00  0.00    +0.029 A 
ATOM     25  C   UNL     1       2.397   0.011  -0.020  0.00  0.00    +0.015 A 
BRANCH  23  26
ATOM     26  S   UNL     1      -1.514  -0.902   0.012  0.00  0.00    +0.061 S 
ATOM     27  O   UNL     1      -1.224  -2.183   0.553  0.00  0.00    -0.153 OA
ATOM     28  O   UNL     1      -2.493  -0.040   0.577  0.00  0.00    -0.153 OA
BRANCH  26  29
ATOM     29  N   UNL     1      -1.950  -1.143  -1.567  0.00  0.00    -0.175 NA
BRANCH  29  30
ATOM     30  C   UNL     1      -1.497  -2.341  -2.278  0.00  0.00    +0.124 C 
BRANCH  30  31
ATOM     31  C   UNL     1      -2.577  -3.422  -2.196  0.00  0.00    +0.135 C 
BRANCH  31  32
ATOM     32  C   UNL     1      -2.122  -4.626  -2.910  0.00  0.00    +0.064 C 
ATOM     33  N   UNL     1      -1.770  -5.555  -3.461  0.00  0.00    -0.197 NA
ENDBRANCH  31  32
ENDBRANCH  30  31
ENDBRANCH  29  30
BRANCH  29  34
ATOM     34  C   UNL     1      -2.790  -0.158  -2.254  0.00  0.00    +0.124 C 
BRANCH  34  35
ATOM     35  C   UNL     1      -1.901   0.817  -3.030  0.00  0.00    +0.135 C 
BRANCH  35  36
ATOM     36  C   UNL     1      -2.745   1.807  -3.720  0.00  0.00    +0.064 C 
ATOM     37  N   UNL     1      -3.396   2.571  -4.252  0.00  0.00    -0.197 NA
ENDBRANCH  35  36
ENDBRANCH  34  35
ENDBRANCH  29  34
ENDBRANCH  26  29
ENDBRANCH  23  26
ENDBRANCH   2  20
TORSDOF 11
