REMARK  Name = ZINC09414140
REMARK  5 active torsions:
REMARK  status: ('A' for Active; 'I' for Inactive)
REMARK    1  A    between atoms: C_7  and  N_20
REMARK    2  A    between atoms: C_8  and  C_10
REMARK    3  A    between atoms: N_12  and  C_13
REMARK    4  A    between atoms: C_21  and  C_23
REMARK    5  A    between atoms: C_24  and  C_25
REMARK                            x       y       z     vdW  Elec       q    Type
REMARK                         _______ _______ _______ _____ _____    ______ ____
ROOT
ATOM      1  C   UNL     1       2.464  -3.444   2.706  0.00  0.00    +0.001 A 
ATOM      2  C   UNL     1       3.075  -2.609   3.631  0.00  0.00    +0.004 A 
ATOM      3  C   UNL     1       2.762  -1.268   3.683  0.00  0.00    +0.047 A 
ATOM      4  C   UNL     1       1.824  -0.741   2.803  0.00  0.00    +0.138 A 
ATOM      5  C   UNL     1       1.208  -1.592   1.869  0.00  0.00    +0.042 A 
ATOM      6  C   UNL     1       1.539  -2.947   1.831  0.00  0.00    +0.013 A 
ATOM      7  C   UNL     1       0.287  -0.744   1.102  0.00  0.00    +0.092 A 
ATOM      8  C   UNL     1       0.418   0.515   1.622  0.00  0.00    +0.212 A 
ATOM      9  O   UNL     1       1.327   0.498   2.622  0.00  0.00    -0.448 OA
ENDROOT
BRANCH   8  10
ATOM     10  C   UNL     1      -0.287   1.662   1.175  0.00  0.00    +0.285 C 
ATOM     11  O   UNL     1      -1.010   1.590   0.197  0.00  0.00    -0.266 OA
ATOM     12  N   UNL     1      -0.158   2.831   1.833  0.00  0.00    -0.279 N 
ATOM     13  H   UNL     1       0.469   2.906   2.569  0.00  0.00    +0.155 HD
BRANCH  12  14
ATOM     14  C   UNL     1      -0.927   3.936   1.454  0.00  0.00    +0.034 A 
ATOM     15  C   UNL     1      -2.185   3.749   0.895  0.00  0.00    +0.025 A 
ATOM     16  C   UNL     1      -2.945   4.842   0.526  0.00  0.00    +0.022 A 
ATOM     17  C   UNL     1      -2.449   6.122   0.703  0.00  0.00    +0.041 A 
ATOM     18  C   UNL     1      -1.194   6.311   1.254  0.00  0.00    +0.022 A 
ATOM     19  C   UNL     1      -0.432   5.222   1.630  0.00  0.00    +0.025 A 
ATOM     20 CL   UNL     1      -3.404   7.493   0.232  0.00  0.00    -0.084 Cl
ENDBRANCH  12  14
ENDBRANCH   8  10
BRANCH   7  21
ATOM     21  N   UNL     1      -0.546  -1.139   0.063  0.00  0.00    -0.278 N 
ATOM     22  C   UNL     1      -0.149  -2.105  -0.789  0.00  0.00    +0.241 C 
ATOM     23  O   UNL     1       0.878  -2.722  -0.573  0.00  0.00    -0.270 OA
ATOM     24  H   UNL     1      -1.413  -0.719  -0.049  0.00  0.00    +0.155 HD
BRANCH  22  25
ATOM     25  C   UNL     1      -0.951  -2.411  -1.971  0.00  0.00    +0.068 C 
ATOM     26  C   UNL     1      -0.485  -3.275  -2.898  0.00  0.00    +0.013 C 
BRANCH  26  27
ATOM     27  C   UNL     1       0.915  -3.722  -2.849  0.00  0.00    -0.021 A 
ATOM     28  C   UNL     1       1.228  -5.072  -3.042  0.00  0.00    +0.012 A 
ATOM     29  C   UNL     1       2.540  -5.487  -2.995  0.00  0.00    +0.050 A 
ATOM     30  C   UNL     1       3.556  -4.571  -2.756  0.00  0.00    +0.166 A 
ATOM     31  C   UNL     1       3.251  -3.223  -2.562  0.00  0.00    +0.167 A 
ATOM     32  C   UNL     1       1.939  -2.797  -2.613  0.00  0.00    +0.057 A 
ATOM     33  O   UNL     1       4.414  -2.540  -2.348  0.00  0.00    -0.453 OA
ATOM     34  C   UNL     1       5.461  -3.409  -2.818  0.00  0.00    +0.466 C 
ATOM     35  O   UNL     1       4.908  -4.729  -2.663  0.00  0.00    -0.453 OA
ENDBRANCH  26  27
ENDBRANCH  22  25
ENDBRANCH   7  21
TORSDOF 5
