REMARK  Name = ZINC13063852
REMARK  10 active torsions:
REMARK  status: ('A' for Active; 'I' for Inactive)
REMARK    1  A    between atoms: C_1  and  C_2
REMARK    2  A    between atoms: C_2  and  C_3
REMARK    3  A    between atoms: C_3  and  C_5
REMARK    4  A    between atoms: C_3  and  N_70
REMARK    5  A    between atoms: N_9  and  C_10
REMARK    6  A    between atoms: C_10  and  C_11
REMARK    7  A    between atoms: C_17  and  C_18
REMARK    8  A    between atoms: C_17  and  N_70
REMARK    9  A    between atoms: C_23  and  C_30
REMARK   10  A    between atoms: C_31  and  N_70
REMARK                            x       y       z     vdW  Elec       q    Type
REMARK                         _______ _______ _______ _____ _____    ______ ____
ROOT
ATOM      1  N   UNL     1       3.935  -0.137  -1.191  0.00  0.00    +0.391 N 
ATOM      2  H   UNL     1       3.674   0.152  -2.141  0.00  0.00    -0.080 HD
ENDROOT
BRANCH   1   3
ATOM      3  C   UNL     1       3.382  -1.482  -0.930  0.00  0.00    -0.067 C 
ATOM      4  C   UNL     1       1.898  -1.487  -1.301  0.00  0.00    -0.015 C 
ATOM      5  C   UNL     1       1.315  -2.880  -1.056  0.00  0.00    -0.002 C 
ATOM      6  C   UNL     1       1.472  -3.247   0.421  0.00  0.00    -0.000 C 
ATOM      7  C   UNL     1       2.957  -3.243   0.792  0.00  0.00    -0.002 C 
ATOM      8  C   UNL     1       3.540  -1.849   0.547  0.00  0.00    -0.015 C 
ENDBRANCH   1   3
BRANCH   1   9
ATOM      9  C   UNL     1       3.379   0.834  -0.225  0.00  0.00    +0.003 C 
BRANCH   9  10
ATOM     10  C   UNL     1       4.079   0.714   1.105  0.00  0.00    +0.138 A 
ATOM     11  N   UNL     1       5.373   0.705   1.309  0.00  0.00    -0.115 NA
ATOM     12  N   UNL     1       5.575   0.587   2.576  0.00  0.00    -0.023 NA
ATOM     13  N   UNL     1       4.443   0.519   3.185  0.00  0.00    -0.044 NA
ATOM     14  N   UNL     1       3.496   0.594   2.312  0.00  0.00    -0.228 N 
BRANCH  14  15
ATOM     15  C   UNL     1       2.057   0.555   2.583  0.00  0.00    +0.178 C 
BRANCH  15  16
ATOM     16  C   UNL     1       1.543   1.978   2.814  0.00  0.00    +0.140 C 
ATOM     17  C   UNL     1       0.052   1.938   3.214  0.00  0.00    +0.035 C 
ATOM     18  C   UNL     1      -0.525   3.164   2.455  0.00  0.00    +0.031 C 
ATOM     19  C   UNL     1       0.340   3.149   1.170  0.00  0.00    +0.160 C 
ATOM     20  O   UNL     1       1.646   2.735   1.602  0.00  0.00    -0.375 OA
ENDBRANCH  15  16
ENDBRANCH  14  15
ENDBRANCH   9  10
BRANCH   9  22
ATOM     21  C   UNL     1       2.753   2.411  -2.058  0.00  0.00    +0.002 C 
ATOM     22  C   UNL     1       3.577   2.246  -0.779  0.00  0.00    -0.011 C 
ENDBRANCH   9  22
ENDBRANCH   1   9
BRANCH   1  23
ATOM     23  C   UNL     1       5.409  -0.167  -1.086  0.00  0.00    -0.036 C 
BRANCH  23  24
ATOM     24  C   UNL     1       5.967  -0.844  -2.311  0.00  0.00    +0.001 A 
ATOM     25  C   UNL     1       6.351  -0.101  -3.378  0.00  0.00    +0.017 A 
ATOM     26  C   UNL     1       6.889  -0.789  -4.553  0.00  0.00    -0.001 A 
ATOM     27  C   UNL     1       7.301  -0.076  -5.684  0.00  0.00    +0.010 A 
ATOM     28  C   UNL     1       7.799  -0.748  -6.764  0.00  0.00    +0.004 A 
ATOM     29  C   UNL     1       7.900  -2.133  -6.749  0.00  0.00    -0.048 A 
ATOM     30  C   UNL     1       7.500  -2.856  -5.646  0.00  0.00    +0.029 A 
ATOM     31  C   UNL     1       6.990  -2.193  -4.534  0.00  0.00    +0.049 A 
ATOM     32  N   UNL     1       6.583  -2.891  -3.417  0.00  0.00    -0.322 N 
ATOM     33  H   UNL     1       6.653  -3.858  -3.406  0.00  0.00    +0.169 HD
ATOM     34  C   UNL     1       6.095  -2.249  -2.341  0.00  0.00    +0.251 A 
ATOM     35  O   UNL     1       5.748  -2.898  -1.369  0.00  0.00    -0.268 OA
ATOM     36  C   UNL     1       8.453  -2.853  -7.952  0.00  0.00    +0.044 C 
ENDBRANCH  23  24
ENDBRANCH   1  23
TORSDOF 8
