REMARK  Name = ZINC36203698
REMARK  15 active torsions:
REMARK  status: ('A' for Active; 'I' for Inactive)
REMARK    1  A    between atoms: C_1  and  C_2
REMARK    2  A    between atoms: C_2  and  C_3
REMARK    3  A    between atoms: C_2  and  N_4
REMARK    4  A    between atoms: N_4  and  C_5
REMARK    5  A    between atoms: N_4  and  C_23
REMARK    6  A    between atoms: C_5  and  C_6
REMARK    7  A    between atoms: C_9  and  C_11
REMARK    8  A    between atoms: C_11  and  C_12
REMARK    9  A    between atoms: C_11  and  C_17
REMARK   10  A    between atoms: C_11  and  O_22
REMARK   11  A    between atoms: C_23  and  C_24
REMARK   12  A    between atoms: C_26  and  O_32
REMARK   13  A    between atoms: C_28  and  O_30
REMARK   14  A    between atoms: O_30  and  C_31
REMARK   15  A    between atoms: O_32  and  C_33
REMARK                            x       y       z     vdW  Elec       q    Type
REMARK                         _______ _______ _______ _____ _____    ______ ____
ROOT
ATOM      1  C   UNL     1      -1.828  -2.451   1.492  0.00  0.00    +0.089 A 
ATOM      2  C   UNL     1      -2.513  -2.344   2.645  0.00  0.00    +0.043 A 
ATOM      3  C   UNL     1      -1.681  -2.862   3.664  0.00  0.00    +0.048 A 
ATOM      4  C   UNL     1      -0.539  -3.255   3.074  0.00  0.00    +0.147 A 
ATOM      5  O   UNL     1      -0.635  -3.009   1.757  0.00  0.00    -0.463 OA
ENDROOT
BRANCH   1   6
ATOM      6  C   UNL     1      -2.318  -2.024   0.133  0.00  0.00    -0.002 C 
BRANCH   6   7
ATOM      7  N   UNL     1      -2.494  -0.566   0.112  0.00  0.00    +0.389 N 
ATOM      8  H   UNL     1      -3.065  -0.284   0.895  0.00  0.00    -0.080 HD
BRANCH   7  10
ATOM      9  C   UNL     1      -0.573  -0.183   1.581  0.00  0.00    -0.013 C 
ATOM     10  C   UNL     1      -1.181   0.087   0.203  0.00  0.00    -0.074 C 
ATOM     11  C   UNL     1      -0.257  -0.471  -0.881  0.00  0.00    -0.013 C 
ENDBRANCH   7  10
BRANCH   7  12
ATOM     12  C   UNL     1      -3.152  -0.169  -1.141  0.00  0.00    -0.042 C 
BRANCH  12  13
ATOM     13  C   UNL     1      -3.499   1.296  -1.084  0.00  0.00    -0.057 A 
ATOM     14  C   UNL     1      -4.663   1.705  -0.461  0.00  0.00    +0.047 A 
ATOM     15  C   UNL     1      -4.985   3.054  -0.407  0.00  0.00    +0.124 A 
ATOM     16  C   UNL     1      -4.139   3.991  -0.979  0.00  0.00    +0.091 A 
ATOM     17  C   UNL     1      -2.972   3.578  -1.604  0.00  0.00    +0.124 A 
ATOM     18  C   UNL     1      -2.651   2.228  -1.650  0.00  0.00    +0.047 A 
BRANCH  17  19
ATOM     19  O   UNL     1      -2.141   4.494  -2.166  0.00  0.00    -0.495 OA
ATOM     20  C   UNL     1      -2.531   5.866  -2.077  0.00  0.00    +0.277 C 
ENDBRANCH  17  19
BRANCH  15  21
ATOM     21  O   UNL     1      -6.130   3.455   0.205  0.00  0.00    -0.495 OA
ATOM     22  C   UNL     1      -6.398   4.859   0.223  0.00  0.00    +0.277 C 
ENDBRANCH  15  21
ENDBRANCH  12  13
ENDBRANCH   7  12
ENDBRANCH   6   7
ENDBRANCH   1   6
BRANCH   4  23
ATOM     23  C   UNL     1       0.647  -3.872   3.770  0.00  0.00    +0.186 C 
BRANCH  23  24
ATOM     24  C   UNL     1       1.357  -4.804   2.823  0.00  0.00    +0.034 A 
ATOM     25  C   UNL     1       2.061  -5.929   3.099  0.00  0.00    +0.015 A 
ATOM     26  C   UNL     1       2.633  -6.635   2.057  0.00  0.00    +0.008 A 
ATOM     27  C   UNL     1       2.474  -6.181   0.790  0.00  0.00    +0.045 A 
ATOM     28  S   UNL     1       1.484  -4.717   1.044  0.00  0.00    -0.098 S 
ENDBRANCH  23  24
BRANCH  23  29
ATOM     29  C   UNL     1       1.593  -2.785   4.209  0.00  0.00    +0.034 A 
ATOM     30  C   UNL     1       2.439  -2.765   5.268  0.00  0.00    +0.015 A 
ATOM     31  C   UNL     1       3.224  -1.647   5.479  0.00  0.00    +0.008 A 
ATOM     32  C   UNL     1       3.124  -0.603   4.620  0.00  0.00    +0.045 A 
ATOM     33  S   UNL     1       1.897  -1.191   3.464  0.00  0.00    -0.098 S 
ENDBRANCH  23  29
BRANCH  23  34
ATOM     34  O   UNL     1       0.200  -4.604   4.913  0.00  0.00    -0.371 OA
ATOM     35  H   UNL     1      -0.267  -4.066   5.567  0.00  0.00    +0.212 HD
ENDBRANCH  23  34
ENDBRANCH   4  23
TORSDOF 11
