REMARK  Name = ZINC03128039
REMARK  2 active torsions:
REMARK  status: ('A' for Active; 'I' for Inactive)
REMARK    1  A    between atoms: C_7  and  C_13
REMARK    2  A    between atoms: C_9  and  C_11
REMARK                            x       y       z     vdW  Elec       q    Type
REMARK                         _______ _______ _______ _____ _____    ______ ____
ROOT
ATOM      1  C   UNL     1      -0.867   3.860   1.341  0.00  0.00    +0.006 C 
ATOM      2  C   UNL     1      -0.717   2.339   1.402  0.00  0.00    +0.019 C 
ATOM      3  C   UNL     1      -0.065   1.839   0.111  0.00  0.00    +0.040 C 
ATOM      4  C   UNL     1      -0.943   2.217  -1.084  0.00  0.00    +0.019 C 
ATOM      5  C   UNL     1      -1.093   3.739  -1.144  0.00  0.00    +0.006 C 
ATOM      6  C   UNL     1      -0.315   4.374   0.010  0.00  0.00    +0.004 C 
ATOM      7  C   UNL     1       1.164   4.003  -0.106  0.00  0.00    +0.120 C 
ATOM      8  C   UNL     1       1.314   2.481  -0.046  0.00  0.00    +0.133 C 
ATOM      9 BR   UNL     1       0.128  -0.116   0.189  0.00  0.00    -0.084 Br
ENDROOT
BRANCH   8  10
ATOM     10  C   UNL     1       1.956   1.989  -1.317  0.00  0.00    +0.361 C 
ATOM     11  O   UNL     1       1.336   1.278  -2.071  0.00  0.00    -0.246 OA
ATOM     12  O   UNL     1       3.218   2.340  -1.612  0.00  0.00    -0.246 OA
ENDBRANCH   8  10
BRANCH   7  13
ATOM     13  C   UNL     1       1.708   4.509  -1.418  0.00  0.00    +0.360 C 
ATOM     14  O   UNL     1       1.220   4.136  -2.458  0.00  0.00    -0.246 OA
ATOM     15  O   UNL     1       2.733   5.375  -1.429  0.00  0.00    -0.246 OA
ENDBRANCH   7  13
TORSDOF 2
