REMARK  Name = ZINC24808550
REMARK  8 active torsions:
REMARK  status: ('A' for Active; 'I' for Inactive)
REMARK    1  A    between atoms: C_1  and  C_2
REMARK    2  A    between atoms: C_2  and  C_4
REMARK    3  A    between atoms: C_2  and  N_12
REMARK    4  A    between atoms: N_12  and  C_13
REMARK    5  A    between atoms: C_13  and  C_14
REMARK    6  A    between atoms: N_16  and  C_17
REMARK    7  A    between atoms: C_17  and  C_18
REMARK    8  A    between atoms: N_20  and  C_21
REMARK                            x       y       z     vdW  Elec       q    Type
REMARK                         _______ _______ _______ _____ _____    ______ ____
ROOT
ATOM      1  C   UNL     1       1.584   3.338   0.014  0.00  0.00    +0.196 C 
ATOM      2  O   UNL     1       0.652   4.114   0.036  0.00  0.00    -0.278 OA
ATOM      3  N   UNL     1       1.356   2.010   0.003  0.00  0.00    -0.308 N 
ATOM      4  H   UNL     1       2.201   1.307  -0.017  0.00  0.00    +0.149 HD
ENDROOT
BRANCH   1   5
ATOM      5  C   UNL     1       2.998   3.860  -0.001  0.00  0.00    +0.016 C 
BRANCH   5   6
ATOM      6  N   UNL     1       2.978   5.329   0.016  0.00  0.00    +0.389 N 
ATOM      7  H   UNL     1       2.458   5.664   0.925  0.00  0.00    -0.084 HD
ATOM      8  H   UNL     1       2.432   5.684  -0.871  0.00  0.00    -0.084 HD
BRANCH   6  10
ATOM      9  C   UNL     1       4.841   5.963  -1.441  0.00  0.00    -0.009 C 
ATOM     10  C   UNL     1       4.342   5.874   0.002  0.00  0.00    -0.042 C 
BRANCH  10  11
ATOM     11  C   UNL     1       4.339   7.250   0.618  0.00  0.00    -0.043 A 
ATOM     12  C   UNL     1       3.161   7.968   0.701  0.00  0.00    +0.005 A 
ATOM     13  C   UNL     1       3.156   9.227   1.270  0.00  0.00    +0.020 A 
ATOM     14  C   UNL     1       4.334   9.774   1.748  0.00  0.00    +0.042 A 
ATOM     15  C   UNL     1       5.514   9.059   1.661  0.00  0.00    +0.040 A 
ATOM     16  C   UNL     1       5.517   7.796   1.095  0.00  0.00    +0.044 A 
ATOM     17 CL   UNL     1       6.998   6.897   0.985  0.00  0.00    -0.083 Cl
ATOM     18 CL   UNL     1       4.330  11.358   2.458  0.00  0.00    -0.083 Cl
ENDBRANCH  10  11
ENDBRANCH   6  10
ENDBRANCH   5   6
ENDBRANCH   1   5
BRANCH   3  19
ATOM     19  C   UNL     1      -0.018   1.503   0.017  0.00  0.00    +0.200 C 
BRANCH  19  20
ATOM     20  C   UNL     1       0.002  -0.004   0.000  0.00  0.00    +0.234 C 
ATOM     21  O   UNL     1       1.060  -0.596  -0.022  0.00  0.00    -0.274 OA
ATOM     22  N   UNL     1      -1.156  -0.694   0.009  0.00  0.00    -0.284 N 
ATOM     23  H   UNL     1      -2.113  -0.161   0.106  0.00  0.00    +0.155 HD
BRANCH  22  24
ATOM     24  C   UNL     1      -1.140  -2.089  -0.104  0.00  0.00    +0.036 A 
ATOM     25  C   UNL     1      -2.156  -2.742  -0.789  0.00  0.00    +0.026 A 
ATOM     26  C   UNL     1      -2.137  -4.119  -0.906  0.00  0.00    +0.043 A 
ATOM     27  C   UNL     1      -1.112  -4.849  -0.330  0.00  0.00    +0.159 A 
ATOM     28  C   UNL     1      -0.099  -4.200   0.360  0.00  0.00    +0.160 A 
ATOM     29  C   UNL     1      -0.112  -2.822   0.474  0.00  0.00    +0.064 A 
ATOM     30  F   UNL     1       0.901  -4.915   0.922  0.00  0.00    -0.202 F 
ATOM     31  F   UNL     1      -1.098  -6.196  -0.440  0.00  0.00    -0.202 F 
ENDBRANCH  22  24
ENDBRANCH  19  20
ENDBRANCH   3  19
TORSDOF 7
