REMARK  Name = ZINC39896073
REMARK  12 active torsions:
REMARK  status: ('A' for Active; 'I' for Inactive)
REMARK    1  A    between atoms: C_1  and  C_2
REMARK    2  A    between atoms: C_2  and  C_3
REMARK    3  A    between atoms: C_6  and  C_9
REMARK    4  A    between atoms: C_9  and  C_10
REMARK    5  A    between atoms: N_14  and  C_30
REMARK    6  A    between atoms: C_16  and  C_17
REMARK    7  A    between atoms: C_16  and  C_19
REMARK    8  A    between atoms: N_21  and  C_22
REMARK    9  A    between atoms: C_22  and  C_23
REMARK   10  A    between atoms: C_33  and  C_36
REMARK   11  A    between atoms: C_36  and  C_37
REMARK   12  A    between atoms: C_36  and  C_38
REMARK                            x       y       z     vdW  Elec       q    Type
REMARK                         _______ _______ _______ _____ _____    ______ ____
ROOT
ATOM      1  C   UNL     1       3.403   0.036  -5.735  0.00  0.00    +0.143 C 
ATOM      2  C   UNL     1       4.098  -0.588  -6.934  0.00  0.00    +0.238 C 
ATOM      3  O   UNL     1       5.299  -0.752  -6.970  0.00  0.00    -0.274 OA
ATOM      4  N   UNL     1       3.310  -0.940  -7.936  0.00  0.00    -0.232 N 
ATOM      5  C   UNL     1       1.949  -0.759  -7.906  0.00  0.00    +0.098 C 
ATOM      6  C   UNL     1       1.014  -1.085  -8.890  0.00  0.00    +0.141 C 
ATOM      7  S   UNL     1       1.655  -0.006  -6.311  0.00  0.00    -0.095 S 
ENDROOT
BRANCH   4   8
ATOM      8  C   UNL     1       3.886  -1.522  -9.073  0.00  0.00    +0.042 A 
ATOM      9  C   UNL     1       4.018  -2.902  -9.158  0.00  0.00    +0.024 A 
ATOM     10  C   UNL     1       4.587  -3.472 -10.280  0.00  0.00    +0.006 A 
ATOM     11  C   UNL     1       5.025  -2.670 -11.318  0.00  0.00    -0.045 A 
ATOM     12  C   UNL     1       4.895  -1.296 -11.236  0.00  0.00    +0.006 A 
ATOM     13  C   UNL     1       4.322  -0.720 -10.120  0.00  0.00    +0.024 A 
BRANCH  11  14
ATOM     14  C   UNL     1       5.646  -3.296 -12.541  0.00  0.00    +0.013 C 
ATOM     15  C   UNL     1       4.821  -2.928 -13.776  0.00  0.00    +0.012 C 
ATOM     16  C   UNL     1       7.075  -2.777 -12.709  0.00  0.00    +0.012 C 
ENDBRANCH  11  14
ENDBRANCH   4   8
BRANCH   6  17
ATOM     17  C   UNL     1      -0.414  -0.910  -8.628  0.00  0.00    +0.257 C 
ATOM     18  O   UNL     1      -0.788  -0.480  -7.552  0.00  0.00    -0.269 OA
ATOM     19  N   UNL     1      -1.316  -1.224  -9.578  0.00  0.00    -0.307 N 
ATOM     20  H   UNL     1      -1.019  -1.567 -10.436  0.00  0.00    +0.149 HD
BRANCH  19  21
ATOM     21  C   UNL     1      -2.747  -1.049  -9.316  0.00  0.00    +0.139 C 
BRANCH  21  22
ATOM     22  C   UNL     1      -3.535  -1.470 -10.530  0.00  0.00    -0.030 A 
ATOM     23  C   UNL     1      -3.833  -0.547 -11.515  0.00  0.00    +0.005 A 
ATOM     24  C   UNL     1      -4.556  -0.934 -12.628  0.00  0.00    +0.000 A 
ATOM     25  C   UNL     1      -4.981  -2.243 -12.757  0.00  0.00    +0.000 A 
ATOM     26  C   UNL     1      -4.682  -3.166 -11.772  0.00  0.00    +0.000 A 
ATOM     27  C   UNL     1      -3.955  -2.781 -10.661  0.00  0.00    +0.005 A 
ENDBRANCH  21  22
ENDBRANCH  19  21
ENDBRANCH   6  17
BRANCH   6  28
ATOM     28  C   UNL     1       1.454  -1.590 -10.155  0.00  0.00    +0.107 C 
ATOM     29  N   UNL     1       1.803  -1.991 -11.159  0.00  0.00    -0.191 NA
ENDBRANCH   6  28
BRANCH   1  30
ATOM     30  C   UNL     1       3.594  -0.815  -4.478  0.00  0.00    +0.059 C 
BRANCH  30  34
ATOM     31  C   UNL     1       1.667   1.077  -1.168  0.00  0.00    -0.048 A 
ATOM     32  C   UNL     1       0.969   0.179  -1.953  0.00  0.00    +0.004 A 
ATOM     33  C   UNL     1       1.593  -0.433  -3.024  0.00  0.00    +0.004 A 
ATOM     34  C   UNL     1       2.914  -0.147  -3.311  0.00  0.00    -0.046 A 
ATOM     35  C   UNL     1       3.612   0.753  -2.527  0.00  0.00    +0.004 A 
ATOM     36  C   UNL     1       2.987   1.368  -1.458  0.00  0.00    +0.004 A 
BRANCH  31  38
ATOM     37  C   UNL     1       0.332   3.046  -0.467  0.00  0.00    +0.009 C 
ATOM     38  C   UNL     1       0.988   1.745  -0.000  0.00  0.00    +0.032 C 
ENDBRANCH  31  38
ENDBRANCH  30  34
ENDBRANCH   1  30
TORSDOF 9
