REMARK  Name = ZINC36604866
REMARK  6 active torsions:
REMARK  status: ('A' for Active; 'I' for Inactive)
REMARK    1  A    between atoms: C_4  and  N_7
REMARK    2  A    between atoms: N_7  and  C_8
REMARK    3  A    between atoms: C_8  and  C_10
REMARK    4  A    between atoms: C_8  and  C_19
REMARK    5  A    between atoms: N_21  and  C_22
REMARK    6  A    between atoms: C_28  and  C_30
REMARK                            x       y       z     vdW  Elec       q    Type
REMARK                         _______ _______ _______ _____ _____    ______ ____
ROOT
ATOM      1  C   UNL     1       3.148  -1.875   0.558  0.00  0.00    +0.197 C 
ENDROOT
BRANCH   1   2
ATOM      2  C   UNL     1       3.156  -1.476   2.011  0.00  0.00    -0.014 A 
ATOM      3  C   UNL     1       2.983  -0.151   2.364  0.00  0.00    +0.010 A 
ATOM      4  C   UNL     1       2.988   0.220   3.695  0.00  0.00    +0.050 A 
ATOM      5  C   UNL     1       3.167  -0.738   4.681  0.00  0.00    +0.166 A 
ATOM      6  C   UNL     1       3.341  -2.073   4.325  0.00  0.00    +0.167 A 
ATOM      7  C   UNL     1       3.329  -2.438   2.989  0.00  0.00    +0.055 A 
ATOM      8  O   UNL     1       3.496  -2.811   5.463  0.00  0.00    -0.453 OA
ATOM      9  C   UNL     1       3.823  -1.861   6.495  0.00  0.00    +0.466 C 
ATOM     10  O   UNL     1       3.213  -0.639   6.041  0.00  0.00    -0.453 OA
ENDBRANCH   1   2
BRANCH   1  11
ATOM     11  C   UNL     1       1.730  -1.891   0.048  0.00  0.00    +0.239 C 
ATOM     12  O   UNL     1       1.174  -0.849  -0.229  0.00  0.00    -0.273 OA
ATOM     13  N   UNL     1       1.081  -3.062  -0.100  0.00  0.00    -0.311 N 
ATOM     14  H   UNL     1       1.526  -3.895   0.122  0.00  0.00    +0.149 HD
BRANCH  13  15
ATOM     15  C   UNL     1      -0.298  -3.078  -0.595  0.00  0.00    +0.073 C 
ATOM     16  C   UNL     1      -1.262  -2.858   0.573  0.00  0.00    +0.022 C 
ATOM     17  C   UNL     1      -2.702  -2.875   0.056  0.00  0.00    +0.002 C 
ATOM     18  C   UNL     1      -2.993  -4.226  -0.599  0.00  0.00    +0.000 C 
ATOM     19  C   UNL     1      -2.029  -4.446  -1.767  0.00  0.00    +0.002 C 
ATOM     20  C   UNL     1      -0.590  -4.429  -1.250  0.00  0.00    +0.022 C 
ENDBRANCH  13  15
ENDBRANCH   1  11
BRANCH   1  21
ATOM     21  N   UNL     1       3.935  -0.911  -0.217  0.00  0.00    -0.255 N 
ATOM     22  C   UNL     1       5.264  -0.812  -0.018  0.00  0.00    +0.224 C 
ATOM     23  O   UNL     1       5.815  -1.546   0.774  0.00  0.00    -0.275 OA
BRANCH  21  27
ATOM     24  C   UNL     1       2.063   1.522  -3.033  0.00  0.00    +0.000 A 
ATOM     25  C   UNL     1       2.462   2.052  -1.820  0.00  0.00    +0.002 A 
ATOM     26  C   UNL     1       3.083   1.248  -0.884  0.00  0.00    +0.023 A 
ATOM     27  C   UNL     1       3.306  -0.094  -1.163  0.00  0.00    +0.037 A 
ATOM     28  C   UNL     1       2.903  -0.624  -2.382  0.00  0.00    +0.023 A 
ATOM     29  C   UNL     1       2.283   0.186  -3.313  0.00  0.00    +0.002 A 
ENDBRANCH  21  27
BRANCH  22  30
ATOM     30  C   UNL     1       6.065   0.211  -0.781  0.00  0.00    +0.076 C 
ATOM     31  C   UNL     1       6.656  -0.435  -2.035  0.00  0.00    +0.013 C 
ATOM     32  C   UNL     1       7.470   0.604  -2.810  0.00  0.00    +0.001 C 
ATOM     33  C   UNL     1       8.602   1.127  -1.925  0.00  0.00    +0.000 C 
ATOM     34  C   UNL     1       8.012   1.774  -0.670  0.00  0.00    +0.001 C 
ATOM     35  C   UNL     1       7.198   0.735   0.104  0.00  0.00    +0.013 C 
ENDBRANCH  22  30
ENDBRANCH   1  21
TORSDOF 6
