REMARK  Name = ZINC24878011
REMARK  9 active torsions:
REMARK  status: ('A' for Active; 'I' for Inactive)
REMARK    1  A    between atoms: C_4  and  C_7
REMARK    2  A    between atoms: C_7  and  C_8
REMARK    3  A    between atoms: C_8  and  N_9
REMARK    4  A    between atoms: N_9  and  C_10
REMARK    5  A    between atoms: N_9  and  S_25
REMARK    6  A    between atoms: N_13  and  C_16
REMARK    7  A    between atoms: C_16  and  C_17
REMARK    8  A    between atoms: C_17  and  C_18
REMARK    9  A    between atoms: S_25  and  C_28
REMARK                            x       y       z     vdW  Elec       q    Type
REMARK                         _______ _______ _______ _____ _____    ______ ____
ROOT
ATOM      1  N   UNL     1       1.340   2.021   0.245  0.00  0.00    -0.173 NA
ENDROOT
BRANCH   1   2
ATOM      2  C   UNL     1       2.196   2.399  -0.882  0.00  0.00    +0.076 C 
ATOM      3  C   UNL     1       1.587   3.603  -1.605  0.00  0.00    +0.002 C 
ATOM      4  C   UNL     1       2.452   3.956  -2.817  0.00  0.00    -0.077 C 
ATOM      5  N   UNL     1       2.521   2.802  -3.723  0.00  0.00    +0.380 N 
ATOM      6  C   UNL     1       3.146   1.647  -3.065  0.00  0.00    -0.077 C 
ATOM      7  C   UNL     1       2.301   1.226  -1.861  0.00  0.00    +0.002 C 
ATOM      8  H   UNL     1       1.490   2.520  -3.987  0.00  0.00    -0.082 HD
BRANCH   5   9
ATOM      9  C   UNL     1       3.228   3.147  -4.963  0.00  0.00    -0.074 C 
BRANCH   9  10
ATOM     10  C   UNL     1       2.414   4.181  -5.743  0.00  0.00    +0.016 C 
BRANCH  10  11
ATOM     11  C   UNL     1       3.139   4.536  -7.016  0.00  0.00    -0.049 A 
ATOM     12  C   UNL     1       4.040   5.585  -7.028  0.00  0.00    +0.005 A 
ATOM     13  C   UNL     1       4.710   5.907  -8.193  0.00  0.00    +0.020 A 
ATOM     14  C   UNL     1       4.471   5.187  -9.350  0.00  0.00    +0.041 A 
ATOM     15  C   UNL     1       3.565   4.141  -9.338  0.00  0.00    +0.020 A 
ATOM     16  C   UNL     1       2.900   3.816  -8.171  0.00  0.00    +0.005 A 
ATOM     17 CL   UNL     1       5.307   5.595 -10.816  0.00  0.00    -0.084 Cl
ENDBRANCH  10  11
ENDBRANCH   9  10
ENDBRANCH   5   9
ENDBRANCH   1   2
BRANCH   1  18
ATOM     18  S   UNL     1       1.985   1.884   1.765  0.00  0.00    +0.067 S 
ATOM     19  O   UNL     1       3.067   2.803   1.831  0.00  0.00    -0.152 OA
ATOM     20  O   UNL     1       0.894   1.926   2.674  0.00  0.00    -0.152 OA
BRANCH  18  21
ATOM     21  C   UNL     1       2.684   0.272   1.891  0.00  0.00    +0.143 A 
ATOM     22  C   UNL     1       3.942  -0.139   1.595  0.00  0.00    +0.036 A 
ATOM     23  C   UNL     1       4.273  -1.469   1.774  0.00  0.00    +0.010 A 
ATOM     24  C   UNL     1       3.329  -2.323   2.241  0.00  0.00    +0.047 A 
ATOM     25  S   UNL     1       1.923  -1.244   2.448  0.00  0.00    -0.077 S 
ENDBRANCH  18  21
ENDBRANCH   1  18
BRANCH   1  26
ATOM     26  C   UNL     1      -0.086   1.764   0.029  0.00  0.00    +0.114 C 
BRANCH  26  27
ATOM     27  C   UNL     1      -0.861   3.079   0.122  0.00  0.00    +0.052 C 
BRANCH  27  31
ATOM     28  C   UNL     1      -5.050   2.286  -0.147  0.00  0.00    +0.000 A 
ATOM     29  C   UNL     1      -4.427   2.298   1.087  0.00  0.00    +0.000 A 
ATOM     30  C   UNL     1      -3.071   2.555   1.174  0.00  0.00    +0.003 A 
ATOM     31  C   UNL     1      -2.339   2.799   0.027  0.00  0.00    -0.046 A 
ATOM     32  C   UNL     1      -2.963   2.793  -1.206  0.00  0.00    +0.003 A 
ATOM     33  C   UNL     1      -4.318   2.531  -1.294  0.00  0.00    +0.000 A 
ENDBRANCH  27  31
ENDBRANCH  26  27
ENDBRANCH   1  26
TORSDOF 9
