REMARK  Name = ZINC59170572
REMARK  9 active torsions:
REMARK  status: ('A' for Active; 'I' for Inactive)
REMARK    1  A    between atoms: C_1  and  C_2
REMARK    2  A    between atoms: C_2  and  O_3
REMARK    3  A    between atoms: O_3  and  C_4
REMARK    4  A    between atoms: N_12  and  N_13
REMARK    5  A    between atoms: N_13  and  S_14
REMARK    6  A    between atoms: S_14  and  C_17
REMARK    7  A    between atoms: C_20  and  C_23
REMARK    8  A    between atoms: C_24  and  C_26
REMARK    9  A    between atoms: N_28  and  C_29
REMARK                            x       y       z     vdW  Elec       q    Type
REMARK                         _______ _______ _______ _____ _____    ______ ____
ROOT
ATOM      1  C   UNL     1      -1.771  -3.659   1.452  0.00  0.00    +0.163 A 
ATOM      2  C   UNL     1      -1.232  -4.922   1.257  0.00  0.00    +0.049 A 
ATOM      3  C   UNL     1      -2.009  -5.946   0.741  0.00  0.00    +0.004 A 
ATOM      4  C   UNL     1      -3.329  -5.724   0.412  0.00  0.00    +0.012 A 
ATOM      5  C   UNL     1      -3.887  -4.455   0.602  0.00  0.00    +0.022 A 
ATOM      6  C   UNL     1      -3.102  -3.419   1.133  0.00  0.00    +0.179 A 
ATOM      7  O   UNL     1      -3.648  -2.190   1.328  0.00  0.00    -0.434 OA
ATOM      8  C   UNL     1      -4.696  -1.848   0.523  0.00  0.00    +0.225 A 
ATOM      9  N   UNL     1      -4.803  -0.644   0.035  0.00  0.00    -0.260 N 
ATOM     10  C   UNL     1      -5.706  -2.888   0.221  0.00  0.00    +0.099 A 
ATOM     11  C   UNL     1      -5.290  -4.195   0.256  0.00  0.00    +0.030 A 
ATOM     12  H   UNL     1      -4.194   0.053   0.326  0.00  0.00    +0.189 HD
ENDROOT
BRANCH  10  13
ATOM     13  C   UNL     1      -7.095  -2.533  -0.113  0.00  0.00    +0.253 C 
ATOM     14  O   UNL     1      -7.828  -2.074   0.742  0.00  0.00    -0.270 OA
ATOM     15  N   UNL     1      -7.555  -2.718  -1.367  0.00  0.00    -0.280 N 
ATOM     16  H   UNL     1      -6.993  -3.144  -2.032  0.00  0.00    +0.155 HD
BRANCH  15  17
ATOM     17  C   UNL     1      -8.844  -2.294  -1.708  0.00  0.00    +0.052 A 
ATOM     18  C   UNL     1      -9.497  -1.351  -0.925  0.00  0.00    +0.025 A 
ATOM     19  C   UNL     1     -10.769  -0.934  -1.266  0.00  0.00    +0.002 A 
ATOM     20  C   UNL     1     -11.393  -1.455  -2.385  0.00  0.00    +0.002 A 
ATOM     21  C   UNL     1     -10.747  -2.394  -3.167  0.00  0.00    +0.022 A 
ATOM     22  C   UNL     1      -9.471  -2.812  -2.835  0.00  0.00    +0.062 A 
ATOM     23 CL   UNL     1      -8.657  -3.986  -3.821  0.00  0.00    -0.082 Cl
ENDBRANCH  15  17
ENDBRANCH  10  13
BRANCH   9  24
ATOM     24  N   UNL     1      -5.798  -0.357  -0.909  0.00  0.00    -0.157 N 
ATOM     25  H   UNL     1      -6.343  -1.073  -1.272  0.00  0.00    +0.194 HD
BRANCH  24  26
ATOM     26  S   UNL     1      -6.043   1.204  -1.405  0.00  0.00    +0.085 S 
ATOM     27  O   UNL     1      -7.011   1.152  -2.444  0.00  0.00    -0.149 OA
ATOM     28  O   UNL     1      -6.228   1.979  -0.229  0.00  0.00    -0.149 OA
BRANCH  26  29
ATOM     29  C   UNL     1      -4.541   1.758  -2.142  0.00  0.00    +0.110 A 
ATOM     30  C   UNL     1      -3.574   2.368  -1.366  0.00  0.00    +0.029 A 
ATOM     31  C   UNL     1      -2.396   2.802  -1.944  0.00  0.00    +0.005 A 
ATOM     32  C   UNL     1      -2.185   2.627  -3.299  0.00  0.00    -0.050 A 
ATOM     33  C   UNL     1      -3.152   2.016  -4.075  0.00  0.00    +0.005 A 
ATOM     34  C   UNL     1      -4.328   1.578  -3.496  0.00  0.00    +0.029 A 
ATOM     35  C   UNL     1      -0.902   3.101  -3.930  0.00  0.00    +0.044 C 
ENDBRANCH  26  29
ENDBRANCH  24  26
ENDBRANCH   9  24
BRANCH   1  36
ATOM     36  O   UNL     1      -1.001  -2.661   1.961  0.00  0.00    -0.489 OA
BRANCH  36  38
ATOM     37  C   UNL     1       1.061  -1.741   2.823  0.00  0.00    +0.048 C 
ATOM     38  C   UNL     1       0.358  -2.981   2.266  0.00  0.00    +0.226 C 
ENDBRANCH  36  38
ENDBRANCH   1  36
TORSDOF 7
