REMARK  Name = ZINC02748134
REMARK  9 active torsions:
REMARK  status: ('A' for Active; 'I' for Inactive)
REMARK    1  A    between atoms: C_1  and  C_2
REMARK    2  A    between atoms: C_2  and  C_3
REMARK    3  A    between atoms: C_3  and  O_4
REMARK    4  A    between atoms: O_4  and  C_5
REMARK    5  A    between atoms: C_5  and  C_7
REMARK    6  A    between atoms: C_11  and  N_12
REMARK    7  A    between atoms: C_13  and  C_15
REMARK    8  A    between atoms: C_17  and  C_25
REMARK    9  A    between atoms: C_31  and  C_35
REMARK                            x       y       z     vdW  Elec       q    Type
REMARK                         _______ _______ _______ _____ _____    ______ ____
ROOT
ATOM      1  N   UNL     1      -1.380   1.226  -4.915  0.00  0.00    -0.275 N 
ATOM      2  C   UNL     1      -2.161   1.906  -5.778  0.00  0.00    +0.249 C 
ATOM      3  O   UNL     1      -2.841   2.833  -5.382  0.00  0.00    -0.270 OA
ATOM      4  H   UNL     1      -0.765   0.388  -5.274  0.00  0.00    +0.156 HD
ENDROOT
BRANCH   1   9
ATOM      5  C   UNL     1      -0.620   1.010  -2.546  0.00  0.00    +0.091 A 
ATOM      6  C   UNL     1      -0.773   1.578  -1.218  0.00  0.00    -0.021 A 
ATOM      7  C   UNL     1      -1.627   2.621  -1.133  0.00  0.00    -0.004 A 
ATOM      8  S   UNL     1      -2.224   2.853  -2.784  0.00  0.00    -0.077 S 
ATOM      9  C   UNL     1      -1.352   1.583  -3.578  0.00  0.00    +0.087 A 
ATOM     10  C   UNL     1      -1.980   3.402   0.095  0.00  0.00    +0.046 C 
ATOM     11  C   UNL     1      -0.945   3.085   1.184  0.00  0.00    -0.009 C 
ATOM     12  C   UNL     1      -0.760   1.567   1.267  0.00  0.00    +0.008 C 
ATOM     13  C   UNL     1      -0.040   1.062   0.015  0.00  0.00    +0.037 C 
ATOM     14  C   UNL     1      -1.440   3.615   2.531  0.00  0.00    +0.008 C 
BRANCH   5  15
ATOM     15  C   UNL     1       0.273  -0.125  -2.788  0.00  0.00    +0.342 C 
ATOM     16  O   UNL     1      -0.149  -1.262  -2.695  0.00  0.00    -0.245 OA
BRANCH  15  17
ATOM     17  O   UNL     1       1.564   0.090  -3.114  0.00  0.00    -0.461 OA
BRANCH  17  18
ATOM     18  C   UNL     1       2.392  -1.082  -3.340  0.00  0.00    +0.232 C 
BRANCH  18  20
ATOM     19  C   UNL     1       4.685  -1.876  -3.934  0.00  0.00    +0.007 C 
ATOM     20  C   UNL     1       3.813  -0.641  -3.696  0.00  0.00    +0.038 C 
ENDBRANCH  18  20
ENDBRANCH  17  18
ENDBRANCH  15  17
ENDBRANCH   5  15
ENDBRANCH   1   9
BRANCH   2  21
ATOM     21  C   UNL     1      -2.191   1.525  -7.206  0.00  0.00    +0.048 A 
ATOM     22  C   UNL     1      -1.341   0.551  -7.710  0.00  0.00    +0.045 A 
ATOM     23  C   UNL     1      -1.408   0.216  -9.073  0.00  0.00    +0.107 A 
ATOM     24  N   UNL     1      -2.248   0.806  -9.902  0.00  0.00    -0.244 NA
ATOM     25  C   UNL     1      -3.095   1.757  -9.503  0.00  0.00    +0.073 A 
ATOM     26  C   UNL     1      -3.113   2.165  -8.145  0.00  0.00    +0.013 A 
ATOM     27  C   UNL     1      -4.003   3.161  -7.731  0.00  0.00    +0.011 A 
ATOM     28  C   UNL     1      -4.846   3.732  -8.638  0.00  0.00    +0.001 A 
ATOM     29  C   UNL     1      -4.832   3.335  -9.973  0.00  0.00    +0.002 A 
ATOM     30  C   UNL     1      -3.979   2.369 -10.410  0.00  0.00    +0.028 A 
BRANCH  23  31
ATOM     31  C   UNL     1      -0.505  -0.826  -9.596  0.00  0.00    +0.153 A 
ATOM     32  C   UNL     1      -0.447  -1.261 -10.885  0.00  0.00    +0.051 A 
ATOM     33  C   UNL     1       0.551  -2.252 -10.935  0.00  0.00    +0.042 A 
ATOM     34  C   UNL     1       1.043  -2.380  -9.685  0.00  0.00    +0.196 A 
ATOM     35  O   UNL     1       0.404  -1.517  -8.880  0.00  0.00    -0.461 OA
ENDBRANCH  23  31
ENDBRANCH   2  21
TORSDOF 7
