REMARK  Name = ZINC39568616
REMARK  7 active torsions:
REMARK  status: ('A' for Active; 'I' for Inactive)
REMARK    1  A    between atoms: C_1  and  C_2
REMARK    2  A    between atoms: C_4  and  C_19
REMARK    3  A    between atoms: C_6  and  C_8
REMARK    4  A    between atoms: C_8  and  C_11
REMARK    5  A    between atoms: N_9  and  N_10
REMARK    6  A    between atoms: C_13  and  C_18
REMARK    7  A    between atoms: C_15  and  C_17
REMARK                            x       y       z     vdW  Elec       q    Type
REMARK                         _______ _______ _______ _____ _____    ______ ____
ROOT
ATOM      1  C   UNL     1       1.257  -0.664   2.070  0.00  0.00    +0.093 C 
ATOM      2  N   UNL     1       2.026   0.316   1.775  0.00  0.00    -0.194 NA
ENDROOT
BRANCH   1   8
ATOM      3  C   UNL     1      -0.139   1.448   0.059  0.00  0.00    +0.041 C 
ATOM      4  C   UNL     1       0.035  -0.048   0.004  0.00  0.00    -0.041 C 
ATOM      5  C   UNL     1       0.177  -0.799  -1.086  0.00  0.00    +0.024 C 
ATOM      6  C   UNL     1       0.318  -2.203  -0.696  0.00  0.00    +0.034 C 
ATOM      7  N   UNL     1       0.267  -2.335   0.588  0.00  0.00    -0.275 NA
ATOM      8  C   UNL     1       0.091  -1.002   1.177  0.00  0.00    +0.179 C 
ATOM      9  C   UNL     1       0.498  -3.343  -1.664  0.00  0.00    +0.065 C 
ENDBRANCH   1   8
BRANCH   1  10
ATOM     10  C   UNL     1       1.519  -1.480   3.309  0.00  0.00    +0.179 C 
ATOM     11  C   UNL     1       0.706  -0.948   4.468  0.00  0.00    -0.041 C 
ATOM     12  C   UNL     1      -0.094  -1.945   4.842  0.00  0.00    +0.024 C 
ATOM     13  C   UNL     1       0.147  -3.110   3.991  0.00  0.00    +0.034 C 
ATOM     14  N   UNL     1       1.064  -2.863   3.112  0.00  0.00    -0.275 NA
ATOM     15  C   UNL     1      -0.576  -4.426   4.120  0.00  0.00    +0.065 C 
ATOM     16  C   UNL     1       0.785   0.429   5.075  0.00  0.00    +0.041 C 
ENDBRANCH   1  10
BRANCH   2  17
ATOM     17  N   UNL     1       3.038   0.704   2.662  0.00  0.00    -0.282 N 
ATOM     18  H   UNL     1       3.575   1.490   2.473  0.00  0.00    +0.164 HD
ATOM     19  H   UNL     1       3.202   0.187   3.467  0.00  0.00    +0.164 HD
ENDBRANCH   2  17
TORSDOF 3
