REMARK  Name = ZINC40035263
REMARK  6 active torsions:
REMARK  status: ('A' for Active; 'I' for Inactive)
REMARK    1  A    between atoms: C_1  and  C_2
REMARK    2  A    between atoms: C_2  and  C_3
REMARK    3  A    between atoms: C_3  and  C_34
REMARK    4  A    between atoms: N_15  and  C_28
REMARK    5  A    between atoms: N_18  and  N_19
REMARK    6  A    between atoms: C_20  and  C_21
REMARK                            x       y       z     vdW  Elec       q    Type
REMARK                         _______ _______ _______ _____ _____    ______ ____
ROOT
ATOM      1  C   UNL     1      -0.124   0.031  -0.998  0.00  0.00    +0.004 C 
ATOM      2  C   UNL     1       0.153  -1.351  -0.410  0.00  0.00    +0.047 C 
ATOM      3  C   UNL     1      -0.875  -2.342  -0.883  0.00  0.00    -0.037 A 
ATOM      4  C   UNL     1      -1.313  -3.348  -0.046  0.00  0.00    +0.004 A 
ATOM      5  C   UNL     1      -2.256  -4.258  -0.489  0.00  0.00    +0.000 A 
ATOM      6  C   UNL     1      -2.766  -4.169  -1.772  0.00  0.00    +0.001 A 
ATOM      7  C   UNL     1      -2.337  -3.166  -2.620  0.00  0.00    +0.010 A 
ATOM      8  C   UNL     1      -1.391  -2.248  -2.176  0.00  0.00    +0.004 A 
ATOM      9  C   UNL     1      -0.919  -1.156  -3.058  0.00  0.00    +0.084 A 
ATOM     10  C   UNL     1      -0.300  -0.053  -2.487  0.00  0.00    +0.050 A 
ATOM     11  C   UNL     1       0.153   0.975  -3.324  0.00  0.00    +0.264 A 
ATOM     12  O   UNL     1       0.704   1.960  -2.858  0.00  0.00    -0.267 OA
ATOM     13  N   UNL     1      -0.032   0.854  -4.656  0.00  0.00    -0.248 N 
ATOM     14  C   UNL     1      -0.651  -0.250  -5.165  0.00  0.00    +0.223 A 
ATOM     15  N   UNL     1      -1.079  -1.220  -4.384  0.00  0.00    -0.214 NA
ATOM     16  N   UNL     1      -0.833  -0.351  -6.521  0.00  0.00    -0.206 N 
ATOM     17  C   UNL     1       1.051   0.958  -0.680  0.00  0.00    +0.016 C 
ATOM     18  H   UNL     1      -0.457   0.320  -7.112  0.00  0.00    +0.177 HD
ENDROOT
BRANCH  13  19
ATOM     19  C   UNL     1       0.413   1.864  -5.517  0.00  0.00    +0.053 A 
ATOM     20  C   UNL     1      -0.428   2.918  -5.848  0.00  0.00    +0.026 A 
ATOM     21  C   UNL     1       0.014   3.913  -6.698  0.00  0.00    +0.002 A 
ATOM     22  C   UNL     1       1.294   3.860  -7.219  0.00  0.00    +0.000 A 
ATOM     23  C   UNL     1       2.134   2.812  -6.892  0.00  0.00    +0.002 A 
ATOM     24  C   UNL     1       1.700   1.817  -6.038  0.00  0.00    +0.026 A 
ENDBRANCH  13  19
BRANCH   1  26
ATOM     25  C   UNL     1      -1.666   1.996  -0.934  0.00  0.00    +0.005 C 
ATOM     26  C   UNL     1      -1.399   0.599  -0.370  0.00  0.00    +0.008 C 
ENDBRANCH   1  26
BRANCH  16  27
ATOM     27  N   UNL     1      -1.561  -1.423  -7.052  0.00  0.00    -0.188 NA
ATOM     28  C   UNL     1      -1.732  -1.519  -8.335  0.00  0.00    +0.138 C 
BRANCH  28  29
ATOM     29  C   UNL     1      -2.499  -2.648  -8.894  0.00  0.00    -0.005 A 
ATOM     30  C   UNL     1      -3.046  -3.613  -8.045  0.00  0.00    +0.010 A 
ATOM     31  C   UNL     1      -3.762  -4.666  -8.575  0.00  0.00    +0.016 A 
ATOM     32  C   UNL     1      -3.938  -4.769  -9.944  0.00  0.00    +0.018 A 
ATOM     33  C   UNL     1      -3.398  -3.816 -10.791  0.00  0.00    +0.016 A 
ATOM     34  C   UNL     1      -2.685  -2.754 -10.274  0.00  0.00    +0.010 A 
ATOM     35 BR   UNL     1      -4.920  -6.217 -10.661  0.00  0.00    -0.050 Br
ENDBRANCH  28  29
ENDBRANCH  16  27
TORSDOF 4
