REMARK  Name = ZINC36643440
REMARK  12 active torsions:
REMARK  status: ('A' for Active; 'I' for Inactive)
REMARK    1  A    between atoms: C_1  and  C_2
REMARK    2  A    between atoms: N_7  and  S_9
REMARK    3  A    between atoms: S_9  and  C_12
REMARK    4  A    between atoms: C_15  and  C_18
REMARK    5  A    between atoms: N_20  and  C_21
REMARK    6  A    between atoms: C_21  and  C_22
REMARK    7  A    between atoms: C_22  and  C_23
REMARK    8  A    between atoms: C_23  and  N_24
REMARK    9  A    between atoms: N_24  and  C_25
REMARK   10  A    between atoms: N_24  and  C_26
REMARK   11  A    between atoms: C_30  and  O_36
REMARK   12  A    between atoms: O_36  and  C_37
REMARK                            x       y       z     vdW  Elec       q    Type
REMARK                         _______ _______ _______ _____ _____    ______ ____
ROOT
ATOM      1  C   UNL     1       4.713  -3.566   5.838  0.00  0.00    +0.252 C 
ATOM      2  O   UNL     1       5.277  -4.614   5.587  0.00  0.00    -0.270 OA
ATOM      3  N   UNL     1       5.074  -2.849   6.920  0.00  0.00    -0.246 N 
ATOM      4  C   UNL     1       6.166  -3.240   7.677  0.00  0.00    +0.168 A 
ATOM      5  N   UNL     1       6.967  -4.264   7.500  0.00  0.00    -0.221 NA
ATOM      6  C   UNL     1       8.003  -4.527   8.326  0.00  0.00    +0.122 A 
ATOM      7  C   UNL     1       8.937  -5.592   8.248  0.00  0.00    +0.146 A 
ATOM      8  C   UNL     1       9.940  -5.714   9.180  0.00  0.00    +0.048 A 
ATOM      9  C   UNL     1      10.073  -4.808  10.222  0.00  0.00    +0.005 A 
ATOM     10  C   UNL     1       9.180  -3.759  10.327  0.00  0.00    +0.017 A 
ATOM     11  C   UNL     1       8.174  -3.627   9.400  0.00  0.00    +0.044 A 
ATOM     12  S   UNL     1       6.847  -2.473   9.141  0.00  0.00    -0.052 S 
ENDROOT
BRANCH   1  16
ATOM     13  C   UNL     1       1.605  -2.169   3.302  0.00  0.00    +0.106 A 
ATOM     14  C   UNL     1       2.780  -2.648   2.751  0.00  0.00    +0.029 A 
ATOM     15  C   UNL     1       3.794  -3.104   3.569  0.00  0.00    +0.015 A 
ATOM     16  C   UNL     1       3.632  -3.079   4.955  0.00  0.00    +0.037 A 
ATOM     17  C   UNL     1       2.444  -2.594   5.505  0.00  0.00    +0.015 A 
ATOM     18  C   UNL     1       1.441  -2.137   4.676  0.00  0.00    +0.029 A 
BRANCH  13  19
ATOM     19  S   UNL     1       0.316  -1.590   2.251  0.00  0.00    +0.061 S 
ATOM     20  O   UNL     1      -0.891  -1.694   2.993  0.00  0.00    -0.153 OA
ATOM     21  O   UNL     1       0.497  -2.231   0.995  0.00  0.00    -0.153 OA
BRANCH  19  27
ATOM     22  C   UNL     1      -1.300   3.168   2.966  0.00  0.00    +0.009 C 
ATOM     23  C   UNL     1      -0.795   2.042   2.062  0.00  0.00    +0.002 C 
ATOM     24  C   UNL     1       0.119   2.625   0.982  0.00  0.00    +0.006 C 
ATOM     25  C   UNL     1       0.598   1.504   0.057  0.00  0.00    +0.017 C 
ATOM     26  C   UNL     1       1.401   0.484   0.871  0.00  0.00    +0.109 C 
ATOM     27  N   UNL     1       0.578   0.026   1.999  0.00  0.00    -0.176 NA
ATOM     28  C   UNL     1      -0.009   1.028   2.899  0.00  0.00    +0.112 C 
ENDBRANCH  19  27
ENDBRANCH  13  19
ENDBRANCH   1  16
BRANCH   7  29
ATOM     29  O   UNL     1       8.839  -6.500   7.241  0.00  0.00    -0.493 OA
ATOM     30  C   UNL     1       9.809  -7.549   7.217  0.00  0.00    +0.277 C 
ENDBRANCH   7  29
BRANCH   3  31
ATOM     31  C   UNL     1       4.312  -1.655   7.295  0.00  0.00    +0.114 C 
BRANCH  31  32
ATOM     32  C   UNL     1       3.316  -2.013   8.400  0.00  0.00    +0.001 C 
BRANCH  32  33
ATOM     33  C   UNL     1       2.429  -0.803   8.698  0.00  0.00    -0.078 C 
BRANCH  33  34
ATOM     34  N   UNL     1       1.473  -1.146   9.759  0.00  0.00    +0.376 N 
ATOM     35  C   UNL     1       2.201  -1.410  11.008  0.00  0.00    -0.097 C 
ATOM     36  C   UNL     1       0.543  -0.026   9.962  0.00  0.00    -0.097 C 
ATOM     37  H   UNL     1       0.954  -1.969   9.492  0.00  0.00    -0.083 HD
ENDBRANCH  33  34
ENDBRANCH  32  33
ENDBRANCH  31  32
ENDBRANCH   3  31
TORSDOF 8
