REMARK  Name = ZINC12100344
REMARK  4 active torsions:
REMARK  status: ('A' for Active; 'I' for Inactive)
REMARK    1  A    between atoms: C_3  and  N_15
REMARK    2  A    between atoms: C_6  and  C_7
REMARK    3  A    between atoms: C_18  and  N_70
REMARK    4  A    between atoms: C_23  and  C_26
REMARK                            x       y       z     vdW  Elec       q    Type
REMARK                         _______ _______ _______ _____ _____    ______ ____
ROOT
ATOM      1  N   UNL     1      -5.019   3.805   0.097  0.00  0.00    -0.330 N 
ATOM      2  C   UNL     1      -5.913   3.258  -0.931  0.00  0.00    +0.103 C 
ATOM      3  C   UNL     1      -7.303   3.880  -0.783  0.00  0.00    +0.004 C 
ATOM      4  C   UNL     1      -7.195   5.401  -0.930  0.00  0.00    -0.066 C 
ATOM      5  C   UNL     1      -6.221   5.939   0.121  0.00  0.00    +0.004 C 
ATOM      6  C   UNL     1      -4.862   5.257  -0.053  0.00  0.00    +0.103 C 
ENDROOT
BRANCH   4  12
ATOM      7  C   UNL     1      -9.054   5.683   0.595  0.00  0.00    -0.078 C 
ATOM      8  C   UNL     1     -10.359   6.449   0.822  0.00  0.00    -0.008 C 
ATOM      9  C   UNL     1     -11.366   6.065  -0.266  0.00  0.00    +0.052 C 
ATOM     10  C   UNL     1     -10.763   6.371  -1.640  0.00  0.00    -0.008 C 
ATOM     11  C   UNL     1      -9.446   5.607  -1.795  0.00  0.00    -0.078 C 
ATOM     12  N   UNL     1      -8.512   6.040  -0.734  0.00  0.00    +0.382 N 
ATOM     13  H   UNL     1      -8.400   7.059  -0.785  0.00  0.00    -0.081 HD
BRANCH   9  14
ATOM     14  C   UNL     1     -12.633   6.860  -0.084  0.00  0.00    +0.111 A 
ATOM     15  N   UNL     1     -12.691   8.141   0.370  0.00  0.00    -0.342 N 
ATOM     16  H   UNL     1     -11.914   8.710   0.639  0.00  0.00    +0.167 HD
ATOM     17  C   UNL     1     -14.023   8.509   0.391  0.00  0.00    +0.066 A 
ATOM     18  C   UNL     1     -14.697   9.669   0.747  0.00  0.00    +0.030 A 
ATOM     19  C   UNL     1     -16.072   9.718   0.659  0.00  0.00    +0.040 A 
ATOM     20  C   UNL     1     -16.788   8.614   0.214  0.00  0.00    +0.126 A 
ATOM     21  C   UNL     1     -16.135   7.455  -0.145  0.00  0.00    +0.068 A 
ATOM     22  C   UNL     1     -14.741   7.390  -0.060  0.00  0.00    +0.092 A 
ATOM     23  N   UNL     1     -13.832   6.419  -0.332  0.00  0.00    -0.232 NA
ATOM     24  F   UNL     1     -18.135   8.677   0.132  0.00  0.00    -0.205 F 
ENDBRANCH   9  14
ENDBRANCH   4  12
BRANCH   1  27
ATOM     25  C   UNL     1      -1.395   3.281  -0.091  0.00  0.00    +0.015 A 
ATOM     26  C   UNL     1      -2.618   3.910  -0.075  0.00  0.00    +0.024 A 
ATOM     27  C   UNL     1      -3.784   3.165   0.076  0.00  0.00    +0.030 A 
ATOM     28  C   UNL     1      -3.717   1.780   0.204  0.00  0.00    +0.024 A 
ATOM     29  C   UNL     1      -2.497   1.145   0.183  0.00  0.00    +0.015 A 
ATOM     30  C   UNL     1      -1.324   1.890   0.032  0.00  0.00    +0.037 A 
BRANCH  30  31
ATOM     31  C   UNL     1      -0.014   1.212   0.009  0.00  0.00    +0.247 C 
ATOM     32  O   UNL     1       0.160   0.252  -0.718  0.00  0.00    -0.270 OA
ATOM     33  N   UNL     1       0.990   1.659   0.788  0.00  0.00    -0.293 N 
ATOM     34  C   UNL     1       0.831   2.870   1.608  0.00  0.00    +0.136 C 
ATOM     35  C   UNL     1       1.262   2.536   3.045  0.00  0.00    +0.179 C 
ATOM     36  O   UNL     1       2.568   1.954   3.020  0.00  0.00    -0.377 OA
ATOM     37  C   UNL     1       2.643   0.715   2.311  0.00  0.00    +0.179 C 
ATOM     38  C   UNL     1       2.280   0.953   0.840  0.00  0.00    +0.136 C 
ENDBRANCH  30  31
ENDBRANCH   1  27
TORSDOF 4
