REMARK  Name = ZINC01951981
REMARK  5 active torsions:
REMARK  status: ('A' for Active; 'I' for Inactive)
REMARK    1  A    between atoms: C_1  and  C_2
REMARK    2  A    between atoms: C_10  and  O_18
REMARK    3  A    between atoms: C_11  and  C_13
REMARK    4  A    between atoms: O_18  and  C_19
REMARK    5  A    between atoms: C_19  and  C_20
REMARK                            x       y       z     vdW  Elec       q    Type
REMARK                         _______ _______ _______ _____ _____    ______ ____
ROOT
ATOM      1  C   UNL     1       0.104  -5.214   3.413  0.00  0.00    +0.044 C 
ATOM      2  C   UNL     1       0.081  -4.358   2.173  0.00  0.00    -0.050 A 
ATOM      3  C   UNL     1       0.076  -4.956   0.921  0.00  0.00    +0.007 A 
ATOM      4  C   UNL     1       0.055  -4.189  -0.224  0.00  0.00    +0.047 A 
ATOM      5  C   UNL     1       0.038  -2.802  -0.131  0.00  0.00    +0.140 A 
ATOM      6  C   UNL     1       0.042  -2.198   1.136  0.00  0.00    +0.068 A 
ATOM      7  C   UNL     1       0.063  -2.985   2.288  0.00  0.00    +0.018 A 
ATOM      8  C   UNL     1       0.023  -0.725   1.218  0.00  0.00    +0.235 A 
ATOM      9  O   UNL     1       0.026  -0.150   2.296  0.00  0.00    -0.283 OA
ATOM     10  C   UNL     1       0.002  -0.004   0.002  0.00  0.00    +0.214 A 
ATOM     11  C   UNL     1      -0.006  -0.694  -1.192  0.00  0.00    +0.216 A 
ATOM     12  O   UNL     1       0.017  -2.038  -1.243  0.00  0.00    -0.448 OA
ENDROOT
BRANCH  11  13
ATOM     13  C   UNL     1      -0.034   0.061  -2.447  0.00  0.00    +0.173 A 
ATOM     14  C   UNL     1      -0.045  -0.471  -3.705  0.00  0.00    +0.053 A 
ATOM     15  C   UNL     1      -0.073   0.610  -4.601  0.00  0.00    +0.042 A 
ATOM     16  C   UNL     1      -0.078   1.740  -3.861  0.00  0.00    +0.196 A 
ATOM     17  O   UNL     1      -0.060   1.405  -2.562  0.00  0.00    -0.460 OA
ENDBRANCH  11  13
BRANCH  10  18
ATOM     18  O   UNL     1      -0.016   1.357   0.009  0.00  0.00    -0.480 OA
BRANCH  18  19
ATOM     19  C   UNL     1       1.248   2.023   0.001  0.00  0.00    +0.265 C 
BRANCH  19  20
ATOM     20  C   UNL     1       1.030   3.514   0.011  0.00  0.00    -0.009 A 
ATOM     21  C   UNL     1       0.925   4.205  -1.182  0.00  0.00    +0.008 A 
ATOM     22  C   UNL     1       0.719   5.571  -1.174  0.00  0.00    +0.022 A 
ATOM     23  C   UNL     1       0.631   6.251   0.028  0.00  0.00    +0.059 A 
ATOM     24  C   UNL     1       0.742   5.560   1.222  0.00  0.00    +0.060 A 
ATOM     25  C   UNL     1       0.942   4.191   1.213  0.00  0.00    +0.028 A 
ATOM     26 CL   UNL     1       0.630   6.410   2.732  0.00  0.00    -0.082 Cl
ATOM     27 CL   UNL     1       0.379   7.968   0.038  0.00  0.00    -0.082 Cl
ENDBRANCH  19  20
ENDBRANCH  18  19
ENDBRANCH  10  18
TORSDOF 4
