REMARK  Name = ZINC03061156
REMARK  8 active torsions:
REMARK  status: ('A' for Active; 'I' for Inactive)
REMARK    1  A    between atoms: C_1  and  C_2
REMARK    2  A    between atoms: C_2  and  N_3
REMARK    3  A    between atoms: C_6  and  C_19
REMARK    4  A    between atoms: N_21  and  C_22
REMARK    5  A    between atoms: C_22  and  C_23
REMARK    6  A    between atoms: C_23  and  N_62
REMARK    7  A    between atoms: C_24  and  C_32
REMARK    8  A    between atoms: C_29  and  C_31
REMARK                            x       y       z     vdW  Elec       q    Type
REMARK                         _______ _______ _______ _____ _____    ______ ____
ROOT
ATOM      1  N   UNL     1       3.219   2.779  -0.379  0.00  0.00    -0.267 N 
ATOM      2  C   UNL     1       3.814   2.067   0.653  0.00  0.00    +0.051 A 
ATOM      3  C   UNL     1       4.458   2.775   1.660  0.00  0.00    +0.037 A 
ATOM      4  C   UNL     1       5.073   2.099   2.715  0.00  0.00    +0.039 A 
ATOM      5  C   UNL     1       5.042   0.702   2.761  0.00  0.00    +0.014 A 
ATOM      6  C   UNL     1       4.402   0.001   1.764  0.00  0.00    +0.017 A 
ATOM      7  C   UNL     1       3.788   0.675   0.713  0.00  0.00    +0.034 A 
ATOM      8  S   UNL     1       2.972  -0.253  -0.544  0.00  0.00    -0.087 S 
ATOM      9  C   UNL     1       1.302   0.303  -0.454  0.00  0.00    +0.025 A 
ATOM     10  C   UNL     1       0.286  -0.602  -0.180  0.00  0.00    +0.016 A 
ATOM     11  C   UNL     1      -1.024  -0.172  -0.114  0.00  0.00    +0.001 A 
ATOM     12  C   UNL     1      -1.329   1.164  -0.321  0.00  0.00    +0.001 A 
ATOM     13  C   UNL     1      -0.333   2.074  -0.591  0.00  0.00    +0.014 A 
ATOM     14  C   UNL     1       1.004   1.657  -0.660  0.00  0.00    +0.051 A 
ATOM     15  C   UNL     1       2.048   2.640  -0.942  0.00  0.00    +0.252 C 
ATOM     16  O   UNL     1       1.791   3.439  -1.821  0.00  0.00    -0.270 OA
ENDROOT
BRANCH   4  17
ATOM     17  C   UNL     1       5.754   2.858   3.780  0.00  0.00    +0.244 C 
ATOM     18  O   UNL     1       5.781   4.073   3.740  0.00  0.00    -0.270 OA
ATOM     19  N   UNL     1       6.347   2.204   4.799  0.00  0.00    -0.313 N 
ATOM     20  H   UNL     1       6.326   1.235   4.832  0.00  0.00    +0.149 HD
BRANCH  19  21
ATOM     21  C   UNL     1       7.024   2.958   5.858  0.00  0.00    +0.086 C 
BRANCH  21  22
ATOM     22  C   UNL     1       7.608   1.985   6.883  0.00  0.00    -0.059 C 
BRANCH  22  30
ATOM     23  C   UNL     1       9.492   3.404   7.430  0.00  0.00    -0.071 C 
ATOM     24  C   UNL     1      10.090   4.296   8.521  0.00  0.00    -0.016 C 
ATOM     25  C   UNL     1      10.438   3.438   9.740  0.00  0.00    -0.003 C 
ATOM     26  C   UNL     1       9.176   2.721  10.227  0.00  0.00    -0.016 C 
ATOM     27  C   UNL     1       8.604   1.875   9.087  0.00  0.00    -0.071 C 
ATOM     28  C   UNL     1       7.331   1.171   9.563  0.00  0.00    -0.013 C 
ATOM     29  C   UNL     1      10.518   2.347   7.016  0.00  0.00    -0.013 C 
ATOM     30  N   UNL     1       8.267   2.762   7.954  0.00  0.00    +0.384 N 
ATOM     31  H   UNL     1       7.623   3.491   8.281  0.00  0.00    -0.081 HD
ENDBRANCH  22  30
ENDBRANCH  21  22
ENDBRANCH  19  21
ENDBRANCH   4  17
BRANCH   1  33
ATOM     32  C   UNL     1       4.792   3.356  -2.161  0.00  0.00    +0.025 C 
ATOM     33  C   UNL     1       4.038   3.861  -0.929  0.00  0.00    +0.110 C 
ENDBRANCH   1  33
TORSDOF 5
