REMARK  Name = ZINC38773805
REMARK  5 active torsions:
REMARK  status: ('A' for Active; 'I' for Inactive)
REMARK    1  A    between atoms: C_6  and  O_7
REMARK    2  A    between atoms: O_7  and  C_8
REMARK    3  A    between atoms: C_12  and  C_14
REMARK    4  A    between atoms: C_17  and  O_21
REMARK    5  A    between atoms: C_19  and  O_20
REMARK                            x       y       z     vdW  Elec       q    Type
REMARK                         _______ _______ _______ _____ _____    ______ ____
ROOT
ATOM      1  C   UNL     1      -1.003  -2.041   0.044  0.00  0.00    +0.153 C 
ATOM      2  C   UNL     1       0.148  -2.740   0.108  0.00  0.00    +0.176 C 
ATOM      3  N   UNL     1      -0.097  -4.055   0.124  0.00  0.00    -0.182 NA
ATOM      4  N   UNL     1      -1.290  -4.362   0.077  0.00  0.00    -0.294 N 
ATOM      5  C   UNL     1      -2.075  -3.116   0.024  0.00  0.00    +0.199 C 
ATOM      6  H   UNL     1      -1.649  -5.263   0.079  0.00  0.00    +0.184 HD
ENDROOT
BRANCH   5   7
ATOM      7  C   UNL     1      -2.877  -3.048  -1.250  0.00  0.00    +0.025 A 
ATOM      8  C   UNL     1      -2.608  -3.925  -2.283  0.00  0.00    +0.013 A 
ATOM      9  C   UNL     1      -3.341  -3.864  -3.453  0.00  0.00    +0.046 A 
ATOM     10  C   UNL     1      -4.351  -2.922  -3.592  0.00  0.00    +0.120 A 
ATOM     11  C   UNL     1      -4.623  -2.041  -2.557  0.00  0.00    +0.091 A 
ATOM     12  C   UNL     1      -3.889  -2.107  -1.382  0.00  0.00    +0.126 A 
BRANCH  12  13
ATOM     13  O   UNL     1      -4.157  -1.249  -0.364  0.00  0.00    -0.506 OA
ATOM     14  H   UNL     1      -3.655  -0.424  -0.402  0.00  0.00    +0.292 HD
ENDBRANCH  12  13
BRANCH  10  15
ATOM     15  O   UNL     1      -5.071  -2.863  -4.743  0.00  0.00    -0.507 OA
ATOM     16  H   UNL     1      -5.862  -3.419  -4.741  0.00  0.00    +0.292 HD
ENDBRANCH  10  15
ENDBRANCH   5   7
BRANCH   1  17
ATOM     17  O   UNL     1      -1.165  -0.701   0.010  0.00  0.00    -0.456 OA
BRANCH  17  23
ATOM     18  C   UNL     1      -2.058  -0.845   2.210  0.00  0.00    +0.047 A 
ATOM     19  C   UNL     1      -2.652  -0.234   3.297  0.00  0.00    +0.018 A 
ATOM     20  C   UNL     1      -2.941   1.119   3.259  0.00  0.00    +0.014 A 
ATOM     21  C   UNL     1      -2.635   1.862   2.133  0.00  0.00    +0.018 A 
ATOM     22  C   UNL     1      -2.040   1.255   1.044  0.00  0.00    +0.047 A 
ATOM     23  C   UNL     1      -1.750  -0.101   1.080  0.00  0.00    +0.128 A 
ATOM     24  I   UNL     1      -3.843   2.042   4.909  0.00  0.00    -0.044 I 
ENDBRANCH  17  23
ENDBRANCH   1  17
TORSDOF 5
