REMARK  Name = ZINC14472783
REMARK  4 active torsions:
REMARK  status: ('A' for Active; 'I' for Inactive)
REMARK    1  A    between atoms: C_4  and  C_10
REMARK    2  A    between atoms: C_6  and  N_7
REMARK    3  A    between atoms: C_21  and  S_26
REMARK    4  A    between atoms: S_26  and  N_29
REMARK                            x       y       z     vdW  Elec       q    Type
REMARK                         _______ _______ _______ _____ _____    ______ ____
ROOT
ATOM      1  C   UNL     1      -1.778   0.711   1.662  0.00  0.00    +0.106 C 
ATOM      2  C   UNL     1      -0.447   1.414   1.464  0.00  0.00    +0.029 C 
ATOM      3  C   UNL     1       0.745   0.899   2.280  0.00  0.00    +0.033 C 
ATOM      4  C   UNL     1       1.919   1.236   1.358  0.00  0.00    -0.030 C 
ATOM      5  C   UNL     1       1.505   1.286   0.098  0.00  0.00    -0.023 C 
ATOM      6  C   UNL     1       0.056   0.961   0.060  0.00  0.00    +0.049 C 
ATOM      7  C   UNL     1      -0.853   1.556  -0.943  0.00  0.00    -0.018 A 
ATOM      8  C   UNL     1      -0.406   1.947  -2.195  0.00  0.00    +0.034 A 
ATOM      9  C   UNL     1      -1.294   2.468  -3.118  0.00  0.00    +0.106 A 
ATOM     10  C   UNL     1      -2.635   2.580  -2.798  0.00  0.00    +0.030 A 
ATOM     11  C   UNL     1      -3.088   2.179  -1.558  0.00  0.00    +0.025 A 
ATOM     12  C   UNL     1      -2.202   1.661  -0.622  0.00  0.00    +0.031 A 
ATOM     13  N   UNL     1      -2.683   1.276   0.636  0.00  0.00    -0.336 N 
ATOM     14  H   UNL     1      -3.626   1.381   0.839  0.00  0.00    +0.147 HD
ENDROOT
BRANCH   1  18
ATOM     15  C   UNL     1      -3.301   1.508   5.573  0.00  0.00    +0.034 A 
ATOM     16  C   UNL     1      -3.808   0.454   4.837  0.00  0.00    +0.022 A 
ATOM     17  C   UNL     1      -3.315   0.195   3.570  0.00  0.00    +0.046 A 
ATOM     18  C   UNL     1      -2.315   0.992   3.041  0.00  0.00    -0.007 A 
ATOM     19  C   UNL     1      -1.805   2.042   3.781  0.00  0.00    +0.039 A 
ATOM     20  C   UNL     1      -2.302   2.304   5.044  0.00  0.00    +0.127 A 
ATOM     21 CL   UNL     1      -3.951  -1.129   2.645  0.00  0.00    -0.083 Cl
BRANCH  20  22
ATOM     22  N   UNL     1      -1.760   3.432   5.833  0.00  0.00    +0.056 N 
ATOM     23  O   UNL     1      -2.193   3.660   6.949  0.00  0.00    -0.126 OA
ATOM     24  O   UNL     1      -0.879   4.134   5.367  0.00  0.00    -0.126 OA
ENDBRANCH  20  22
ENDBRANCH   1  18
BRANCH   9  25
ATOM     25  S   UNL     1      -0.719   2.989  -4.699  0.00  0.00    +0.061 S 
ATOM     26  O   UNL     1       0.484   2.274  -4.949  0.00  0.00    -0.153 OA
ATOM     27  O   UNL     1      -1.835   2.932  -5.577  0.00  0.00    -0.153 OA
BRANCH  25  28
ATOM     28  N   UNL     1      -0.302   4.586  -4.567  0.00  0.00    -0.177 NA
ATOM     29  C   UNL     1      -1.307   5.589  -4.837  0.00  0.00    +0.109 C 
ATOM     30  C   UNL     1      -1.298   5.952  -6.337  0.00  0.00    +0.017 C 
ATOM     31  C   UNL     1      -0.089   6.723  -6.667  0.00  0.00    +0.001 C 
ATOM     32  C   UNL     1       1.218   5.966  -6.452  0.00  0.00    +0.001 C 
ATOM     33  C   UNL     1       1.641   6.099  -5.010  0.00  0.00    +0.017 C 
ATOM     34  C   UNL     1       1.083   4.926  -4.184  0.00  0.00    +0.109 C 
ENDBRANCH  25  28
ENDBRANCH   9  25
TORSDOF 4
