REMARK  Name = ZINC13064577
REMARK  14 active torsions:
REMARK  status: ('A' for Active; 'I' for Inactive)
REMARK    1  A    between atoms: C_1  and  C_2
REMARK    2  A    between atoms: C_2  and  C_3
REMARK    3  A    between atoms: C_3  and  C_5
REMARK    4  A    between atoms: C_3  and  N_74
REMARK    5  A    between atoms: N_9  and  C_10
REMARK    6  A    between atoms: C_10  and  C_11
REMARK    7  A    between atoms: C_10  and  C_12
REMARK    8  A    between atoms: C_10  and  C_13
REMARK    9  A    between atoms: C_13  and  C_14
REMARK   10  A    between atoms: C_15  and  C_16
REMARK   11  A    between atoms: C_15  and  N_74
REMARK   12  A    between atoms: C_20  and  C_29
REMARK   13  A    between atoms: C_21  and  C_28
REMARK   14  A    between atoms: C_30  and  N_74
REMARK                            x       y       z     vdW  Elec       q    Type
REMARK                         _______ _______ _______ _____ _____    ______ ____
ROOT
ATOM      1  N   UNL     1      -5.197   4.372  -1.145  0.00  0.00    +0.391 N 
ATOM      2  H   UNL     1      -4.510   5.066  -1.462  0.00  0.00    -0.080 HD
ENDROOT
BRANCH   1   3
ATOM      3  C   UNL     1      -4.869   3.062  -1.747  0.00  0.00    -0.067 C 
ATOM      4  C   UNL     1      -4.711   3.240  -3.259  0.00  0.00    -0.015 C 
ATOM      5  C   UNL     1      -4.349   1.896  -3.895  0.00  0.00    -0.002 C 
ATOM      6  C   UNL     1      -5.461   0.883  -3.613  0.00  0.00    -0.000 C 
ATOM      7  C   UNL     1      -5.618   0.706  -2.102  0.00  0.00    -0.002 C 
ATOM      8  C   UNL     1      -5.980   2.049  -1.466  0.00  0.00    -0.015 C 
ENDBRANCH   1   3
BRANCH   1   9
ATOM      9  C   UNL     1      -6.546   4.801  -1.573  0.00  0.00    +0.003 C 
BRANCH   9  10
ATOM     10  C   UNL     1      -7.604   4.073  -0.785  0.00  0.00    +0.139 A 
ATOM     11  N   UNL     1      -7.538   3.720   0.476  0.00  0.00    -0.115 NA
ATOM     12  N   UNL     1      -8.638   3.122   0.780  0.00  0.00    -0.023 NA
ATOM     13  N   UNL     1      -9.404   3.084  -0.254  0.00  0.00    -0.043 NA
ATOM     14  N   UNL     1      -8.805   3.665  -1.238  0.00  0.00    -0.225 N 
BRANCH  14  15
ATOM     15  C   UNL     1      -9.330   3.844  -2.593  0.00  0.00    +0.061 C 
ATOM     16  C   UNL     1      -9.244   5.321  -2.983  0.00  0.00    +0.036 C 
ATOM     17  C   UNL     1      -8.504   3.009  -3.574  0.00  0.00    +0.036 C 
BRANCH  15  18
ATOM     18  C   UNL     1     -10.790   3.388  -2.639  0.00  0.00    +0.026 C 
ATOM     19  C   UNL     1     -11.338   3.575  -4.055  0.00  0.00    +0.006 C 
ENDBRANCH  15  18
ENDBRANCH  14  15
ENDBRANCH   9  10
BRANCH   9  21
ATOM     20  C   UNL     1      -5.692   7.053  -2.236  0.00  0.00    +0.002 C 
ATOM     21  C   UNL     1      -6.679   6.306  -1.337  0.00  0.00    -0.011 C 
ENDBRANCH   9  21
ENDBRANCH   1   9
BRANCH   1  22
ATOM     22  C   UNL     1      -5.140   4.279   0.329  0.00  0.00    -0.036 C 
BRANCH  22  23
ATOM     23  C   UNL     1      -3.697   4.330   0.760  0.00  0.00    +0.001 A 
ATOM     24  C   UNL     1      -3.133   5.518   1.091  0.00  0.00    +0.017 A 
ATOM     25  C   UNL     1      -1.730   5.534   1.507  0.00  0.00    -0.001 A 
ATOM     26  C   UNL     1      -1.093   6.729   1.860  0.00  0.00    +0.013 A 
ATOM     27  C   UNL     1       0.218   6.710   2.243  0.00  0.00    -0.047 A 
ATOM     28  C   UNL     1       0.925   5.515   2.285  0.00  0.00    -0.046 A 
ATOM     29  C   UNL     1       0.318   4.327   1.941  0.00  0.00    +0.030 A 
ATOM     30  C   UNL     1      -1.015   4.322   1.542  0.00  0.00    +0.049 A 
ATOM     31  N   UNL     1      -1.648   3.147   1.199  0.00  0.00    -0.322 N 
ATOM     32  H   UNL     1      -1.155   2.312   1.228  0.00  0.00    +0.169 HD
ATOM     33  C   UNL     1      -2.938   3.142   0.819  0.00  0.00    +0.251 A 
ATOM     34  O   UNL     1      -3.464   2.085   0.516  0.00  0.00    -0.268 OA
ATOM     35  C   UNL     1       2.370   5.519   2.711  0.00  0.00    +0.044 C 
ATOM     36  C   UNL     1       0.904   7.997   2.623  0.00  0.00    +0.044 C 
ENDBRANCH  22  23
ENDBRANCH   1  22
TORSDOF 8
