REMARK  Name = ZINC13530314
REMARK  11 active torsions:
REMARK  status: ('A' for Active; 'I' for Inactive)
REMARK    1  A    between atoms: C_4  and  C_7
REMARK    2  A    between atoms: C_7  and  C_8
REMARK    3  A    between atoms: C_7  and  C_26
REMARK    4  A    between atoms: C_8  and  C_9
REMARK    5  A    between atoms: C_9  and  C_10
REMARK    6  A    between atoms: C_14  and  C_16
REMARK    7  A    between atoms: C_16  and  C_17
REMARK    8  A    between atoms: C_17  and  N_60
REMARK    9  A    between atoms: C_18  and  C_19
REMARK   10  A    between atoms: C_18  and  N_60
REMARK   11  A    between atoms: C_19  and  C_20
REMARK                            x       y       z     vdW  Elec       q    Type
REMARK                         _______ _______ _______ _____ _____    ______ ____
ROOT
ATOM      1  C   UNL     1      -1.002   0.566   0.912  0.00  0.00    +0.107 A 
ATOM      2  N   UNL     1      -0.251  -0.555   0.979  0.00  0.00    -0.348 N 
ATOM      3  H   UNL     1      -0.556  -1.486   0.779  0.00  0.00    +0.166 HD
ATOM      4  C   UNL     1       1.005  -0.179   1.373  0.00  0.00    +0.107 A 
ATOM      5  C   UNL     1       0.977   1.158   1.538  0.00  0.00    +0.057 A 
ATOM      6  N   UNL     1      -0.262   1.586   1.254  0.00  0.00    -0.238 NA
ENDROOT
BRANCH   1   7
ATOM      7  C   UNL     1      -2.453   0.629   0.514  0.00  0.00    +0.075 C 
BRANCH   7   8
ATOM      8  C   UNL     1      -3.255   1.326   1.615  0.00  0.00    +0.020 C 
BRANCH   8   9
ATOM      9  C   UNL     1      -4.729   1.390   1.210  0.00  0.00    +0.049 C 
BRANCH   9  13
ATOM     10  C   UNL     1      -7.020   3.020   4.426  0.00  0.00    +0.000 A 
ATOM     11  C   UNL     1      -5.904   3.691   3.962  0.00  0.00    +0.000 A 
ATOM     12  C   UNL     1      -5.162   3.164   2.922  0.00  0.00    +0.004 A 
ATOM     13  C   UNL     1      -5.537   1.965   2.344  0.00  0.00    -0.040 A 
ATOM     14  C   UNL     1      -6.657   1.296   2.804  0.00  0.00    +0.004 A 
ATOM     15  C   UNL     1      -7.395   1.821   3.848  0.00  0.00    +0.000 A 
ENDBRANCH   9  13
BRANCH   9  16
ATOM     16  C   UNL     1      -4.878   2.266  -0.007  0.00  0.00    -0.040 A 
ATOM     17  C   UNL     1      -4.346   3.542  -0.011  0.00  0.00    +0.004 A 
ATOM     18  C   UNL     1      -4.478   4.343  -1.129  0.00  0.00    +0.000 A 
ATOM     19  C   UNL     1      -5.152   3.873  -2.241  0.00  0.00    +0.000 A 
ATOM     20  C   UNL     1      -5.689   2.599  -2.236  0.00  0.00    +0.000 A 
ATOM     21  C   UNL     1      -5.552   1.795  -1.119  0.00  0.00    +0.004 A 
ENDBRANCH   9  16
ENDBRANCH   8   9
ENDBRANCH   7   8
ENDBRANCH   1   7
BRANCH   5  22
ATOM     22  C   UNL     1       2.136   2.021   1.968  0.00  0.00    +0.038 C 
BRANCH  22  23
ATOM     23  C   UNL     1       2.355   3.130   0.936  0.00  0.00    -0.076 C 
BRANCH  23  24
ATOM     24  N   UNL     1       3.490   3.969   1.364  0.00  0.00    +0.380 N 
ATOM     25  H   UNL     1       4.333   3.388   1.436  0.00  0.00    -0.086 HD
ATOM     26  H   UNL     1       3.280   4.382   2.280  0.00  0.00    -0.086 HD
BRANCH  24  27
ATOM     27  C   UNL     1       3.725   5.049   0.387  0.00  0.00    -0.076 C 
BRANCH  27  28
ATOM     28  C   UNL     1       4.905   5.902   0.856  0.00  0.00    +0.036 C 
BRANCH  28  29
ATOM     29  C   UNL     1       5.152   7.008  -0.138  0.00  0.00    +0.040 A 
ATOM     30  C   UNL     1       5.170   8.321   0.293  0.00  0.00    +0.023 A 
ATOM     31  C   UNL     1       5.398   9.331  -0.629  0.00  0.00    +0.003 A 
ATOM     32  C   UNL     1       5.601   8.980  -1.955  0.00  0.00    +0.020 A 
ATOM     33  C   UNL     1       5.570   7.646  -2.311  0.00  0.00    +0.111 A 
ATOM     34  N   UNL     1       5.355   6.711  -1.406  0.00  0.00    -0.260 NA
ENDBRANCH  28  29
ENDBRANCH  27  28
ENDBRANCH  24  27
ENDBRANCH  23  24
ENDBRANCH  22  23
ENDBRANCH   5  22
TORSDOF 11
