REMARK  Name = ZINC37605999
REMARK  10 active torsions:
REMARK  status: ('A' for Active; 'I' for Inactive)
REMARK    1  A    between atoms: C_1  and  C_2
REMARK    2  A    between atoms: C_2  and  C_3
REMARK    3  A    between atoms: C_2  and  C_4
REMARK    4  A    between atoms: C_12  and  O_24
REMARK    5  A    between atoms: C_15  and  C_17
REMARK    6  A    between atoms: O_24  and  C_25
REMARK    7  A    between atoms: C_25  and  C_26
REMARK    8  A    between atoms: C_29  and  C_31
REMARK    9  A    between atoms: N_33  and  C_34
REMARK   10  A    between atoms: C_34  and  C_35
REMARK                            x       y       z     vdW  Elec       q    Type
REMARK                         _______ _______ _______ _____ _____    ______ ____
ROOT
ATOM      1  C   UNL     1      -1.728  -0.299  -0.059  0.00  0.00    +0.219 C 
ATOM      2  O   UNL     1      -2.771   0.320  -0.058  0.00  0.00    -0.275 OA
ATOM      3  N   UNL     1      -1.743  -1.645   0.016  0.00  0.00    -0.290 N 
ATOM      4  C   UNL     1      -0.496  -2.419   0.130  0.00  0.00    +0.113 C 
ATOM      5  C   UNL     1      -0.505  -3.128   1.483  0.00  0.00    +0.054 C 
ATOM      6  C   UNL     1      -1.825  -3.814   1.720  0.00  0.00    -0.040 A 
ATOM      7  C   UNL     1      -1.860  -4.833   2.665  0.00  0.00    +0.007 A 
ATOM      8  C   UNL     1      -3.036  -5.497   2.939  0.00  0.00    +0.046 A 
ATOM      9  C   UNL     1      -4.199  -5.145   2.267  0.00  0.00    +0.121 A 
ATOM     10  C   UNL     1      -4.163  -4.133   1.324  0.00  0.00    +0.051 A 
ATOM     11  C   UNL     1      -2.976  -3.471   1.046  0.00  0.00    -0.016 A 
ATOM     12  C   UNL     1      -3.002  -2.396  -0.006  0.00  0.00    +0.137 C 
ENDROOT
BRANCH  12  13
ATOM     13  C   UNL     1      -3.183  -3.031  -1.361  0.00  0.00    -0.022 A 
ATOM     14  C   UNL     1      -2.308  -4.013  -1.786  0.00  0.00    +0.008 A 
ATOM     15  C   UNL     1      -2.473  -4.597  -3.027  0.00  0.00    +0.038 A 
ATOM     16  C   UNL     1      -3.516  -4.198  -3.846  0.00  0.00    +0.123 A 
ATOM     17  C   UNL     1      -4.392  -3.214  -3.419  0.00  0.00    +0.038 A 
ATOM     18  C   UNL     1      -4.228  -2.636  -2.175  0.00  0.00    +0.008 A 
ATOM     19  F   UNL     1      -3.678  -4.767  -5.060  0.00  0.00    -0.205 F 
ENDBRANCH  12  13
BRANCH   1  21
ATOM     20  C   UNL     1       0.069   0.449  -1.595  0.00  0.00    +0.017 C 
ATOM     21  C   UNL     1      -0.416   0.437  -0.144  0.00  0.00    +0.069 C 
ATOM     22  C   UNL     1      -0.605   1.875   0.343  0.00  0.00    +0.017 C 
ENDBRANCH   1  21
BRANCH   9  23
ATOM     23  O   UNL     1      -5.364  -5.792   2.534  0.00  0.00    -0.484 OA
BRANCH  23  24
ATOM     24  C   UNL     1      -5.322  -6.825   3.519  0.00  0.00    +0.303 C 
BRANCH  24  25
ATOM     25  C   UNL     1      -6.696  -7.423   3.679  0.00  0.00    +0.143 A 
ATOM     26  C   UNL     1      -7.182  -8.475   2.984  0.00  0.00    +0.049 A 
ATOM     27  C   UNL     1      -8.490  -8.704   3.442  0.00  0.00    +0.055 A 
ATOM     28  C   UNL     1      -8.738  -7.768   4.404  0.00  0.00    +0.190 A 
ATOM     29  O   UNL     1      -7.635  -7.003   4.537  0.00  0.00    -0.452 OA
BRANCH  28  30
ATOM     30  C   UNL     1      -9.984  -7.623   5.164  0.00  0.00    +0.280 C 
ATOM     31  O   UNL     1     -10.914  -8.380   4.957  0.00  0.00    -0.267 OA
ATOM     32  N   UNL     1     -10.099  -6.652   6.091  0.00  0.00    -0.302 N 
ATOM     33  H   UNL     1      -9.357  -6.048   6.256  0.00  0.00    +0.150 HD
BRANCH  32  34
ATOM     34  C   UNL     1     -11.344  -6.506   6.850  0.00  0.00    +0.179 C 
BRANCH  34  35
ATOM     35  C   UNL     1     -11.213  -5.356   7.814  0.00  0.00    +0.122 A 
ATOM     36  C   UNL     1     -11.535  -4.075   7.558  0.00  0.00    +0.046 A 
ATOM     37  C   UNL     1     -11.255  -3.340   8.733  0.00  0.00    +0.041 A 
ATOM     38  C   UNL     1     -10.779  -4.215   9.636  0.00  0.00    +0.195 A 
ATOM     39  O   UNL     1     -10.761  -5.436   9.076  0.00  0.00    -0.466 OA
ENDBRANCH  34  35
ENDBRANCH  32  34
ENDBRANCH  28  30
ENDBRANCH  24  25
ENDBRANCH  23  24
ENDBRANCH   9  23
TORSDOF 8
