REMARK  Name = ZINC63141873
REMARK  10 active torsions:
REMARK  status: ('A' for Active; 'I' for Inactive)
REMARK    1  A    between atoms: C_1  and  C_2
REMARK    2  A    between atoms: C_2  and  O_3
REMARK    3  A    between atoms: O_3  and  C_4
REMARK    4  A    between atoms: C_7  and  C_12
REMARK    5  A    between atoms: C_9  and  O_10
REMARK    6  A    between atoms: O_10  and  C_11
REMARK    7  A    between atoms: N_31  and  C_34
REMARK    8  A    between atoms: C_34  and  C_35
REMARK    9  A    between atoms: C_40  and  O_41
REMARK   10  A    between atoms: O_41  and  C_42
REMARK                            x       y       z     vdW  Elec       q    Type
REMARK                         _______ _______ _______ _____ _____    ______ ____
ROOT
ATOM      1  C   UNL     1      -1.996  -6.097  -0.011  0.00  0.00    +0.134 C 
ATOM      2  C   UNL     1      -1.659  -6.664   1.371  0.00  0.00    +0.131 C 
ATOM      3  C   UNL     1      -0.154  -6.514   1.550  0.00  0.00    -0.034 C 
ATOM      4  C   UNL     1       0.024  -5.827   2.673  0.00  0.00    -0.001 A 
ATOM      5  C   UNL     1       1.242  -5.436   3.400  0.00  0.00    +0.010 A 
ATOM      6  C   UNL     1       1.056  -4.710   4.534  0.00  0.00    +0.001 A 
ATOM      7  C   UNL     1      -0.205  -4.338   5.011  0.00  0.00    +0.002 A 
ATOM      8  C   UNL     1      -1.378  -4.660   4.410  0.00  0.00    +0.026 A 
ATOM      9  C   UNL     1      -1.312  -5.427   3.211  0.00  0.00    +0.043 A 
ATOM     10  N   UNL     1      -2.283  -5.892   2.447  0.00  0.00    -0.375 N 
ATOM     11  C   UNL     1       0.837  -7.022   0.531  0.00  0.00    +0.065 C 
ATOM     12  C   UNL     1       0.370  -6.491  -0.837  0.00  0.00    +0.167 C 
ATOM     13  N   UNL     1      -1.066  -6.705  -0.988  0.00  0.00    -0.279 N 
ATOM     14  C   UNL     1      -1.589  -7.437  -1.979  0.00  0.00    +0.234 C 
ATOM     15  O   UNL     1      -2.794  -7.571  -2.005  0.00  0.00    -0.274 OA
ATOM     16  C   UNL     1      -0.794  -8.100  -3.055  0.00  0.00    +0.204 C 
ATOM     17  N   UNL     1       0.631  -7.855  -2.915  0.00  0.00    -0.287 N 
ATOM     18  C   UNL     1       1.165  -7.137  -1.924  0.00  0.00    +0.237 C 
ATOM     19  O   UNL     1       2.369  -6.998  -1.906  0.00  0.00    -0.274 OA
ATOM     20  H   UNL     1      -3.235  -5.750   2.564  0.00  0.00    +0.160 HD
ENDROOT
BRANCH   1  24
ATOM     21  C   UNL     1      -1.498  -1.849   0.008  0.00  0.00    +0.162 A 
ATOM     22  C   UNL     1      -0.430  -2.676   0.314  0.00  0.00    +0.050 A 
ATOM     23  C   UNL     1      -0.594  -4.049   0.307  0.00  0.00    +0.009 A 
ATOM     24  C   UNL     1      -1.823  -4.600  -0.005  0.00  0.00    -0.021 A 
ATOM     25  C   UNL     1      -2.893  -3.780  -0.311  0.00  0.00    +0.055 A 
ATOM     26  C   UNL     1      -2.737  -2.403  -0.300  0.00  0.00    +0.162 A 
BRANCH  26  27
ATOM     27  O   UNL     1      -3.791  -1.596  -0.596  0.00  0.00    -0.491 OA
ATOM     28  C   UNL     1      -5.032  -2.234  -0.902  0.00  0.00    +0.277 C 
ENDBRANCH  26  27
BRANCH  21  29
ATOM     29  O   UNL     1      -1.339  -0.499   0.015  0.00  0.00    -0.489 OA
BRANCH  29  31
ATOM     30  C   UNL     1      -0.054   1.529   0.297  0.00  0.00    +0.048 C 
ATOM     31  C   UNL     1      -0.040  -0.001   0.340  0.00  0.00    +0.226 C 
ENDBRANCH  29  31
ENDBRANCH  21  29
ENDBRANCH   1  24
BRANCH  17  32
ATOM     32  C   UNL     1       1.534  -8.430  -3.916  0.00  0.00    +0.147 C 
BRANCH  32  33
ATOM     33  C   UNL     1       1.719  -7.451  -5.047  0.00  0.00    +0.011 A 
ATOM     34  C   UNL     1       1.004  -7.606  -6.219  0.00  0.00    +0.009 A 
ATOM     35  C   UNL     1       1.173  -6.709  -7.257  0.00  0.00    +0.001 A 
ATOM     36  C   UNL     1       2.058  -5.654  -7.125  0.00  0.00    +0.004 A 
ATOM     37  C   UNL     1       2.775  -5.495  -5.955  0.00  0.00    +0.046 A 
ATOM     38  C   UNL     1       2.603  -6.391  -4.910  0.00  0.00    +0.125 A 
BRANCH  38  39
ATOM     39  O   UNL     1       3.302  -6.233  -3.756  0.00  0.00    -0.495 OA
ATOM     40  C   UNL     1       4.194  -5.119  -3.685  0.00  0.00    +0.277 C 
ENDBRANCH  38  39
ENDBRANCH  32  33
ENDBRANCH  17  32
TORSDOF 7
