REMARK  Name = ZINC17216793
REMARK  11 active torsions:
REMARK  status: ('A' for Active; 'I' for Inactive)
REMARK    1  A    between atoms: C_1  and  C_2
REMARK    2  A    between atoms: C_5  and  N_8
REMARK    3  A    between atoms: C_9  and  C_11
REMARK    4  A    between atoms: C_11  and  C_18
REMARK    5  A    between atoms: N_12  and  N_13
REMARK    6  A    between atoms: N_13  and  C_14
REMARK    7  A    between atoms: C_14  and  C_15
REMARK    8  A    between atoms: C_14  and  C_16
REMARK    9  A    between atoms: C_14  and  C_17
REMARK   10  A    between atoms: C_18  and  C_19
REMARK   11  A    between atoms: C_21  and  O_41
REMARK                            x       y       z     vdW  Elec       q    Type
REMARK                         _______ _______ _______ _____ _____    ______ ____
ROOT
ATOM      1  C   UNL     1      -0.454  -8.568   2.148  0.00  0.00    +0.123 C 
ATOM      2  C   UNL     1      -0.758  -9.333   3.444  0.00  0.00    +0.221 C 
ATOM      3  N   UNL     1       0.354  -9.112   4.380  0.00  0.00    -0.316 N 
ATOM      4  C   UNL     1       1.660  -9.211   3.905  0.00  0.00    +0.051 A 
ATOM      5  C   UNL     1       2.715  -9.351   4.793  0.00  0.00    +0.025 A 
ATOM      6  C   UNL     1       4.014  -9.448   4.329  0.00  0.00    +0.014 A 
ATOM      7  C   UNL     1       4.277  -9.406   2.962  0.00  0.00    +0.035 A 
ATOM      8  C   UNL     1       3.212  -9.263   2.046  0.00  0.00    +0.056 A 
ATOM      9  C   UNL     1       1.904  -9.167   2.522  0.00  0.00    +0.060 A 
ATOM     10  N   UNL     1       0.844  -9.030   1.634  0.00  0.00    -0.335 N 
ATOM     11  C   UNL     1       3.483  -9.218   0.600  0.00  0.00    +0.196 C 
ATOM     12  O   UNL     1       2.565  -9.093  -0.188  0.00  0.00    -0.287 OA
ATOM     13  C   UNL     1       4.872  -9.325   0.106  0.00  0.00    +0.033 A 
ATOM     14  C   UNL     1       5.137  -9.287  -1.260  0.00  0.00    +0.012 A 
ATOM     15  C   UNL     1       6.440  -9.389  -1.713  0.00  0.00    +0.001 A 
ATOM     16  C   UNL     1       7.484  -9.528  -0.816  0.00  0.00    +0.001 A 
ATOM     17  C   UNL     1       7.239  -9.567   0.544  0.00  0.00    +0.012 A 
ATOM     18  C   UNL     1       5.934  -9.467   1.018  0.00  0.00    +0.033 A 
ATOM     19  C   UNL     1       5.662  -9.510   2.470  0.00  0.00    +0.195 C 
ATOM     20  O   UNL     1       6.580  -9.630   3.257  0.00  0.00    -0.287 OA
ATOM     21  H   UNL     1       0.181  -8.900   5.311  0.00  0.00    +0.149 HD
ATOM     22  H   UNL     1       0.957  -9.235   0.693  0.00  0.00    +0.147 HD
ENDROOT
BRANCH   2  23
ATOM     23  O   UNL     1      -0.881 -10.729   3.162  0.00  0.00    -0.373 OA
ATOM     24  H   UNL     1      -1.074 -11.271   3.939  0.00  0.00    +0.212 HD
ENDBRANCH   2  23
BRANCH   1  25
ATOM     25  C   UNL     1      -0.391  -7.067   2.438  0.00  0.00    +0.088 C 
BRANCH  25  26
ATOM     26  C   UNL     1      -0.200  -6.314   1.146  0.00  0.00    +0.122 C 
ATOM     27  N   UNL     1      -0.117  -6.963   0.020  0.00  0.00    -0.186 NA
BRANCH  26  29
ATOM     28  N   UNL     1      -0.021  -4.194   2.329  0.00  0.00    -0.280 N 
ATOM     29  C   UNL     1      -0.108  -4.854   1.158  0.00  0.00    +0.264 C 
ATOM     30  O   UNL     1      -0.111  -4.236   0.109  0.00  0.00    -0.268 OA
ATOM     31  H   UNL     1       0.070  -4.688   3.159  0.00  0.00    +0.155 HD
BRANCH  28  36
ATOM     32  C   UNL     1      -0.176   1.476   2.408  0.00  0.00    +0.044 C 
ATOM     33  C   UNL     1      -0.135  -0.030   2.387  0.00  0.00    -0.050 A 
ATOM     34  C   UNL     1      -0.529  -0.747   3.502  0.00  0.00    +0.005 A 
ATOM     35  C   UNL     1      -0.492  -2.127   3.486  0.00  0.00    +0.023 A 
ATOM     36  C   UNL     1      -0.059  -2.796   2.349  0.00  0.00    +0.034 A 
ATOM     37  C   UNL     1       0.336  -2.073   1.230  0.00  0.00    +0.023 A 
ATOM     38  C   UNL     1       0.292  -0.693   1.251  0.00  0.00    +0.005 A 
ENDBRANCH  28  36
ENDBRANCH  26  29
BRANCH  27  39
ATOM     39  N   UNL     1      -0.132  -6.264  -1.194  0.00  0.00    -0.263 N 
ATOM     40  H   UNL     1      -0.072  -5.296  -1.197  0.00  0.00    +0.169 HD
BRANCH  39  41
ATOM     41  C   UNL     1      -0.240  -6.995  -2.459  0.00  0.00    +0.041 C 
ATOM     42  C   UNL     1      -1.544  -7.795  -2.477  0.00  0.00    +0.032 C 
ATOM     43  C   UNL     1      -0.235  -6.003  -3.624  0.00  0.00    +0.032 C 
ATOM     44  C   UNL     1       0.947  -7.951  -2.598  0.00  0.00    +0.032 C 
ENDBRANCH  39  41
ENDBRANCH  27  39
ENDBRANCH  25  26
ENDBRANCH   1  25
TORSDOF 7
