REMARK  Name = ZINC13584581
REMARK  10 active torsions:
REMARK  status: ('A' for Active; 'I' for Inactive)
REMARK    1  A    between atoms: C_1  and  C_2
REMARK    2  A    between atoms: C_2  and  C_3
REMARK    3  A    between atoms: C_3  and  C_5
REMARK    4  A    between atoms: C_3  and  N_6
REMARK    5  A    between atoms: C_7  and  C_9
REMARK    6  A    between atoms: C_13  and  N_18
REMARK    7  A    between atoms: N_18  and  C_19
REMARK    8  A    between atoms: N_18  and  S_21
REMARK    9  A    between atoms: C_19  and  C_20
REMARK   10  A    between atoms: S_21  and  C_24
REMARK                            x       y       z     vdW  Elec       q    Type
REMARK                         _______ _______ _______ _____ _____    ______ ____
ROOT
ATOM      1  C   UNL     1       0.619  -0.851   1.039  0.00  0.00    +0.075 A 
ATOM      2  C   UNL     1       1.948  -0.974   0.780  0.00  0.00    +0.029 A 
ATOM      3  C   UNL     1       2.744   0.176   0.633  0.00  0.00    -0.008 A 
ATOM      4  C   UNL     1       4.135   0.252   0.363  0.00  0.00    +0.033 A 
ATOM      5  C   UNL     1       4.757   1.472   0.250  0.00  0.00    +0.052 A 
ATOM      6  C   UNL     1       4.047   2.664   0.396  0.00  0.00    +0.026 A 
ATOM      7  C   UNL     1       2.703   2.623   0.657  0.00  0.00    +0.017 A 
ATOM      8  C   UNL     1       2.063   1.408   0.773  0.00  0.00    +0.020 A 
ATOM      9  S   UNL     1       0.387   0.918   1.095  0.00  0.00    -0.084 S 
ENDROOT
BRANCH   1  11
ATOM     10  N   UNL     1      -1.665  -1.591   1.478  0.00  0.00    -0.308 N 
ATOM     11  C   UNL     1      -0.381  -1.912   1.226  0.00  0.00    +0.251 C 
ATOM     12  O   UNL     1      -0.048  -3.080   1.155  0.00  0.00    -0.270 OA
ATOM     13  H   UNL     1      -1.930  -0.660   1.535  0.00  0.00    +0.149 HD
BRANCH  10  14
ATOM     14  C   UNL     1      -2.661  -2.649   1.665  0.00  0.00    +0.070 C 
ATOM     15  C   UNL     1      -2.645  -3.113   3.123  0.00  0.00    +0.028 C 
BRANCH  14  17
ATOM     16  C   UNL     1      -4.104  -1.762  -0.172  0.00  0.00    +0.005 C 
ATOM     17  C   UNL     1      -4.050  -2.110   1.317  0.00  0.00    +0.018 C 
ENDBRANCH  14  17
ENDBRANCH  10  14
ENDBRANCH   1  11
BRANCH   5  18
ATOM     18  N   UNL     1       6.130   1.520  -0.016  0.00  0.00    -0.203 N 
BRANCH  18  19
ATOM     19  S   UNL     1       6.782   2.844  -0.766  0.00  0.00    +0.075 S 
ATOM     20  O   UNL     1       7.970   2.403  -1.409  0.00  0.00    -0.150 OA
ATOM     21  O   UNL     1       5.723   3.474  -1.472  0.00  0.00    -0.150 OA
BRANCH  19  22
ATOM     22  C   UNL     1       7.281   3.966   0.498  0.00  0.00    +0.109 A 
ATOM     23  C   UNL     1       6.449   5.006   0.866  0.00  0.00    +0.030 A 
ATOM     24  C   UNL     1       6.837   5.884   1.861  0.00  0.00    +0.017 A 
ATOM     25  C   UNL     1       8.064   5.726   2.482  0.00  0.00    +0.018 A 
ATOM     26  C   UNL     1       8.899   4.688   2.109  0.00  0.00    +0.017 A 
ATOM     27  C   UNL     1       8.507   3.808   1.118  0.00  0.00    +0.030 A 
ATOM     28 BR   UNL     1       8.599   6.930   3.838  0.00  0.00    -0.050 Br
ENDBRANCH  19  22
ENDBRANCH  18  19
BRANCH  18  29
ATOM     29  C   UNL     1       6.991   0.398   0.369  0.00  0.00    +0.128 C 
ATOM     30  C   UNL     1       6.964  -0.666  -0.730  0.00  0.00    +0.026 C 
ENDBRANCH  18  29
ENDBRANCH   5  18
TORSDOF 7
