REMARK  Name = ZINC13242216
REMARK  7 active torsions:
REMARK  status: ('A' for Active; 'I' for Inactive)
REMARK    1  A    between atoms: C_1  and  N_2
REMARK    2  A    between atoms: C_3  and  C_24
REMARK    3  A    between atoms: C_6  and  S_7
REMARK    4  A    between atoms: S_7  and  C_8
REMARK    5  A    between atoms: C_8  and  C_9
REMARK    6  A    between atoms: N_11  and  C_12
REMARK    7  A    between atoms: C_21  and  C_22
REMARK                            x       y       z     vdW  Elec       q    Type
REMARK                         _______ _______ _______ _____ _____    ______ ____
ROOT
ATOM      1  C   UNL     1       1.120   7.631  -0.037  0.00  0.00    +0.173 C 
ENDROOT
BRANCH   1   2
ATOM      2  C   UNL     1       1.173   6.130   0.079  0.00  0.00    +0.228 C 
ATOM      3  O   UNL     1       0.153   5.499   0.260  0.00  0.00    -0.275 OA
ATOM      4  N   UNL     1       2.354   5.487  -0.017  0.00  0.00    -0.284 N 
ATOM      5  H   UNL     1       3.178   5.995  -0.084  0.00  0.00    +0.155 HD
BRANCH   4   6
ATOM      6  C   UNL     1       2.392   4.093  -0.020  0.00  0.00    +0.048 A 
ATOM      7  C   UNL     1       1.387   3.392  -0.622  0.00  0.00    +0.032 A 
ATOM      8  C   UNL     1       1.418   1.988  -0.628  0.00  0.00    -0.016 A 
ATOM      9  C   UNL     1       0.395   1.244  -1.243  0.00  0.00    +0.008 A 
ATOM     10  C   UNL     1       0.450  -0.115  -1.234  0.00  0.00    +0.001 A 
ATOM     11  C   UNL     1       1.508  -0.787  -0.625  0.00  0.00    +0.001 A 
ATOM     12  C   UNL     1       2.517  -0.103  -0.020  0.00  0.00    +0.008 A 
ATOM     13  C   UNL     1       2.495   1.304  -0.008  0.00  0.00    -0.017 A 
ATOM     14  C   UNL     1       3.520   2.037   0.607  0.00  0.00    +0.025 A 
ATOM     15  C   UNL     1       3.468   3.422   0.601  0.00  0.00    +0.085 A 
BRANCH  15  16
ATOM     16  C   UNL     1       4.543   4.198   1.246  0.00  0.00    +0.388 C 
ATOM     17  O   UNL     1       4.548   5.411   1.165  0.00  0.00    -0.241 OA
ATOM     18  O   UNL     1       5.518   3.564   1.925  0.00  0.00    -0.241 OA
ENDBRANCH  15  16
ENDBRANCH   4   6
ENDBRANCH   1   2
BRANCH   1  19
ATOM     19  S   UNL     1      -0.593   8.189   0.133  0.00  0.00    -0.077 S 
BRANCH  19  25
ATOM     20  C   UNL     1      -2.779  10.670   0.203  0.00  0.00    +0.153 C 
ATOM     21  N   UNL     1      -1.343  10.882   0.006  0.00  0.00    -0.306 N 
ATOM     22  C   UNL     1      -0.701  12.077  -0.172  0.00  0.00    +0.178 A 
ATOM     23  N   UNL     1       0.569  11.819  -0.310  0.00  0.00    -0.130 NA
ATOM     24  N   UNL     1       0.773  10.552  -0.227  0.00  0.00    -0.122 NA
ATOM     25  C   UNL     1      -0.367   9.928  -0.039  0.00  0.00    +0.192 A 
BRANCH  22  26
ATOM     26  C   UNL     1      -1.343  13.440  -0.203  0.00  0.00    +0.278 C 
ATOM     27  C   UNL     1      -1.044  14.183   1.106  0.00  0.00    +0.281 C 
ATOM     28  O   UNL     1      -1.655  15.476   1.038  0.00  0.00    -0.484 OA
ATOM     29  C   UNL     1      -1.476  16.177  -0.114  0.00  0.00    +0.162 A 
ATOM     30  C   UNL     1      -1.720  17.543  -0.124  0.00  0.00    +0.049 A 
ATOM     31  C   UNL     1      -1.545  18.269  -1.288  0.00  0.00    +0.004 A 
ATOM     32  C   UNL     1      -1.128  17.636  -2.444  0.00  0.00    +0.004 A 
ATOM     33  C   UNL     1      -0.883  16.276  -2.440  0.00  0.00    +0.049 A 
ATOM     34  C   UNL     1      -1.054  15.542  -1.276  0.00  0.00    +0.163 A 
ATOM     35  O   UNL     1      -0.803  14.204  -1.286  0.00  0.00    -0.474 OA
ENDBRANCH  22  26
ENDBRANCH  19  25
ENDBRANCH   1  19
TORSDOF 6
