REMARK  Name = ZINC40004547
REMARK  9 active torsions:
REMARK  status: ('A' for Active; 'I' for Inactive)
REMARK    1  A    between atoms: C_1  and  C_2
REMARK    2  A    between atoms: C_6  and  O_8
REMARK    3  A    between atoms: O_8  and  C_9
REMARK    4  A    between atoms: C_10  and  C_21
REMARK    5  A    between atoms: C_17  and  C_20
REMARK    6  A    between atoms: C_22  and  C_23
REMARK    7  A    between atoms: C_22  and  C_25
REMARK    8  A    between atoms: N_27  and  C_28
REMARK    9  A    between atoms: C_29  and  C_37
REMARK                            x       y       z     vdW  Elec       q    Type
REMARK                         _______ _______ _______ _____ _____    ______ ____
ROOT
ATOM      1  C   UNL     1      -0.299  -4.109   2.307  0.00  0.00    +0.235 A 
ATOM      2  C   UNL     1      -0.148  -4.870   3.493  0.00  0.00    +0.103 A 
ATOM      3  C   UNL     1       0.007  -6.276   3.374  0.00  0.00    +0.269 A 
ATOM      4  O   UNL     1       0.140  -6.971   4.366  0.00  0.00    -0.266 OA
ATOM      5  N   UNL     1       0.003  -6.830   2.142  0.00  0.00    -0.267 N 
ATOM      6  C   UNL     1       0.151  -8.178   2.018  0.00  0.00    +0.096 A 
ATOM      7  C   UNL     1       0.153  -8.765   0.799  0.00  0.00    +0.019 A 
ATOM      8  C   UNL     1       0.001  -7.987  -0.355  0.00  0.00    +0.008 A 
ATOM      9  C   UNL     1      -0.148  -6.636  -0.240  0.00  0.00    -0.007 A 
ATOM     10  C   UNL     1      -0.147  -6.044   1.034  0.00  0.00    +0.147 A 
ATOM     11  N   UNL     1      -0.298  -4.721   1.136  0.00  0.00    -0.194 NA
ATOM     12  C   UNL     1      -0.312  -5.783  -1.472  0.00  0.00    +0.047 C 
ENDROOT
BRANCH   2  13
ATOM     13  C   UNL     1      -0.150  -4.247   4.754  0.00  0.00    +0.042 C 
ATOM     14  C   UNL     1       0.758  -3.235   5.030  0.00  0.00    +0.114 C 
BRANCH  14  15
ATOM     15  C   UNL     1       0.675  -2.501   6.297  0.00  0.00    +0.259 C 
ATOM     16  O   UNL     1      -0.190  -2.780   7.106  0.00  0.00    -0.269 OA
ATOM     17  N   UNL     1       1.557  -1.518   6.565  0.00  0.00    -0.274 N 
ATOM     18  H   UNL     1       2.247  -1.295   5.920  0.00  0.00    +0.156 HD
BRANCH  17  19
ATOM     19  C   UNL     1       1.479  -0.824   7.763  0.00  0.00    +0.090 A 
ATOM     20  C   UNL     1       2.289   0.211   8.202  0.00  0.00    +0.084 A 
ATOM     21  C   UNL     1       1.996   0.775   9.508  0.00  0.00    -0.018 A 
ATOM     22  C   UNL     1       0.948   0.200  10.136  0.00  0.00    -0.004 A 
ATOM     23  S   UNL     1       0.377  -1.040   9.011  0.00  0.00    -0.077 S 
ATOM     24  C   UNL     1       0.403   0.553  11.485  0.00  0.00    +0.043 C 
ATOM     25  C   UNL     1       1.444   1.414  12.215  0.00  0.00    +0.005 C 
ATOM     26  C   UNL     1       1.925   2.519  11.270  0.00  0.00    +0.005 C 
ATOM     27  C   UNL     1       2.775   1.913  10.151  0.00  0.00    +0.037 C 
BRANCH  20  28
ATOM     28  C   UNL     1       3.369   0.704   7.402  0.00  0.00    +0.102 C 
ATOM     29  N   UNL     1       4.226   1.095   6.767  0.00  0.00    -0.191 NA
ENDBRANCH  20  28
ENDBRANCH  17  19
ENDBRANCH  14  15
BRANCH  14  30
ATOM     30  C   UNL     1       1.776  -2.906   4.077  0.00  0.00    +0.104 C 
ATOM     31  N   UNL     1       2.583  -2.646   3.322  0.00  0.00    -0.191 NA
ENDBRANCH  14  30
ENDBRANCH   2  13
BRANCH   1  32
ATOM     32  O   UNL     1      -0.450  -2.768   2.374  0.00  0.00    -0.437 OA
BRANCH  32  38
ATOM     33  C   UNL     1      -3.556  -1.683  -1.232  0.00  0.00    +0.044 C 
ATOM     34  C   UNL     1      -2.212  -1.543  -0.565  0.00  0.00    -0.047 A 
ATOM     35  C   UNL     1      -1.242  -0.733  -1.126  0.00  0.00    +0.003 A 
ATOM     36  C   UNL     1      -0.008  -0.603  -0.517  0.00  0.00    +0.004 A 
ATOM     37  C   UNL     1       0.260  -1.283   0.655  0.00  0.00    +0.046 A 
ATOM     38  C   UNL     1      -0.711  -2.097   1.221  0.00  0.00    +0.131 A 
ATOM     39  C   UNL     1      -1.951  -2.221   0.610  0.00  0.00    +0.049 A 
ENDBRANCH  32  38
ENDBRANCH   1  32
TORSDOF 7
