REMARK  Name = ZINC15760213
REMARK  14 active torsions:
REMARK  status: ('A' for Active; 'I' for Inactive)
REMARK    1  A    between atoms: C_1  and  C_2
REMARK    2  A    between atoms: C_2  and  C_3
REMARK    3  A    between atoms: C_2  and  C_4
REMARK    4  A    between atoms: C_2  and  C_5
REMARK    5  A    between atoms: C_12  and  C_14
REMARK    6  A    between atoms: N_16  and  N_17
REMARK    7  A    between atoms: C_18  and  C_20
REMARK    8  A    between atoms: C_22  and  O_33
REMARK    9  A    between atoms: C_23  and  O_28
REMARK   10  A    between atoms: C_24  and  O_26
REMARK   11  A    between atoms: O_26  and  C_27
REMARK   12  A    between atoms: O_28  and  C_29
REMARK   13  A    between atoms: C_29  and  C_30
REMARK   14  A    between atoms: O_33  and  C_34
REMARK                            x       y       z     vdW  Elec       q    Type
REMARK                         _______ _______ _______ _____ _____    ______ ____
ROOT
ATOM      1  N   UNL     1       0.815   5.545  -1.537  0.00  0.00    -0.230 N 
ATOM      2  C   UNL     1       0.195   6.044  -0.449  0.00  0.00    +0.260 C 
ATOM      3  O   UNL     1       0.099   7.247  -0.302  0.00  0.00    -0.269 OA
ATOM      4  H   UNL     1       0.891   4.585  -1.654  0.00  0.00    +0.173 HD
ENDROOT
BRANCH   2   5
ATOM      5  C   UNL     1      -0.368   5.129   0.564  0.00  0.00    +0.045 A 
ATOM      6  C   UNL     1      -1.011   5.645   1.692  0.00  0.00    +0.062 A 
ATOM      7  C   UNL     1      -1.538   4.787   2.639  0.00  0.00    +0.166 A 
ATOM      8  C   UNL     1      -1.427   3.409   2.470  0.00  0.00    +0.204 A 
ATOM      9  C   UNL     1      -0.787   2.893   1.346  0.00  0.00    +0.166 A 
ATOM     10  C   UNL     1      -0.255   3.747   0.399  0.00  0.00    +0.062 A 
BRANCH   9  11
ATOM     11  O   UNL     1      -0.682   1.547   1.184  0.00  0.00    -0.491 OA
ATOM     12  C   UNL     1      -0.013   1.086   0.008  0.00  0.00    +0.277 C 
ENDBRANCH   9  11
BRANCH   7  13
ATOM     13  O   UNL     1      -2.164   5.289   3.737  0.00  0.00    -0.491 OA
ATOM     14  C   UNL     1      -2.241   6.711   3.847  0.00  0.00    +0.277 C 
ENDBRANCH   7  13
BRANCH   8  15
ATOM     15  O   UNL     1      -1.945   2.568   3.402  0.00  0.00    -0.476 OA
BRANCH  15  16
ATOM     16  C   UNL     1      -1.084   2.178   4.474  0.00  0.00    +0.324 C 
BRANCH  16  17
ATOM     17  C   UNL     1      -1.825   1.251   5.402  0.00  0.00    +0.248 C 
ATOM     18  O   UNL     1      -2.978   0.953   5.169  0.00  0.00    -0.272 OA
ATOM     19  N   UNL     1      -1.208   0.752   6.491  0.00  0.00    -0.327 N 
ATOM     20  H   UNL     1      -0.286   0.990   6.678  0.00  0.00    +0.145 HD
ATOM     21  H   UNL     1      -1.685   0.155   7.089  0.00  0.00    +0.145 HD
ENDBRANCH  16  17
ENDBRANCH  15  16
ENDBRANCH   8  15
ENDBRANCH   2   5
BRANCH   1  24
ATOM     22  C   UNL     1       1.969   5.913  -3.586  0.00  0.00    +0.267 C 
ATOM     23  O   UNL     1       2.065   4.709  -3.733  0.00  0.00    -0.268 OA
ATOM     24  N   UNL     1       1.349   6.412  -2.498  0.00  0.00    -0.230 N 
ATOM     25  H   UNL     1       1.273   7.372  -2.381  0.00  0.00    +0.173 HD
BRANCH  22  32
ATOM     26  C   UNL     1       5.104   8.646  -8.243  0.00  0.00    -0.001 C 
ATOM     27  C   UNL     1       4.120   9.819  -8.232  0.00  0.00    +0.009 C 
ATOM     28  C   UNL     1       3.728  10.120  -6.778  0.00  0.00    +0.043 C 
ATOM     29  C   UNL     1       3.365   8.830  -6.110  0.00  0.00    -0.006 A 
ATOM     30  C   UNL     1       3.632   7.567  -6.558  0.00  0.00    -0.036 A 
ATOM     31  C   UNL     1       3.200   6.519  -5.762  0.00  0.00    +0.024 A 
ATOM     32  C   UNL     1       2.528   6.821  -4.592  0.00  0.00    +0.076 A 
ATOM     33  S   UNL     1       2.527   8.606  -4.622  0.00  0.00    -0.088 S 
ATOM     34  C   UNL     1       4.378   7.353  -7.872  0.00  0.00    +0.040 C 
BRANCH  26  36
ATOM     35  C   UNL     1       4.596   8.236 -10.655  0.00  0.00    +0.011 C 
ATOM     36  C   UNL     1       5.710   8.505  -9.641  0.00  0.00    -0.035 C 
ATOM     37  C   UNL     1       6.438   9.799 -10.014  0.00  0.00    +0.011 C 
ATOM     38  C   UNL     1       6.702   7.341  -9.652  0.00  0.00    +0.011 C 
ENDBRANCH  26  36
ENDBRANCH  22  32
ENDBRANCH   1  24
TORSDOF 9
