REMARK  Name = ZINC03418254
REMARK  7 active torsions:
REMARK  status: ('A' for Active; 'I' for Inactive)
REMARK    1  A    between atoms: C_1  and  C_2
REMARK    2  A    between atoms: C_7  and  N_8
REMARK    3  A    between atoms: C_17  and  S_18
REMARK    4  A    between atoms: S_18  and  C_19
REMARK    5  A    between atoms: C_19  and  C_21
REMARK    6  A    between atoms: C_19  and  C_22
REMARK    7  A    between atoms: C_29  and  C_33
REMARK                            x       y       z     vdW  Elec       q    Type
REMARK                         _______ _______ _______ _____ _____    ______ ____
ROOT
ATOM      1  N   UNL     1      -6.341   1.087  -1.184  0.00  0.00    -0.255 N 
ATOM      2  C   UNL     1      -7.374   0.225  -1.211  0.00  0.00    +0.268 A 
ATOM      3  O   UNL     1      -8.461   0.575  -1.639  0.00  0.00    -0.267 OA
ATOM      4  C   UNL     1      -7.180  -1.109  -0.730  0.00  0.00    +0.076 A 
ATOM      5  C   UNL     1      -8.153  -2.201  -0.668  0.00  0.00    -0.023 A 
ATOM      6  C   UNL     1      -7.722  -3.377  -0.167  0.00  0.00    -0.004 A 
ATOM      7  S   UNL     1      -6.019  -3.106   0.244  0.00  0.00    -0.073 S 
ATOM      8  C   UNL     1      -5.891  -1.408  -0.258  0.00  0.00    +0.117 A 
ATOM      9  N   UNL     1      -4.911  -0.512  -0.263  0.00  0.00    -0.215 NA
ATOM     10  C   UNL     1      -5.117   0.712  -0.707  0.00  0.00    +0.178 A 
ATOM     11  C   UNL     1      -8.515  -4.636   0.002  0.00  0.00    +0.046 C 
ATOM     12  C   UNL     1     -10.005  -4.293  -0.137  0.00  0.00    -0.009 C 
ATOM     13  C   UNL     1     -10.195  -3.422  -1.383  0.00  0.00    +0.008 C 
ATOM     14  C   UNL     1      -9.594  -2.037  -1.144  0.00  0.00    +0.037 C 
ATOM     15  C   UNL     1     -10.820  -5.580  -0.282  0.00  0.00    +0.008 C 
ENDROOT
BRANCH   1  22
ATOM     16  C   UNL     1      -7.192   3.074   0.668  0.00  0.00    +0.046 C 
ATOM     17  C   UNL     1      -6.939   3.394  -0.783  0.00  0.00    -0.026 A 
ATOM     18  C   UNL     1      -7.118   4.682  -1.248  0.00  0.00    +0.005 A 
ATOM     19  C   UNL     1      -6.887   4.976  -2.579  0.00  0.00    +0.000 A 
ATOM     20  C   UNL     1      -6.475   3.983  -3.448  0.00  0.00    +0.002 A 
ATOM     21  C   UNL     1      -6.288   2.694  -2.988  0.00  0.00    +0.026 A 
ATOM     22  C   UNL     1      -6.525   2.394  -1.653  0.00  0.00    +0.055 A 
ENDBRANCH   1  22
BRANCH  10  23
ATOM     23  S   UNL     1      -3.795   1.877  -0.691  0.00  0.00    -0.075 S 
BRANCH  23  24
ATOM     24  C   UNL     1      -2.482   0.853   0.018  0.00  0.00    +0.137 C 
ATOM     25  C   UNL     1      -2.849   0.476   1.455  0.00  0.00    +0.029 C 
BRANCH  24  26
ATOM     26  C   UNL     1      -1.187   1.624   0.017  0.00  0.00    +0.233 C 
ATOM     27  O   UNL     1      -1.204   2.836   0.023  0.00  0.00    -0.274 OA
ATOM     28  N   UNL     1      -0.011   0.966   0.007  0.00  0.00    -0.239 N 
ATOM     29  C   UNL     1       1.147   1.655   0.000  0.00  0.00    +0.303 C 
ATOM     30  O   UNL     1       1.130   2.871   0.007  0.00  0.00    -0.253 OA
ATOM     31  N   UNL     1       2.323   0.998  -0.015  0.00  0.00    -0.313 N 
ATOM     32  H   UNL     1       0.002  -0.004   0.002  0.00  0.00    +0.159 HD
ATOM     33  H   UNL     1       2.336   0.028  -0.020  0.00  0.00    +0.146 HD
ATOM     34  H   UNL     1       3.156   1.494  -0.020  0.00  0.00    +0.146 HD
ENDBRANCH  24  26
ENDBRANCH  23  24
ENDBRANCH  10  23
TORSDOF 4
