REMARK  Name = ZINC39855959
REMARK  7 active torsions:
REMARK  status: ('A' for Active; 'I' for Inactive)
REMARK    1  A    between atoms: C_1  and  C_2
REMARK    2  A    between atoms: C_7  and  N_8
REMARK    3  A    between atoms: C_9  and  C_11
REMARK    4  A    between atoms: C_12  and  C_27
REMARK    5  A    between atoms: C_17  and  C_25
REMARK    6  A    between atoms: C_17  and  C_26
REMARK    7  A    between atoms: N_20  and  N_21
REMARK                            x       y       z     vdW  Elec       q    Type
REMARK                         _______ _______ _______ _____ _____    ______ ____
ROOT
ATOM      1  C   UNL     1      -0.166   0.033   4.847  0.00  0.00    +0.193 A 
ATOM      2  C   UNL     1      -0.249  -0.534   6.088  0.00  0.00    +0.009 A 
ATOM      3  C   UNL     1      -0.337   0.526   6.998  0.00  0.00    +0.043 A 
ATOM      4  C   UNL     1      -0.304   1.694   6.275  0.00  0.00    +0.116 A 
ATOM      5  O   UNL     1      -0.194   1.378   4.987  0.00  0.00    -0.454 OA
ATOM      6  C   UNL     1      -0.383   3.057   6.915  0.00  0.00    +0.081 C 
ATOM      7  C   UNL     1      -1.000   2.930   8.310  0.00  0.00    -0.023 C 
ATOM      8  C   UNL     1      -0.252   1.879   9.138  0.00  0.00    +0.064 C 
ATOM      9  C   UNL     1      -0.445   0.524   8.475  0.00  0.00    +0.073 C 
ATOM     10  N   UNL     1      -0.687  -0.555   9.153  0.00  0.00    -0.175 NA
ATOM     11  C   UNL     1      -0.922   4.282   9.022  0.00  0.00    +0.011 C 
ATOM     12  C   UNL     1      -2.466   2.515   8.177  0.00  0.00    +0.011 C 
ATOM     13  C   UNL     1      -0.249  -2.006   6.411  0.00  0.00    +0.048 C 
ENDROOT
BRANCH  10  14
ATOM     14  N   UNL     1      -0.779  -0.498  10.550  0.00  0.00    -0.248 N 
ATOM     15  C   UNL     1      -1.034  -1.637  11.266  0.00  0.00    +0.187 C 
ATOM     16  N   UNL     1      -1.121  -1.582  12.595  0.00  0.00    -0.370 N 
ATOM     17  N   UNL     1      -1.196  -2.799  10.635  0.00  0.00    -0.370 N 
ATOM     18  H   UNL     1      -0.661   0.348  11.010  0.00  0.00    +0.192 HD
ATOM     19  H   UNL     1      -1.004  -0.736  13.055  0.00  0.00    +0.159 HD
ATOM     20  H   UNL     1      -1.132  -2.838   9.668  0.00  0.00    +0.159 HD
ATOM     21  H   UNL     1      -1.377  -3.605  11.142  0.00  0.00    +0.159 HD
ATOM     22  H   UNL     1      -1.302  -2.389  13.102  0.00  0.00    +0.159 HD
ENDBRANCH  10  14
BRANCH   1  24
ATOM     23  N   UNL     1       0.025  -0.015   2.417  0.00  0.00    -0.279 N 
ATOM     24  C   UNL     1      -0.057  -0.694   3.578  0.00  0.00    +0.284 C 
ATOM     25  O   UNL     1      -0.040  -1.911   3.573  0.00  0.00    -0.266 OA
ATOM     26  H   UNL     1       0.077   0.954   2.424  0.00  0.00    +0.155 HD
BRANCH  23  33
ATOM     27  C   UNL     1      -1.266   1.183   0.182  0.00  0.00    +0.046 C 
ATOM     28  C   UNL     1      -0.585  -0.158   0.085  0.00  0.00    -0.028 A 
ATOM     29  C   UNL     1      -0.570  -0.841  -1.116  0.00  0.00    +0.025 A 
ATOM     30  C   UNL     1       0.055  -2.072  -1.206  0.00  0.00    +0.041 A 
ATOM     31  C   UNL     1       0.667  -2.623  -0.094  0.00  0.00    +0.022 A 
ATOM     32  C   UNL     1       0.656  -1.944   1.109  0.00  0.00    +0.025 A 
ATOM     33  C   UNL     1       0.033  -0.706   1.201  0.00  0.00    +0.037 A 
ATOM     34 CL   UNL     1       0.071  -2.927  -2.716  0.00  0.00    -0.084 Cl
ENDBRANCH  23  33
ENDBRANCH   1  24
TORSDOF 3
