REMARK  Name = ZINC59359375
REMARK  13 active torsions:
REMARK  status: ('A' for Active; 'I' for Inactive)
REMARK    1  A    between atoms: C_1  and  C_2
REMARK    2  A    between atoms: C_2  and  C_3
REMARK    3  A    between atoms: C_4  and  C_32
REMARK    4  A    between atoms: C_5  and  C_31
REMARK    5  A    between atoms: C_8  and  C_9
REMARK    6  A    between atoms: N_14  and  S_17
REMARK    7  A    between atoms: S_17  and  C_20
REMARK    8  A    between atoms: C_21  and  C_30
REMARK    9  A    between atoms: C_22  and  C_29
REMARK   10  A    between atoms: C_23  and  C_28
REMARK   11  A    between atoms: C_24  and  C_27
REMARK   12  A    between atoms: C_25  and  C_26
REMARK   13  A    between atoms: C_32  and  C_34
REMARK                            x       y       z     vdW  Elec       q    Type
REMARK                         _______ _______ _______ _____ _____    ______ ____
ROOT
ATOM      1  C   UNL     1       3.025  -1.504  -3.103  0.00  0.00    +0.263 C 
ATOM      2  O   UNL     1       2.203  -1.260  -2.240  0.00  0.00    -0.268 OA
ATOM      3  N   UNL     1       4.338  -1.512  -2.800  0.00  0.00    -0.294 N 
ATOM      4  C   UNL     1       5.335  -1.903  -3.806  0.00  0.00    +0.125 C 
ATOM      5  C   UNL     1       6.362  -0.772  -3.945  0.00  0.00    +0.128 C 
ATOM      6  N   UNL     1       6.822  -0.388  -2.603  0.00  0.00    -0.174 NA
ATOM      7  C   UNL     1       5.824   0.004  -1.598  0.00  0.00    +0.128 C 
ATOM      8  C   UNL     1       4.799  -1.122  -1.460  0.00  0.00    +0.125 C 
ENDROOT
BRANCH   1  14
ATOM      9  C   UNL     1       2.567  -3.019  -5.065  0.00  0.00    -0.007 A 
ATOM     10  C   UNL     1       2.070  -2.840  -6.378  0.00  0.00    +0.041 A 
ATOM     11  C   UNL     1       1.811  -1.486  -6.531  0.00  0.00    +0.024 A 
ATOM     12  N   UNL     1       2.126  -0.865  -5.385  0.00  0.00    -0.354 N 
ATOM     13  H   UNL     1       2.040   0.088  -5.222  0.00  0.00    +0.166 HD
ATOM     14  C   UNL     1       2.586  -1.792  -4.475  0.00  0.00    +0.106 A 
ATOM     15  C   UNL     1       1.267  -0.827  -7.772  0.00  0.00    +0.064 C 
BRANCH  10  16
ATOM     16  C   UNL     1       1.869  -3.885  -7.386  0.00  0.00    +0.162 C 
ATOM     17  O   UNL     1       0.839  -4.526  -7.398  0.00  0.00    -0.292 OA
ATOM     18  C   UNL     1       2.942  -4.166  -8.406  0.00  0.00    +0.091 C 
ENDBRANCH  10  16
BRANCH   9  20
ATOM     19  C   UNL     1       1.787  -4.971  -3.749  0.00  0.00    +0.009 C 
ATOM     20  C   UNL     1       2.990  -4.322  -4.437  0.00  0.00    +0.035 C 
ENDBRANCH   9  20
ENDBRANCH   1  14
BRANCH   6  21
ATOM     21  S   UNL     1       8.435  -0.397  -2.231  0.00  0.00    +0.061 S 
ATOM     22  O   UNL     1       8.526  -0.541  -0.821  0.00  0.00    -0.153 OA
ATOM     23  O   UNL     1       9.055  -1.305  -3.132  0.00  0.00    -0.153 OA
BRANCH  21  24
ATOM     24  C   UNL     1       9.068   1.202  -2.615  0.00  0.00    +0.112 A 
ATOM     25  C   UNL     1       9.408   2.074  -1.598  0.00  0.00    -0.021 A 
ATOM     26  C   UNL     1       9.904   3.328  -1.899  0.00  0.00    -0.043 A 
ATOM     27  C   UNL     1      10.060   3.712  -3.218  0.00  0.00    -0.044 A 
ATOM     28  C   UNL     1       9.720   2.840  -4.236  0.00  0.00    -0.043 A 
ATOM     29  C   UNL     1       9.228   1.584  -3.934  0.00  0.00    -0.021 A 
ATOM     30  C   UNL     1       8.862   0.632  -5.044  0.00  0.00    +0.046 C 
ATOM     31  C   UNL     1       9.889   3.258  -5.674  0.00  0.00    +0.044 C 
ATOM     32  C   UNL     1      10.600   5.080  -3.547  0.00  0.00    +0.044 C 
ATOM     33  C   UNL     1      10.275   4.278  -0.790  0.00  0.00    +0.044 C 
ATOM     34  C   UNL     1       9.239   1.656  -0.160  0.00  0.00    +0.046 C 
ENDBRANCH  21  24
ENDBRANCH   6  21
TORSDOF 5
