REMARK  Name = ZINC06679196
REMARK  5 active torsions:
REMARK  status: ('A' for Active; 'I' for Inactive)
REMARK    1  A    between atoms: C_1  and  C_2
REMARK    2  A    between atoms: N_5  and  C_7
REMARK    3  A    between atoms: C_17  and  C_29
REMARK    4  A    between atoms: C_20  and  C_22
REMARK    5  A    between atoms: C_25  and  O_28
REMARK                            x       y       z     vdW  Elec       q    Type
REMARK                         _______ _______ _______ _____ _____    ______ ____
ROOT
ATOM      1  C   UNL     1       0.221   1.496  -0.006  0.00  0.00    +0.068 C 
ATOM      2  C   UNL     1       0.109  -0.007  -0.005  0.00  0.00    +0.067 A 
ATOM      3  C   UNL     1      -0.091  -0.816  -1.144  0.00  0.00    +0.033 A 
ATOM      4  C   UNL     1      -0.137  -2.103  -0.734  0.00  0.00    +0.133 A 
ATOM      5  N   UNL     1       0.035  -2.096   0.633  0.00  0.00    -0.218 N 
ATOM      6  N   UNL     1       0.188  -0.773   1.046  0.00  0.00    -0.170 NA
ATOM      7  N   UNL     1      -0.315  -3.279  -1.421  0.00  0.00    -0.269 N 
ATOM      8  C   UNL     1      -0.450  -3.598  -2.674  0.00  0.00    +0.231 C 
ATOM      9  O   UNL     1      -0.484  -4.790  -2.895  0.00  0.00    -0.274 OA
ATOM     10  C   UNL     1      -0.570  -2.740  -3.871  0.00  0.00    +0.130 C 
ATOM     11  S   UNL     1       0.480  -1.282  -3.798  0.00  0.00    -0.135 S 
ATOM     12  C   UNL     1      -0.216  -0.234  -2.517  0.00  0.00    +0.112 C 
ATOM     13  C   UNL     1      -2.025  -2.290  -4.011  0.00  0.00    +0.029 C 
ATOM     14  H   UNL     1      -0.347  -4.051  -0.835  0.00  0.00    +0.156 HD
ENDROOT
BRANCH   5  15
ATOM     15  C   UNL     1       0.057  -3.225   1.464  0.00  0.00    +0.068 A 
ATOM     16  C   UNL     1       0.765  -4.356   1.082  0.00  0.00    +0.030 A 
ATOM     17  C   UNL     1       0.786  -5.467   1.903  0.00  0.00    +0.040 A 
ATOM     18  C   UNL     1       0.101  -5.453   3.106  0.00  0.00    +0.124 A 
ATOM     19  C   UNL     1      -0.607  -4.325   3.489  0.00  0.00    +0.040 A 
ATOM     20  C   UNL     1      -0.625  -3.211   2.674  0.00  0.00    +0.030 A 
ATOM     21  F   UNL     1       0.121  -6.540   3.907  0.00  0.00    -0.205 F 
ENDBRANCH   5  15
BRANCH  12  22
ATOM     22  C   UNL     1       0.490   1.097  -2.545  0.00  0.00    -0.030 A 
ATOM     23  C   UNL     1       1.843   1.166  -2.266  0.00  0.00    +0.008 A 
ATOM     24  C   UNL     1       2.492   2.385  -2.290  0.00  0.00    +0.046 A 
ATOM     25  C   UNL     1       1.786   3.540  -2.595  0.00  0.00    +0.117 A 
ATOM     26  C   UNL     1       0.429   3.467  -2.874  0.00  0.00    +0.046 A 
ATOM     27  C   UNL     1      -0.214   2.245  -2.854  0.00  0.00    +0.008 A 
BRANCH  25  28
ATOM     28  O   UNL     1       2.423   4.740  -2.619  0.00  0.00    -0.507 OA
ATOM     29  H   UNL     1       2.790   4.974  -3.482  0.00  0.00    +0.292 HD
ENDBRANCH  25  28
ENDBRANCH  12  22
TORSDOF 3
