REMARK  Name = ZINC03296079
REMARK  7 active torsions:
REMARK  status: ('A' for Active; 'I' for Inactive)
REMARK    1  A    between atoms: C_1  and  C_2
REMARK    2  A    between atoms: C_2  and  C_4
REMARK    3  A    between atoms: C_2  and  S_18
REMARK    4  A    between atoms: C_9  and  C_12
REMARK    5  A    between atoms: S_18  and  C_19
REMARK    6  A    between atoms: N_32  and  C_33
REMARK    7  A    between atoms: C_33  and  C_34
REMARK                            x       y       z     vdW  Elec       q    Type
REMARK                         _______ _______ _______ _____ _____    ______ ____
ROOT
ATOM      1  S   UNL     1       0.879  -0.605   1.472  0.00  0.00    -0.073 S 
ENDROOT
BRANCH   1   2
ATOM      2  C   UNL     1      -0.136  -0.087   2.816  0.00  0.00    +0.198 A 
ATOM      3  N   UNL     1      -1.263   0.574   2.719  0.00  0.00    -0.120 NA
ATOM      4  N   UNL     1      -1.752   0.789   4.013  0.00  0.00    -0.109 NA
ATOM      5  C   UNL     1      -0.907   0.251   4.864  0.00  0.00    +0.240 A 
ATOM      6  N   UNL     1       0.112  -0.310   4.143  0.00  0.00    -0.256 N 
ATOM      7  C   UNL     1       1.160  -0.963   4.788  0.00  0.00    +0.064 A 
ATOM      8  C   UNL     1       2.199  -1.531   4.067  0.00  0.00    +0.027 A 
ATOM      9  C   UNL     1       3.226  -2.172   4.732  0.00  0.00    +0.002 A 
ATOM     10  C   UNL     1       3.228  -2.254   6.115  0.00  0.00    +0.001 A 
ATOM     11  C   UNL     1       2.203  -1.695   6.848  0.00  0.00    +0.015 A 
ATOM     12  C   UNL     1       1.161  -1.045   6.189  0.00  0.00    +0.064 A 
ATOM     13  C   UNL     1       0.046  -0.434   6.936  0.00  0.00    +0.263 A 
ATOM     14  O   UNL     1       0.013  -0.485   8.151  0.00  0.00    -0.267 OA
ATOM     15  N   UNL     1      -0.932   0.192   6.249  0.00  0.00    -0.273 N 
BRANCH  15  16
ATOM     16  C   UNL     1      -2.047   0.802   6.977  0.00  0.00    +0.155 C 
BRANCH  16  17
ATOM     17  C   UNL     1      -3.143  -0.216   7.161  0.00  0.00    -0.013 C 
ATOM     18  C   UNL     1      -3.597  -0.480   8.361  0.00  0.00    +0.005 C 
ENDBRANCH  16  17
ENDBRANCH  15  16
ENDBRANCH   1   2
BRANCH   1  20
ATOM     19  C   UNL     1      -0.019   1.526   0.010  0.00  0.00    +0.029 C 
ATOM     20  C   UNL     1       0.002  -0.004   0.002  0.00  0.00    +0.137 C 
BRANCH  20  21
ATOM     21  C   UNL     1       0.707  -0.490  -1.238  0.00  0.00    +0.232 C 
ATOM     22  O   UNL     1       1.864  -0.849  -1.176  0.00  0.00    -0.274 OA
ATOM     23  N   UNL     1       0.053  -0.526  -2.415  0.00  0.00    -0.264 N 
ATOM     24  C   UNL     1       0.703  -0.974  -3.558  0.00  0.00    +0.165 A 
ATOM     25  N   UNL     1       0.246  -1.080  -4.792  0.00  0.00    -0.225 NA
ATOM     26  C   UNL     1       1.013  -1.531  -5.774  0.00  0.00    +0.080 A 
ATOM     27  C   UNL     1       2.302  -1.896  -5.503  0.00  0.00    +0.076 A 
ATOM     28  S   UNL     1       2.383  -1.553  -3.750  0.00  0.00    -0.060 S 
ATOM     29  H   UNL     1      -0.873  -0.239  -2.465  0.00  0.00    +0.157 HD
BRANCH  26  30
ATOM     30  C   UNL     1       0.477  -1.641  -7.152  0.00  0.00    +0.001 A 
ATOM     31  C   UNL     1       1.285  -2.123  -8.180  0.00  0.00    +0.010 A 
ATOM     32  C   UNL     1       0.781  -2.224  -9.461  0.00  0.00    +0.001 A 
ATOM     33  C   UNL     1      -0.524  -1.847  -9.726  0.00  0.00    +0.000 A 
ATOM     34  C   UNL     1      -1.330  -1.367  -8.709  0.00  0.00    +0.001 A 
ATOM     35  C   UNL     1      -0.839  -1.269  -7.423  0.00  0.00    +0.010 A 
ENDBRANCH  26  30
ENDBRANCH  20  21
ENDBRANCH   1  20
TORSDOF 6
