REMARK  Name = ZINC16915626
REMARK  7 active torsions:
REMARK  status: ('A' for Active; 'I' for Inactive)
REMARK    1  A    between atoms: C_1  and  C_2
REMARK    2  A    between atoms: C_7  and  C_18
REMARK    3  A    between atoms: C_11  and  C_12
REMARK    4  A    between atoms: C_11  and  N_77
REMARK    5  A    between atoms: C_19  and  C_21
REMARK    6  A    between atoms: C_27  and  C_28
REMARK    7  A    between atoms: C_27  and  C_34
REMARK                            x       y       z     vdW  Elec       q    Type
REMARK                         _______ _______ _______ _____ _____    ______ ____
ROOT
ATOM      1  C   UNL     1       6.628  -2.073  -3.783  0.00  0.00    +0.009 C 
ATOM      2  C   UNL     1       5.204  -1.686  -3.378  0.00  0.00    -0.045 C 
ATOM      3  C   UNL     1       4.378  -2.892  -3.742  0.00  0.00    +0.024 C 
ATOM      4  C   UNL     1       2.960  -2.578  -4.170  0.00  0.00    +0.108 C 
ATOM      5  N   UNL     1       2.358  -1.466  -3.500  0.00  0.00    -0.301 N 
ATOM      6  C   UNL     1       2.479  -0.084  -3.917  0.00  0.00    +0.112 C 
ATOM      7  C   UNL     1       3.852   0.439  -3.500  0.00  0.00    -0.031 C 
ATOM      8  C   UNL     1       4.922  -0.433  -4.168  0.00  0.00    +0.011 C 
ATOM      9  C   UNL     1       3.997   0.532  -1.998  0.00  0.00    -0.070 C 
ATOM     10  C   UNL     1       5.292  -1.478  -1.880  0.00  0.00    -0.072 C 
ATOM     11  C   UNL     1       3.981   1.853  -4.071  0.00  0.00    +0.011 C 
ATOM     12  C   UNL     1       1.613  -1.732  -2.409  0.00  0.00    +0.224 C 
ATOM     13  O   UNL     1       1.264  -0.830  -1.677  0.00  0.00    -0.275 OA
ATOM     14  N   UNL     1       4.064  -0.816  -1.413  0.00  0.00    +0.383 N 
ATOM     15  H   UNL     1       3.248  -1.359  -1.720  0.00  0.00    -0.081 HD
ENDROOT
BRANCH  12  16
ATOM     16  C   UNL     1       1.212  -3.151  -2.099  0.00  0.00    +0.139 C 
ATOM     17  C   UNL     1       2.454  -4.009  -1.766  0.00  0.00    +0.138 C 
ATOM     18  C   UNL     1       2.224  -5.285  -2.560  0.00  0.00    +0.309 C 
ATOM     19  O   UNL     1       2.599  -6.394  -2.259  0.00  0.00    -0.251 OA
ATOM     20  O   UNL     1       1.524  -4.950  -3.659  0.00  0.00    -0.448 OA
ATOM     21  C   UNL     1       0.633  -3.841  -3.351  0.00  0.00    +0.175 C 
BRANCH  21  22
ATOM     22  C   UNL     1      -0.754  -4.355  -3.063  0.00  0.00    +0.001 A 
ATOM     23  C   UNL     1      -1.705  -3.512  -2.519  0.00  0.00    +0.008 A 
ATOM     24  C   UNL     1      -2.978  -3.983  -2.259  0.00  0.00    +0.000 A 
ATOM     25  C   UNL     1      -3.298  -5.299  -2.535  0.00  0.00    +0.000 A 
ATOM     26  C   UNL     1      -2.346  -6.144  -3.074  0.00  0.00    +0.000 A 
ATOM     27  C   UNL     1      -1.074  -5.671  -3.338  0.00  0.00    +0.008 A 
ENDBRANCH  21  22
BRANCH  21  28
ATOM     28  C   UNL     1       0.596  -2.871  -4.505  0.00  0.00    +0.001 A 
ATOM     29  C   UNL     1       0.109  -1.591  -4.317  0.00  0.00    +0.008 A 
ATOM     30  C   UNL     1       0.080  -0.701  -5.374  0.00  0.00    +0.000 A 
ATOM     31  C   UNL     1       0.529  -1.093  -6.621  0.00  0.00    +0.000 A 
ATOM     32  C   UNL     1       1.012  -2.375  -6.810  0.00  0.00    +0.000 A 
ATOM     33  C   UNL     1       1.045  -3.264  -5.752  0.00  0.00    +0.008 A 
ENDBRANCH  21  28
ENDBRANCH  12  16
BRANCH  14  34
ATOM     34  C   UNL     1       4.058  -0.731   0.067  0.00  0.00    -0.043 C 
BRANCH  34  35
ATOM     35  C   UNL     1       2.654  -0.460   0.541  0.00  0.00    -0.064 A 
ATOM     36  C   UNL     1       1.826  -1.512   0.886  0.00  0.00    +0.002 A 
ATOM     37  C   UNL     1       0.538  -1.264   1.321  0.00  0.00    +0.000 A 
ATOM     38  C   UNL     1       0.077   0.036   1.411  0.00  0.00    +0.000 A 
ATOM     39  C   UNL     1       0.904   1.088   1.066  0.00  0.00    +0.000 A 
ATOM     40  C   UNL     1       2.192   0.840   0.630  0.00  0.00    +0.002 A 
ENDBRANCH  34  35
ENDBRANCH  14  34
TORSDOF 5
