REMARK  Name = ZINC35361903
REMARK  11 active torsions:
REMARK  status: ('A' for Active; 'I' for Inactive)
REMARK    1  A    between atoms: C_1  and  C_2
REMARK    2  A    between atoms: C_13  and  O_15
REMARK    3  A    between atoms: N_21  and  O_22
REMARK    4  A    between atoms: O_22  and  C_23
REMARK    5  A    between atoms: C_23  and  C_24
REMARK    6  A    between atoms: N_26  and  C_27
REMARK    7  A    between atoms: C_27  and  C_29
REMARK    8  A    between atoms: C_27  and  C_38
REMARK    9  A    between atoms: C_29  and  C_31
REMARK   10  A    between atoms: C_29  and  O_37
REMARK   11  A    between atoms: C_43  and  C_44
REMARK                            x       y       z     vdW  Elec       q    Type
REMARK                         _______ _______ _______ _____ _____    ______ ____
ROOT
ATOM      1  C   UNK A   0      -0.019   1.522   0.010  0.00  0.00    +0.014 C 
ATOM      2  C   UNK A   0       0.002  -0.004   0.002  0.00  0.00    -0.003 C 
ATOM      3  C   UNK A   0      -1.410  -0.536  -0.057  0.00  0.00    +0.010 C 
ATOM      4  C   UNK A   0      -2.132  -0.129   1.244  0.00  0.00    +0.005 C 
ATOM      5  C   UNK A   0      -1.411  -0.676   2.460  0.00  0.00    +0.002 C 
ATOM      6  C   UNK A   0       0.065  -0.307   2.527  0.00  0.00    -0.003 C 
ATOM      7  C   UNK A   0       0.727  -0.625   1.212  0.00  0.00    +0.001 C 
ATOM      8  C   UNK A   0       2.165  -0.136   0.995  0.00  0.00    +0.007 C 
ATOM      9  C   UNK A   0       2.354  -0.327  -0.537  0.00  0.00    +0.032 C 
ATOM     10  C   UNK A   0       0.931  -0.440  -1.145  0.00  0.00    +0.121 C 
ATOM     11  C   UNK A   0       0.387   1.077   3.043  0.00  0.00    +0.008 C 
ATOM     12  C   UNK A   0      -0.829   1.772   3.653  0.00  0.00    +0.031 C 
ATOM     13  C   UNK A   0      -1.549   0.741   4.489  0.00  0.00    -0.062 C 
ATOM     14  C   UNK A   0      -1.649   0.870   5.800  0.00  0.00    +0.026 C 
ATOM     15  C   UNK A   0      -2.317  -0.156   6.610  0.00  0.00    +0.080 C 
ATOM     16  N   UNK A   0      -2.540   0.063   7.869  0.00  0.00    -0.089 NA
ATOM     17  C   UNK A   0      -2.731  -1.466   5.991  0.00  0.00    +0.059 C 
ATOM     18  C   UNK A   0      -2.000  -1.681   4.667  0.00  0.00    +0.017 C 
ATOM     19  C   UNK A   0      -2.144  -0.445   3.771  0.00  0.00    -0.007 C 
ATOM     20  C   UNK A   0      -3.632  -0.177   3.530  0.00  0.00    +0.016 C 
ENDROOT
BRANCH  10  21
ATOM     21  O   UNK A   0       0.786   0.448  -2.251  0.00  0.00    -0.391 OA
ATOM     22  H   UNK A   0       1.345   0.228  -3.008  0.00  0.00    +0.210 HD
ENDBRANCH  10  21
BRANCH  16  23
ATOM     23  O   UNK A   0      -3.184  -0.923   8.656  0.00  0.00    -0.384 OA
BRANCH  23  24
ATOM     24  C   UNK A   0      -3.364  -0.549  10.023  0.00  0.00    +0.358 C 
BRANCH  24  25
ATOM     25  C   UNK A   0      -4.055  -1.666  10.762  0.00  0.00    +0.254 C 
ATOM     26  O   UNK A   0      -4.363  -2.682  10.176  0.00  0.00    -0.272 OA
ATOM     27  N   UNK A   1      -4.331  -1.536  12.075  0.00  0.00    -0.297 N 
ATOM     28  H   UNK A   1      -4.085  -0.723  12.544  0.00  0.00    +0.150 HD
BRANCH  27  29
ATOM     29  C   UNK A   1      -5.003  -2.622  12.793  0.00  0.00    +0.220 C 
BRANCH  29  30
ATOM     30  C   UNK A   1      -6.494  -2.495  12.615  0.00  0.00    +0.379 C 
ATOM     31  O   UNK A   1      -7.196  -3.492  12.625  0.00  0.00    -0.244 OA
ATOM     32  O   UNK A   1      -6.998  -1.396  12.461  0.00  0.00    -0.244 OA
ENDBRANCH  29  30
BRANCH  29  33
ATOM     33  C   UNK A   1      -4.658  -2.538  14.282  0.00  0.00    +0.176 C 
BRANCH  33  34
ATOM     34  C   UNK A   1      -3.161  -2.541  14.452  0.00  0.00    -0.017 A 
ATOM     35  C   UNK A   1      -2.453  -1.357  14.362  0.00  0.00    +0.006 A 
ATOM     36  C   UNK A   1      -1.079  -1.360  14.518  0.00  0.00    +0.000 A 
ATOM     37  C   UNK A   1      -0.413  -2.546  14.764  0.00  0.00    +0.000 A 
ATOM     38  C   UNK A   1      -1.122  -3.730  14.854  0.00  0.00    +0.000 A 
ATOM     39  C   UNK A   1      -2.496  -3.727  14.703  0.00  0.00    +0.006 A 
ENDBRANCH  33  34
BRANCH  33  40
ATOM     40  O   UNK A   1      -5.197  -1.333  14.829  0.00  0.00    -0.385 OA
ATOM     41  H   UNK A   1      -4.861  -0.527  14.412  0.00  0.00    +0.210 HD
ENDBRANCH  33  40
ENDBRANCH  29  33
ENDBRANCH  27  29
ENDBRANCH  24  25
ENDBRANCH  23  24
ENDBRANCH  16  23
TORSDOF 9
