REMARK  Name = ZINC05093681
REMARK  8 active torsions:
REMARK  status: ('A' for Active; 'I' for Inactive)
REMARK    1  A    between atoms: C_1  and  C_2
REMARK    2  A    between atoms: C_2  and  C_3
REMARK    3  A    between atoms: C_3  and  C_4
REMARK    4  A    between atoms: C_6  and  C_28
REMARK    5  A    between atoms: C_8  and  C_22
REMARK    6  A    between atoms: C_10  and  C_21
REMARK    7  A    between atoms: C_12  and  C_13
REMARK    8  A    between atoms: C_12  and  O_20
REMARK                            x       y       z     vdW  Elec       q    Type
REMARK                         _______ _______ _______ _____ _____    ______ ____
ROOT
ATOM      1  C   UNL     1       0.140   1.341   0.137  0.00  0.00    +0.016 C 
ATOM      2  C   UNL     1      -0.041  -0.162  -0.086  0.00  0.00    -0.034 C 
ATOM      3  C   UNL     1       1.919  -0.654   1.251  0.00  0.00    -0.034 C 
ATOM      4  C   UNL     1       2.159   0.834   1.514  0.00  0.00    +0.013 C 
ATOM      5  C   UNL     1       1.628   1.648   0.331  0.00  0.00    +0.094 C 
ATOM      6  C   UNL     1       1.427   1.252   2.791  0.00  0.00    +0.009 C 
ATOM      7  N   UNL     1       0.475  -0.903   1.081  0.00  0.00    +0.389 N 
ATOM      8  H   UNL     1       0.319  -1.908   0.938  0.00  0.00    -0.084 HD
ATOM      9  H   UNL     1      -0.023  -0.596   1.924  0.00  0.00    -0.084 HD
ENDROOT
BRANCH   5  10
ATOM     10  C   UNL     1       1.806   3.118   0.610  0.00  0.00    -0.016 A 
ATOM     11  C   UNL     1       0.973   4.042   0.009  0.00  0.00    +0.009 A 
ATOM     12  C   UNL     1       1.132   5.390   0.268  0.00  0.00    +0.039 A 
ATOM     13  C   UNL     1       2.135   5.816   1.123  0.00  0.00    +0.123 A 
ATOM     14  C   UNL     1       2.973   4.890   1.720  0.00  0.00    +0.039 A 
ATOM     15  C   UNL     1       2.808   3.542   1.464  0.00  0.00    +0.009 A 
ATOM     16  F   UNL     1       2.296   7.134   1.373  0.00  0.00    -0.205 F 
ENDBRANCH   5  10
BRANCH   3  17
ATOM     17  C   UNL     1       2.422  -1.458   2.422  0.00  0.00    -0.061 A 
ATOM     18  C   UNL     1       1.655  -1.567   3.567  0.00  0.00    +0.002 A 
ATOM     19  C   UNL     1       2.114  -2.309   4.639  0.00  0.00    +0.000 A 
ATOM     20  C   UNL     1       3.346  -2.933   4.571  0.00  0.00    +0.000 A 
ATOM     21  C   UNL     1       4.116  -2.819   3.429  0.00  0.00    +0.000 A 
ATOM     22  C   UNL     1       3.654  -2.082   2.354  0.00  0.00    +0.002 A 
ENDBRANCH   3  17
BRANCH   2  23
ATOM     23  C   UNL     1       0.709  -0.580  -1.325  0.00  0.00    -0.061 A 
ATOM     24  C   UNL     1       0.754   0.260  -2.421  0.00  0.00    +0.002 A 
ATOM     25  C   UNL     1       1.447  -0.121  -3.556  0.00  0.00    +0.000 A 
ATOM     26  C   UNL     1       2.084  -1.347  -3.597  0.00  0.00    +0.000 A 
ATOM     27  C   UNL     1       2.034  -2.189  -2.502  0.00  0.00    +0.000 A 
ATOM     28  C   UNL     1       1.347  -1.805  -1.366  0.00  0.00    +0.002 A 
ENDBRANCH   2  23
BRANCH   5  29
ATOM     29  O   UNL     1       2.346   1.295  -0.853  0.00  0.00    -0.384 OA
ATOM     30  H   UNL     1       3.297   1.463  -0.800  0.00  0.00    +0.211 HD
ENDBRANCH   5  29
BRANCH   1  31
ATOM     31  C   UNL     1      -0.637   1.770   1.383  0.00  0.00    +0.005 C 
BRANCH  31  33
ATOM     32  C   UNL     1      -2.906   2.269   2.302  0.00  0.00    +0.004 C 
ATOM     33  C   UNL     1      -2.129   1.840   1.055  0.00  0.00    -0.003 C 
ENDBRANCH  31  33
ENDBRANCH   1  31
TORSDOF 6
