REMARK  Name = ZINC60241848
REMARK  6 active torsions:
REMARK  status: ('A' for Active; 'I' for Inactive)
REMARK    1  A    between atoms: C_1  and  C_2
REMARK    2  A    between atoms: C_2  and  C_3
REMARK    3  A    between atoms: C_2  and  C_4
REMARK    4  A    between atoms: C_2  and  N_12
REMARK    5  A    between atoms: C_13  and  C_15
REMARK    6  A    between atoms: C_15  and  N_16
REMARK                            x       y       z     vdW  Elec       q    Type
REMARK                         _______ _______ _______ _____ _____    ______ ____
ROOT
ATOM      1  C   UNL     1       2.418  -0.271  -2.955  0.00  0.00    +0.213 C 
ENDROOT
BRANCH   1   2
ATOM      2  N   UNL     1       3.831   0.115  -2.983  0.00  0.00    -0.215 N 
ATOM      3  C   UNL     1       4.277   1.345  -3.319  0.00  0.00    +0.251 C 
ATOM      4  O   UNL     1       3.612   2.305  -3.643  0.00  0.00    -0.272 OA
ATOM      5  C   UNL     1       5.777   1.268  -3.204  0.00  0.00    +0.138 C 
ATOM      6  C   UNL     1       6.308   2.282  -2.183  0.00  0.00    +0.045 C 
ATOM      7  C   UNL     1       6.703   3.474  -3.084  0.00  0.00    +0.038 C 
ATOM      8  C   UNL     1       6.988   2.869  -4.443  0.00  0.00    -0.042 A 
ATOM      9  C   UNL     1       6.450   1.594  -4.510  0.00  0.00    -0.012 A 
ATOM     10  C   UNL     1       6.592   0.851  -5.669  0.00  0.00    +0.006 A 
ATOM     11  C   UNL     1       7.265   1.374  -6.756  0.00  0.00    +0.000 A 
ATOM     12  C   UNL     1       7.800   2.647  -6.688  0.00  0.00    +0.000 A 
ATOM     13  C   UNL     1       7.661   3.391  -5.533  0.00  0.00    +0.004 A 
ATOM     14  N   UNL     1       6.045  -0.107  -2.782  0.00  0.00    -0.281 N 
ATOM     15  C   UNL     1       4.842  -0.707  -2.672  0.00  0.00    +0.310 C 
ATOM     16  O   UNL     1       4.693  -1.865  -2.333  0.00  0.00    -0.252 OA
ATOM     17  H   UNL     1       6.913  -0.505  -2.611  0.00  0.00    +0.152 HD
ENDBRANCH   1   2
BRANCH   1  19
ATOM     18  N   UNL     1       0.556  -0.272  -1.327  0.00  0.00    -0.305 N 
ATOM     19  C   UNL     1       1.849   0.005  -1.588  0.00  0.00    +0.232 C 
ATOM     20  O   UNL     1       2.554   0.477  -0.721  0.00  0.00    -0.274 OA
ATOM     21  H   UNL     1      -0.008  -0.650  -2.021  0.00  0.00    +0.150 HD
BRANCH  18  23
ATOM     22  C   UNL     1       0.156   1.483   0.328  0.00  0.00    +0.036 C 
ATOM     23  C   UNL     1       0.002  -0.004   0.002  0.00  0.00    +0.054 C 
ATOM     24  C   UNL     1       0.753  -0.835   1.044  0.00  0.00    +0.036 C 
BRANCH  23  25
ATOM     25  C   UNL     1      -1.459  -0.374   0.022  0.00  0.00    -0.023 A 
ATOM     26  C   UNL     1      -2.073  -0.699   1.217  0.00  0.00    +0.007 A 
ATOM     27  C   UNL     1      -3.412  -1.040   1.237  0.00  0.00    +0.022 A 
ATOM     28  C   UNL     1      -4.139  -1.055   0.060  0.00  0.00    +0.059 A 
ATOM     29  C   UNL     1      -3.524  -0.729  -1.137  0.00  0.00    +0.060 A 
ATOM     30  C   UNL     1      -2.185  -0.384  -1.154  0.00  0.00    +0.027 A 
ATOM     31 CL   UNL     1      -4.435  -0.748  -2.614  0.00  0.00    -0.082 Cl
ATOM     32 CL   UNL     1      -5.822  -1.483   0.084  0.00  0.00    -0.082 Cl
ENDBRANCH  23  25
ENDBRANCH  18  23
ENDBRANCH   1  19
TORSDOF 4
