REMARK  Name = ZINC39676589
REMARK  9 active torsions:
REMARK  status: ('A' for Active; 'I' for Inactive)
REMARK    1  A    between atoms: C_1  and  O_2
REMARK    2  A    between atoms: O_2  and  C_3
REMARK    3  A    between atoms: C_6  and  C_9
REMARK    4  A    between atoms: C_9  and  C_10
REMARK    5  A    between atoms: C_9  and  N_18
REMARK    6  A    between atoms: C_13  and  O_16
REMARK    7  A    between atoms: O_16  and  C_17
REMARK    8  A    between atoms: C_19  and  C_21
REMARK    9  A    between atoms: C_32  and  C_34
REMARK                            x       y       z     vdW  Elec       q    Type
REMARK                         _______ _______ _______ _____ _____    ______ ____
ROOT
ATOM      1  N   UNL     1       4.043  -2.279   4.293  0.00  0.00    -0.304 N 
ATOM      2  C   UNL     1       4.193  -2.963   3.142  0.00  0.00    +0.219 C 
ATOM      3  O   UNL     1       3.527  -2.670   2.171  0.00  0.00    -0.275 OA
ATOM      4  H   UNL     1       4.622  -2.468   5.048  0.00  0.00    +0.150 HD
ENDROOT
BRANCH   2   5
ATOM      5  C   UNL     1       5.187  -4.093   3.060  0.00  0.00    +0.100 C 
ATOM      6  C   UNL     1       4.759  -5.109   1.978  0.00  0.00    +0.121 C 
ATOM      7  N   UNL     1       5.502  -4.699   0.763  0.00  0.00    -0.300 N 
ATOM      8  C   UNL     1       6.840  -4.304   1.265  0.00  0.00    +0.115 C 
ATOM      9  C   UNL     1       6.555  -3.569   2.590  0.00  0.00    -0.004 C 
ATOM     10  C   UNL     1       7.630  -3.902   3.620  0.00  0.00    -0.010 C 
ATOM     11  C   UNL     1       8.970  -3.321   3.159  0.00  0.00    -0.082 C 
ATOM     12  N   UNL     1       8.846  -1.866   3.003  0.00  0.00    +0.379 N 
ATOM     13  C   UNL     1       7.878  -1.557   1.945  0.00  0.00    -0.082 C 
ATOM     14  C   UNL     1       6.492  -2.063   2.355  0.00  0.00    -0.010 C 
ATOM     15  C   UNL     1       5.061  -4.687  -0.510  0.00  0.00    +0.219 C 
ATOM     16  O   UNL     1       3.908  -4.975  -0.756  0.00  0.00    -0.275 OA
ATOM     17  H   UNL     1       8.534  -1.462   3.873  0.00  0.00    -0.086 HD
ATOM     18  H   UNL     1       9.745  -1.478   2.759  0.00  0.00    -0.086 HD
BRANCH  15  19
ATOM     19  C   UNL     1       6.000  -4.317  -1.629  0.00  0.00    +0.079 C 
ATOM     20  C   UNL     1       5.192  -3.855  -2.849  0.00  0.00    +0.017 C 
ATOM     21  C   UNL     1       6.166  -3.318  -3.900  0.00  0.00    +0.027 C 
ATOM     22  C   UNL     1       7.279  -4.301  -4.122  0.00  0.00    -0.031 C 
ATOM     23  C   UNL     1       7.569  -5.264  -3.308  0.00  0.00    -0.030 C 
ATOM     24  C   UNL     1       6.831  -5.538  -2.029  0.00  0.00    +0.039 C 
ENDBRANCH  15  19
ENDBRANCH   2   5
BRANCH   1  25
ATOM     25  C   UNL     1       3.007  -1.250   4.404  0.00  0.00    +0.134 C 
BRANCH  25  29
ATOM     26  C   UNL     1      -0.754  -3.102   5.235  0.00  0.00    +0.120 A 
ATOM     27  C   UNL     1      -0.667  -2.107   4.271  0.00  0.00    +0.046 A 
ATOM     28  C   UNL     1       0.550  -1.510   4.005  0.00  0.00    +0.009 A 
ATOM     29  C   UNL     1       1.680  -1.903   4.698  0.00  0.00    -0.023 A 
ATOM     30  C   UNL     1       1.596  -2.893   5.658  0.00  0.00    +0.009 A 
ATOM     31  C   UNL     1       0.381  -3.490   5.933  0.00  0.00    +0.046 A 
BRANCH  26  33
ATOM     32  C   UNL     1      -3.076  -3.241   4.743  0.00  0.00    +0.277 C 
ATOM     33  O   UNL     1      -1.950  -3.690   5.500  0.00  0.00    -0.495 OA
ENDBRANCH  26  33
ENDBRANCH  25  29
BRANCH  25  34
ATOM     34  C   UNL     1       3.358  -0.302   5.522  0.00  0.00    -0.023 A 
ATOM     35  C   UNL     1       3.902  -0.790   6.696  0.00  0.00    +0.009 A 
ATOM     36  C   UNL     1       4.225   0.077   7.722  0.00  0.00    +0.046 A 
ATOM     37  C   UNL     1       4.003   1.438   7.574  0.00  0.00    +0.120 A 
ATOM     38  C   UNL     1       3.456   1.925   6.395  0.00  0.00    +0.046 A 
ATOM     39  C   UNL     1       3.141   1.055   5.370  0.00  0.00    +0.009 A 
BRANCH  37  40
ATOM     40  O   UNL     1       4.319   2.293   8.582  0.00  0.00    -0.495 OA
ATOM     41  C   UNL     1       4.063   3.681   8.359  0.00  0.00    +0.277 C 
ENDBRANCH  37  40
ENDBRANCH  25  34
ENDBRANCH   1  25
TORSDOF 7
