REMARK  Name = ZINC27319864
REMARK  8 active torsions:
REMARK  status: ('A' for Active; 'I' for Inactive)
REMARK    1  A    between atoms: C_1  and  C_2
REMARK    2  A    between atoms: C_2  and  C_38
REMARK    3  A    between atoms: C_7  and  C_20
REMARK    4  A    between atoms: C_8  and  N_11
REMARK    5  A    between atoms: C_14  and  N_18
REMARK    6  A    between atoms: N_18  and  C_19
REMARK    7  A    between atoms: C_20  and  S_21
REMARK    8  A    between atoms: S_21  and  N_24
REMARK                            x       y       z     vdW  Elec       q    Type
REMARK                         _______ _______ _______ _____ _____    ______ ____
ROOT
ATOM      1  C   UNL     1       3.632   6.502   3.480  0.00  0.00    +0.012 C 
ATOM      2  C   UNL     1       3.420   5.214   4.279  0.00  0.00    -0.023 C 
ATOM      3  C   UNL     1       4.165   3.992   3.635  0.00  0.00    -0.003 C 
ATOM      4  C   UNL     1       3.443   3.909   2.255  0.00  0.00    +0.005 C 
ATOM      5  C   UNL     1       1.976   4.325   2.568  0.00  0.00    +0.011 C 
ATOM      6  C   UNL     1       1.970   4.640   4.095  0.00  0.00    +0.016 C 
ATOM      7  C   UNL     1       2.122   3.248   4.782  0.00  0.00    +0.085 C 
ATOM      8  C   UNL     1       3.576   2.819   4.477  0.00  0.00    +0.027 C 
ATOM      9  C   UNL     1       3.782   5.397   5.754  0.00  0.00    +0.012 C 
ENDROOT
BRANCH   7  10
ATOM     10  N   UNL     1       1.175   2.290   4.207  0.00  0.00    -0.299 N 
ATOM     11  C   UNL     1       0.935   2.124   2.769  0.00  0.00    +0.107 C 
ATOM     12  C   UNL     1       0.227   0.758   2.624  0.00  0.00    +0.012 C 
ATOM     13  C   UNL     1      -0.435   0.597   4.012  0.00  0.00    +0.017 C 
ATOM     14  C   UNL     1       0.415   1.448   4.930  0.00  0.00    +0.202 C 
ATOM     15  O   UNL     1       0.411   1.382   6.141  0.00  0.00    -0.277 OA
BRANCH  13  16
ATOM     16  N   UNL     1      -0.401  -0.808   4.438  0.00  0.00    +0.385 N 
ATOM     17  C   UNL     1      -1.423  -1.074   5.459  0.00  0.00    -0.099 C 
ATOM     18  H   UNL     1      -0.591  -1.459   3.571  0.00  0.00    -0.085 HD
ATOM     19  H   UNL     1       0.588  -1.040   4.861  0.00  0.00    -0.085 HD
ENDBRANCH  13  16
ENDBRANCH   7  10
BRANCH   6  20
ATOM     20  C   UNL     1       0.826   5.517   4.608  0.00  0.00    +0.194 C 
BRANCH  20  21
ATOM     21  S   UNL     1      -0.759   4.701   4.272  0.00  0.00    +0.032 S 
ATOM     22  O   UNL     1      -0.903   4.466   2.878  0.00  0.00    -0.158 OA
ATOM     23  O   UNL     1      -0.979   3.655   5.209  0.00  0.00    -0.158 OA
BRANCH  21  24
ATOM     24  N   UNL     1      -1.908   5.838   4.631  0.00  0.00    -0.181 NA
ATOM     25  C   UNL     1      -2.470   5.933   5.985  0.00  0.00    +0.110 C 
ATOM     26  C   UNL     1      -2.303   7.377   6.483  0.00  0.00    +0.028 C 
ATOM     27  C   UNL     1      -2.916   8.336   5.468  0.00  0.00    -0.001 C 
ATOM     28  C   UNL     1      -4.422   8.053   5.319  0.00  0.00    +0.016 C 
ATOM     29  C   UNL     1      -5.003   9.465   5.090  0.00  0.00    +0.036 C 
ATOM     30  C   UNL     1      -4.021  10.410   5.749  0.00  0.00    -0.044 A 
ATOM     31  C   UNL     1      -2.819   9.759   5.966  0.00  0.00    -0.038 A 
ATOM     32  C   UNL     1      -1.768  10.435   6.561  0.00  0.00    +0.004 A 
ATOM     33  C   UNL     1      -1.915  11.755   6.940  0.00  0.00    +0.000 A 
ATOM     34  C   UNL     1      -3.116  12.405   6.724  0.00  0.00    +0.000 A 
ATOM     35  C   UNL     1      -4.166  11.733   6.130  0.00  0.00    +0.004 A 
ATOM     36  C   UNL     1      -2.225   8.202   4.114  0.00  0.00    +0.028 C 
ATOM     37  C   UNL     1      -2.388   6.768   3.599  0.00  0.00    +0.110 C 
ENDBRANCH  21  24
ENDBRANCH  20  21
ENDBRANCH   6  20
TORSDOF 5
