REMARK  Name = ZINC35009060
REMARK  9 active torsions:
REMARK  status: ('A' for Active; 'I' for Inactive)
REMARK    1  A    between atoms: C_1  and  C_2
REMARK    2  A    between atoms: C_2  and  C_3
REMARK    3  A    between atoms: C_3  and  N_4
REMARK    4  A    between atoms: N_4  and  C_5
REMARK    5  A    between atoms: C_5  and  C_7
REMARK    6  A    between atoms: C_5  and  C_8
REMARK    7  A    between atoms: C_21  and  C_23
REMARK    8  A    between atoms: C_25  and  C_33
REMARK    9  A    between atoms: C_27  and  C_29
REMARK                            x       y       z     vdW  Elec       q    Type
REMARK                         _______ _______ _______ _____ _____    ______ ____
ROOT
ATOM      1  N   UNL     1      -1.149  -2.018  -0.035  0.00  0.00    -0.288 N 
ATOM      2  C   UNL     1      -1.591  -2.621  -1.156  0.00  0.00    +0.247 C 
ATOM      3  O   UNL     1      -1.840  -1.959  -2.145  0.00  0.00    -0.270 OA
ENDROOT
BRANCH   2   4
ATOM      4  C   UNL     1      -1.772  -4.088  -1.184  0.00  0.00    +0.038 A 
ATOM      5  C   UNL     1      -2.302  -4.750  -0.075  0.00  0.00    +0.025 A 
ATOM      6  C   UNL     1      -2.469  -6.119  -0.108  0.00  0.00    +0.056 A 
ATOM      7  C   UNL     1      -2.113  -6.836  -1.236  0.00  0.00    +0.024 A 
ATOM      8  C   UNL     1      -1.587  -6.186  -2.338  0.00  0.00    +0.056 A 
ATOM      9  C   UNL     1      -1.420  -4.817  -2.321  0.00  0.00    +0.025 A 
BRANCH   8  10
ATOM     10  C   UNL     1      -1.200  -6.975  -3.563  0.00  0.00    +0.417 C 
ATOM     11  F   UNL     1      -1.465  -8.332  -3.346  0.00  0.00    -0.166 F 
ATOM     12  F   UNL     1      -1.942  -6.525  -4.661  0.00  0.00    -0.166 F 
ATOM     13  F   UNL     1       0.164  -6.801  -3.819  0.00  0.00    -0.166 F 
ENDBRANCH   8  10
BRANCH   6  14
ATOM     14  C   UNL     1      -3.041  -6.835   1.088  0.00  0.00    +0.417 C 
ATOM     15  F   UNL     1      -4.434  -6.897   0.973  0.00  0.00    -0.166 F 
ATOM     16  F   UNL     1      -2.521  -8.132   1.148  0.00  0.00    -0.166 F 
ATOM     17  F   UNL     1      -2.700  -6.142   2.254  0.00  0.00    -0.166 F 
ENDBRANCH   6  14
ENDBRANCH   2   4
BRANCH   1  18
ATOM     18  C   UNL     1      -0.718  -2.825   1.110  0.00  0.00    +0.139 C 
ATOM     19  C   UNL     1       0.690  -2.400   1.532  0.00  0.00    +0.036 C 
BRANCH  18  20
ATOM     20  C   UNL     1      -1.671  -2.616   2.258  0.00  0.00    +0.131 A 
ATOM     21  N   UNL     1      -1.379  -3.197   3.451  0.00  0.00    -0.309 N 
ATOM     22  H   UNL     1      -0.573  -3.729   3.542  0.00  0.00    +0.170 HD
ATOM     23  C   UNL     1      -2.203  -3.041   4.514  0.00  0.00    +0.259 A 
ATOM     24  O   UNL     1      -1.953  -3.556   5.588  0.00  0.00    -0.267 OA
ATOM     25  C   UNL     1      -3.410  -2.225   4.320  0.00  0.00    +0.065 A 
ATOM     26  C   UNL     1      -4.322  -2.002   5.349  0.00  0.00    +0.017 A 
ATOM     27  C   UNL     1      -5.430  -1.234   5.117  0.00  0.00    +0.021 A 
ATOM     28  C   UNL     1      -5.656  -0.675   3.865  0.00  0.00    +0.043 A 
ATOM     29  C   UNL     1      -4.769  -0.881   2.829  0.00  0.00    +0.048 A 
ATOM     30  C   UNL     1      -3.631  -1.660   3.044  0.00  0.00    +0.080 A 
ATOM     31  N   UNL     1      -2.726  -1.887   2.058  0.00  0.00    -0.232 NA
ATOM     32 CL   UNL     1      -7.072   0.294   3.600  0.00  0.00    -0.083 Cl
ENDBRANCH  18  20
ENDBRANCH   1  18
BRANCH   1  33
ATOM     33  C   UNL     1      -1.099  -0.556   0.039  0.00  0.00    +0.108 C 
BRANCH  33  35
ATOM     34  C   UNL     1       0.259   1.470  -0.506  0.00  0.00    +0.005 C 
ATOM     35  C   UNL     1       0.207  -0.058  -0.583  0.00  0.00    +0.016 C 
ENDBRANCH  33  35
ENDBRANCH   1  33
TORSDOF 7
