REMARK  Name = ZINC63573492
REMARK  8 active torsions:
REMARK  status: ('A' for Active; 'I' for Inactive)
REMARK    1  A    between atoms: C_1  and  C_2
REMARK    2  A    between atoms: C_5  and  C_8
REMARK    3  A    between atoms: C_15  and  O_20
REMARK    4  A    between atoms: O_20  and  C_21
REMARK    5  A    between atoms: N_27  and  C_28
REMARK    6  A    between atoms: C_30  and  C_36
REMARK    7  A    between atoms: C_33  and  O_34
REMARK    8  A    between atoms: O_34  and  C_35
REMARK                            x       y       z     vdW  Elec       q    Type
REMARK                         _______ _______ _______ _____ _____    ______ ____
ROOT
ATOM      1  C   UNL     1       0.612  -3.502   0.167  0.00  0.00    +0.134 C 
ATOM      2  C   UNL     1      -0.859  -3.927   0.103  0.00  0.00    +0.131 C 
ATOM      3  C   UNL     1      -1.330  -4.080   1.544  0.00  0.00    -0.035 C 
ATOM      4  C   UNL     1      -2.387  -3.288   1.679  0.00  0.00    +0.003 A 
ATOM      5  C   UNL     1      -3.305  -3.059   2.806  0.00  0.00    +0.055 A 
ATOM      6  C   UNL     1      -4.300  -2.151   2.608  0.00  0.00    +0.121 A 
ATOM      7  C   UNL     1      -4.486  -1.440   1.413  0.00  0.00    +0.047 A 
ATOM      8  C   UNL     1      -3.703  -1.578   0.312  0.00  0.00    +0.029 A 
ATOM      9  C   UNL     1      -2.594  -2.537   0.403  0.00  0.00    +0.043 A 
ATOM     10  N   UNL     1      -1.699  -2.891  -0.501  0.00  0.00    -0.375 N 
ATOM     11  C   UNL     1      -0.599  -4.936   2.549  0.00  0.00    +0.052 C 
ATOM     12  C   UNL     1       0.881  -4.518   2.493  0.00  0.00    +0.114 C 
ATOM     13  N   UNL     1       1.306  -4.412   1.092  0.00  0.00    -0.276 N 
ATOM     14  C   UNL     1       2.339  -5.155   0.648  0.00  0.00    +0.307 C 
ATOM     15  O   UNL     1       2.754  -5.003  -0.485  0.00  0.00    -0.252 OA
ATOM     16  N   UNL     1       2.912  -6.065   1.459  0.00  0.00    -0.266 N 
ATOM     17  H   UNL     1       2.540  -6.233   2.339  0.00  0.00    +0.156 HD
ATOM     18  H   UNL     1      -1.603  -2.534  -1.398  0.00  0.00    +0.160 HD
ENDROOT
BRANCH   1  23
ATOM     19  C   UNL     1       0.994   1.929   2.105  0.00  0.00    +0.044 C 
ATOM     20  C   UNL     1       0.895   0.512   1.599  0.00  0.00    -0.050 A 
ATOM     21  C   UNL     1       1.392   0.187   0.351  0.00  0.00    +0.004 A 
ATOM     22  C   UNL     1       1.301  -1.112  -0.112  0.00  0.00    +0.006 A 
ATOM     23  C   UNL     1       0.712  -2.086   0.673  0.00  0.00    -0.025 A 
ATOM     24  C   UNL     1       0.216  -1.761   1.921  0.00  0.00    +0.006 A 
ATOM     25  C   UNL     1       0.311  -0.463   2.386  0.00  0.00    +0.004 A 
ENDBRANCH   1  23
BRANCH  16  26
ATOM     26  C   UNL     1       4.045  -6.771   1.031  0.00  0.00    +0.077 A 
ATOM     27  C   UNL     1       4.250  -7.002  -0.321  0.00  0.00    +0.030 A 
ATOM     28  C   UNL     1       5.368  -7.698  -0.740  0.00  0.00    -0.048 A 
ATOM     29  C   UNL     1       6.284  -8.165   0.185  0.00  0.00    +0.007 A 
ATOM     30  C   UNL     1       6.086  -7.938   1.534  0.00  0.00    +0.048 A 
ATOM     31  C   UNL     1       4.971  -7.236   1.962  0.00  0.00    +0.141 A 
ATOM     32  C   UNL     1       5.590  -7.949  -2.209  0.00  0.00    +0.044 C 
BRANCH  31  33
ATOM     33  O   UNL     1       4.777  -7.007   3.289  0.00  0.00    -0.493 OA
ATOM     34  C   UNL     1       5.767  -7.514   4.186  0.00  0.00    +0.277 C 
ENDBRANCH  31  33
ENDBRANCH  16  26
BRANCH   6  35
ATOM     35  O   UNL     1      -5.164  -1.917   3.631  0.00  0.00    -0.495 OA
ATOM     36  C   UNL     1      -6.199  -0.960   3.399  0.00  0.00    +0.277 C 
ENDBRANCH   6  35
TORSDOF 4
