REMARK  Name = ZINC01889244
REMARK  8 active torsions:
REMARK  status: ('A' for Active; 'I' for Inactive)
REMARK    1  A    between atoms: C_1  and  C_2
REMARK    2  A    between atoms: C_2  and  C_4
REMARK    3  A    between atoms: C_2  and  S_13
REMARK    4  A    between atoms: N_6  and  C_7
REMARK    5  A    between atoms: S_13  and  C_14
REMARK    6  A    between atoms: C_23  and  C_25
REMARK    7  A    between atoms: C_23  and  C_26
REMARK    8  A    between atoms: N_29  and  C_30
REMARK                            x       y       z     vdW  Elec       q    Type
REMARK                         _______ _______ _______ _____ _____    ______ ____
ROOT
ATOM      1  C   UNL     1       8.887  -1.045   0.903  0.00  0.00    +0.178 A 
ATOM      2  N   UNL     1       8.671  -2.275   0.481  0.00  0.00    -0.215 NA
ATOM      3  C   UNL     1       9.566  -2.897  -0.280  0.00  0.00    +0.117 A 
ATOM      4  C   UNL     1      10.766  -2.289  -0.670  0.00  0.00    +0.076 A 
ATOM      5  C   UNL     1      11.663  -3.095  -1.519  0.00  0.00    -0.021 A 
ATOM      6  C   UNL     1      11.243  -4.332  -1.825  0.00  0.00    +0.006 A 
ATOM      7  S   UNL     1       9.659  -4.500  -1.031  0.00  0.00    -0.072 S 
ATOM      8  C   UNL     1      11.904  -5.409  -2.642  0.00  0.00    +0.112 C 
ATOM      9  S   UNL     1      13.252  -4.654  -3.603  0.00  0.00    -0.149 S 
ATOM     10  C   UNL     1      13.998  -3.534  -2.376  0.00  0.00    +0.015 C 
ATOM     11  C   UNL     1      12.973  -2.477  -1.993  0.00  0.00    +0.053 C 
ATOM     12  C   UNL     1      14.403  -4.331  -1.134  0.00  0.00    +0.023 C 
ATOM     13  C   UNL     1      15.233  -2.861  -2.980  0.00  0.00    +0.023 C 
ATOM     14  C   UNL     1      10.977  -0.956  -0.199  0.00  0.00    +0.268 A 
ATOM     15  O   UNL     1      11.994  -0.350  -0.488  0.00  0.00    -0.267 OA
ATOM     16  N   UNL     1      10.031  -0.377   0.565  0.00  0.00    -0.255 N 
ENDROOT
BRANCH  16  17
ATOM     17  C   UNL     1      10.225   0.931   1.027  0.00  0.00    +0.052 A 
ATOM     18  C   UNL     1      10.819   1.151   2.263  0.00  0.00    +0.026 A 
ATOM     19  C   UNL     1      11.014   2.443   2.713  0.00  0.00    +0.002 A 
ATOM     20  C   UNL     1      10.608   3.515   1.940  0.00  0.00    +0.000 A 
ATOM     21  C   UNL     1      10.011   3.298   0.712  0.00  0.00    +0.002 A 
ATOM     22  C   UNL     1       9.819   2.010   0.253  0.00  0.00    +0.026 A 
ENDBRANCH  16  17
BRANCH   1  23
ATOM     23  S   UNL     1       7.680  -0.248   1.909  0.00  0.00    -0.075 S 
BRANCH  23  25
ATOM     24  C   UNL     1       5.855  -1.819   0.620  0.00  0.00    +0.029 C 
ATOM     25  C   UNL     1       6.438  -1.560   2.011  0.00  0.00    +0.137 C 
BRANCH  25  26
ATOM     26  C   UNL     1       5.336  -1.138   2.947  0.00  0.00    +0.230 C 
ATOM     27  O   UNL     1       5.119   0.040   3.137  0.00  0.00    -0.274 OA
ATOM     28  N   UNL     1       4.591  -2.070   3.575  0.00  0.00    -0.285 N 
ATOM     29  H   UNL     1       4.810  -3.010   3.482  0.00  0.00    +0.155 HD
BRANCH  28  30
ATOM     30  C   UNL     1       3.500  -1.680   4.360  0.00  0.00    +0.033 A 
ATOM     31  C   UNL     1       2.748  -0.568   4.005  0.00  0.00    +0.023 A 
ATOM     32  C   UNL     1       1.672  -0.186   4.782  0.00  0.00    +0.002 A 
ATOM     33  C   UNL     1       1.343  -0.911   5.913  0.00  0.00    +0.000 A 
ATOM     34  C   UNL     1       2.090  -2.019   6.270  0.00  0.00    +0.002 A 
ATOM     35  C   UNL     1       3.167  -2.406   5.497  0.00  0.00    +0.023 A 
ENDBRANCH  28  30
ENDBRANCH  25  26
ENDBRANCH  23  25
ENDBRANCH   1  23
TORSDOF 5
