REMARK  Name = ZINC15544273
REMARK  9 active torsions:
REMARK  status: ('A' for Active; 'I' for Inactive)
REMARK    1  A    between atoms: C_1  and  C_2
REMARK    2  A    between atoms: C_3  and  C_33
REMARK    3  A    between atoms: N_4  and  C_27
REMARK    4  A    between atoms: C_5  and  N_9
REMARK    5  A    between atoms: C_6  and  C_7
REMARK    6  A    between atoms: C_10  and  C_12
REMARK    7  A    between atoms: C_12  and  N_69
REMARK    8  A    between atoms: C_15  and  C_18
REMARK    9  A    between atoms: C_27  and  C_28
REMARK                            x       y       z     vdW  Elec       q    Type
REMARK                         _______ _______ _______ _____ _____    ______ ____
ROOT
ATOM      1  N   UNL     1       1.854   3.208   0.540  0.00  0.00    -0.272 N 
ATOM      2  C   UNL     1       3.164   3.527   0.543  0.00  0.00    +0.202 C 
ATOM      3  O   UNL     1       3.991   2.692   0.844  0.00  0.00    -0.278 OA
ATOM      4  H   UNL     1       1.199   3.851   0.227  0.00  0.00    +0.156 HD
ENDROOT
BRANCH   1   9
ATOM      5  C   UNL     1       1.571  -1.218   2.963  0.00  0.00    +0.047 C 
ATOM      6  C   UNL     1       1.286  -0.045   2.061  0.00  0.00    -0.011 A 
ATOM      7  C   UNL     1       0.243   0.089   1.226  0.00  0.00    +0.022 A 
ATOM      8  N   UNL     1       0.334   1.292   0.577  0.00  0.00    -0.324 N 
ATOM      9  C   UNL     1       1.444   1.960   0.984  0.00  0.00    +0.124 A 
ATOM     10  C   UNL     1       2.095   1.172   1.924  0.00  0.00    +0.095 A 
ATOM     11  C   UNL     1      -0.856  -0.924   1.032  0.00  0.00    +0.064 C 
BRANCH  10  12
ATOM     12  C   UNL     1       3.305   1.486   2.621  0.00  0.00    +0.103 C 
ATOM     13  N   UNL     1       4.266   1.735   3.175  0.00  0.00    -0.191 NA
ENDBRANCH  10  12
BRANCH   8  14
ATOM     14  C   UNL     1      -0.627   1.786  -0.412  0.00  0.00    +0.197 C 
BRANCH  14  15
ATOM     15  C   UNL     1      -1.770   2.468   0.295  0.00  0.00    +0.124 A 
ATOM     16  C   UNL     1      -1.869   3.788   0.537  0.00  0.00    +0.046 A 
ATOM     17  C   UNL     1      -3.094   3.988   1.215  0.00  0.00    +0.041 A 
ATOM     18  C   UNL     1      -3.665   2.778   1.354  0.00  0.00    +0.195 A 
ATOM     19  O   UNL     1      -2.859   1.862   0.795  0.00  0.00    -0.466 OA
ENDBRANCH  14  15
ENDBRANCH   8  14
ENDBRANCH   1   9
BRANCH   2  20
ATOM     20  C   UNL     1       3.600   4.921   0.172  0.00  0.00    +0.019 C 
BRANCH  20  26
ATOM     21  C   UNL     1       5.589   4.080  -0.923  0.00  0.00    -0.077 C 
ATOM     22  C   UNL     1       7.117   4.053  -0.856  0.00  0.00    -0.006 C 
ATOM     23  C   UNL     1       7.658   5.471  -1.059  0.00  0.00    +0.072 C 
ATOM     24  C   UNL     1       7.062   6.394   0.007  0.00  0.00    -0.006 C 
ATOM     25  C   UNL     1       5.535   6.354  -0.085  0.00  0.00    -0.077 C 
ATOM     26  N   UNL     1       5.077   4.967   0.143  0.00  0.00    +0.385 N 
ATOM     27  H   UNL     1       5.438   4.642   1.048  0.00  0.00    -0.081 HD
BRANCH  23  28
ATOM     28  C   UNL     1       9.159   5.461  -0.934  0.00  0.00    +0.219 C 
ATOM     29  O   UNL     1       9.690   5.945   0.044  0.00  0.00    -0.275 OA
ATOM     30  N   UNL     1       9.913   4.913  -1.907  0.00  0.00    -0.301 N 
ATOM     31  C   UNL     1      11.339   4.798  -1.698  0.00  0.00    +0.108 C 
ATOM     32  C   UNL     1      12.048   6.077  -2.191  0.00  0.00    +0.019 C 
ATOM     33  C   UNL     1      12.022   6.140  -3.660  0.00  0.00    +0.002 C 
ATOM     34  C   UNL     1      10.622   6.227  -4.261  0.00  0.00    +0.002 C 
ATOM     35  C   UNL     1      10.053   4.837  -4.405  0.00  0.00    +0.019 C 
ATOM     36  C   UNL     1       9.250   4.462  -3.146  0.00  0.00    +0.108 C 
ENDBRANCH  23  28
ENDBRANCH  20  26
ENDBRANCH   2  20
TORSDOF 7
