REMARK  Name = ZINC35203279
REMARK  10 active torsions:
REMARK  status: ('A' for Active; 'I' for Inactive)
REMARK    1  A    between atoms: C_1  and  C_2
REMARK    2  A    between atoms: C_2  and  C_3
REMARK    3  A    between atoms: C_3  and  C_4
REMARK    4  A    between atoms: C_3  and  C_5
REMARK    5  A    between atoms: C_3  and  C_6
REMARK    6  A    between atoms: N_12  and  C_17
REMARK    7  A    between atoms: C_17  and  C_18
REMARK    8  A    between atoms: C_20  and  C_23
REMARK    9  A    between atoms: N_28  and  C_31
REMARK   10  A    between atoms: C_36  and  C_37
REMARK                            x       y       z     vdW  Elec       q    Type
REMARK                         _______ _______ _______ _____ _____    ______ ____
ROOT
ATOM      1  C   UNL     1       4.193  -4.347  -3.429  0.00  0.00    +0.097 A 
ATOM      2  N   UNL     1       5.096  -5.255  -3.679  0.00  0.00    -0.238 NA
ATOM      3  C   UNL     1       6.369  -4.987  -3.372  0.00  0.00    +0.133 A 
ATOM      4  C   UNL     1       6.607  -3.761  -2.813  0.00  0.00    +0.080 A 
ATOM      5  S   UNL     1       5.072  -3.081  -2.763  0.00  0.00    -0.078 S 
ENDROOT
BRANCH   3   6
ATOM      6  C   UNL     1       7.451  -5.955  -3.620  0.00  0.00    +0.266 C 
ATOM      7  O   UNL     1       8.568  -5.742  -3.188  0.00  0.00    -0.268 OA
ATOM      8  N   UNL     1       7.203  -7.077  -4.325  0.00  0.00    -0.293 N 
ATOM      9  C   UNL     1       5.908  -7.270  -4.992  0.00  0.00    +0.127 C 
ATOM     10  C   UNL     1       6.160  -7.547  -6.480  0.00  0.00    +0.124 C 
ATOM     11  N   UNL     1       7.180  -8.598  -6.596  0.00  0.00    -0.327 N 
ATOM     12  C   UNL     1       8.475  -8.404  -5.929  0.00  0.00    +0.124 C 
ATOM     13  C   UNL     1       8.226  -8.125  -4.446  0.00  0.00    +0.127 C 
BRANCH  11  14
ATOM     14  C   UNL     1       6.924  -9.760  -7.327  0.00  0.00    +0.033 A 
ATOM     15  C   UNL     1       7.232  -9.814  -8.681  0.00  0.00    +0.023 A 
ATOM     16  C   UNL     1       6.978 -10.964  -9.400  0.00  0.00    +0.002 A 
ATOM     17  C   UNL     1       6.416 -12.063  -8.775  0.00  0.00    +0.000 A 
ATOM     18  C   UNL     1       6.108 -12.013  -7.428  0.00  0.00    +0.005 A 
ATOM     19  C   UNL     1       6.365 -10.867  -6.701  0.00  0.00    -0.029 A 
ATOM     20  C   UNL     1       6.035 -10.816  -5.232  0.00  0.00    +0.045 C 
ENDBRANCH  11  14
ENDBRANCH   3   6
BRANCH   1  21
ATOM     21  C   UNL     1       2.709  -4.415  -3.683  0.00  0.00    +0.176 C 
BRANCH  21  28
ATOM     22  C   UNL     1       1.017  -1.941  -0.671  0.00  0.00    -0.040 A 
ATOM     23  C   UNL     1       0.684  -2.482   0.557  0.00  0.00    +0.008 A 
ATOM     24  C   UNL     1       0.797  -3.844   0.772  0.00  0.00    +0.048 A 
ATOM     25  C   UNL     1       1.245  -4.668  -0.245  0.00  0.00    +0.143 A 
ATOM     26  C   UNL     1       1.581  -4.122  -1.483  0.00  0.00    +0.079 A 
ATOM     27  C   UNL     1       1.461  -2.758  -1.694  0.00  0.00    +0.031 A 
ATOM     28  N   UNL     1       2.037  -4.968  -2.505  0.00  0.00    -0.259 N 
ATOM     29  C   UNL     1       1.845  -6.300  -2.385  0.00  0.00    +0.258 C 
ATOM     30  O   UNL     1       2.258  -7.053  -3.241  0.00  0.00    -0.271 OA
ATOM     31  C   UNL     1       1.116  -6.846  -1.184  0.00  0.00    +0.325 C 
ATOM     32  O   UNL     1       1.362  -6.008  -0.051  0.00  0.00    -0.481 OA
BRANCH  22  33
ATOM     33  C   UNL     1       0.890  -0.456  -0.897  0.00  0.00    -0.010 C 
ATOM     34  C   UNL     1      -0.099  -0.196  -2.035  0.00  0.00    +0.016 C 
ATOM     35  C   UNL     1       2.257   0.122  -1.268  0.00  0.00    +0.016 C 
BRANCH  33  37
ATOM     36  C   UNL     1       0.254   1.720   0.152  0.00  0.00    +0.005 C 
ATOM     37  C   UNL     1       0.383   0.213   0.382  0.00  0.00    +0.007 C 
ENDBRANCH  33  37
ENDBRANCH  22  33
ENDBRANCH  21  28
ENDBRANCH   1  21
TORSDOF 6
