REMARK  Name = ZINC21243475
REMARK  11 active torsions:
REMARK  status: ('A' for Active; 'I' for Inactive)
REMARK    1  A    between atoms: C_1  and  C_2
REMARK    2  A    between atoms: C_2  and  C_3
REMARK    3  A    between atoms: C_2  and  C_4
REMARK    4  A    between atoms: C_4  and  O_5
REMARK    5  A    between atoms: O_5  and  C_6
REMARK    6  A    between atoms: C_9  and  C_12
REMARK    7  A    between atoms: C_17  and  C_27
REMARK    8  A    between atoms: C_30  and  O_33
REMARK    9  A    between atoms: O_33  and  C_34
REMARK   10  A    between atoms: C_34  and  C_35
REMARK   11  A    between atoms: C_34  and  C_36
REMARK                            x       y       z     vdW  Elec       q    Type
REMARK                         _______ _______ _______ _____ _____    ______ ____
ROOT
ATOM      1  C   UNL     1       0.038  -0.009  -0.085  0.00  0.00    +0.032 C 
ATOM      2  C   UNL     1      -0.736  -0.548  -1.288  0.00  0.00    +0.059 C 
ATOM      3  C   UNL     1      -0.750  -2.067  -1.258  0.00  0.00    +0.017 C 
ATOM      4  C   UNL     1      -0.747  -2.727  -0.087  0.00  0.00    +0.036 C 
ATOM      5  C   UNL     1      -0.772  -4.227   0.085  0.00  0.00    +0.136 C 
ATOM      6  N   UNL     1      -1.066  -4.966  -1.124  0.00  0.00    -0.331 N 
ATOM      7  C   UNL     1      -0.193  -4.940  -2.211  0.00  0.00    +0.049 A 
ATOM      8  C   UNL     1       0.471  -6.080  -2.635  0.00  0.00    +0.025 A 
ATOM      9  C   UNL     1       1.365  -5.994  -3.688  0.00  0.00    +0.002 A 
ATOM     10  C   UNL     1       1.597  -4.782  -4.312  0.00  0.00    +0.002 A 
ATOM     11  C   UNL     1       0.922  -3.644  -3.902  0.00  0.00    +0.025 A 
ATOM     12  C   UNL     1       0.012  -3.734  -2.864  0.00  0.00    +0.052 A 
ATOM     13  N   UNL     1      -0.783  -2.660  -2.478  0.00  0.00    -0.316 N 
ATOM     14  C   UNL     1      -0.714  -2.012   1.133  0.00  0.00    +0.163 C 
ATOM     15  O   UNL     1      -0.729  -2.633   2.178  0.00  0.00    -0.292 OA
ATOM     16  C   UNL     1      -0.660  -0.514   1.183  0.00  0.00    +0.088 C 
ATOM     17  H   UNL     1      -1.989  -5.560  -1.195  0.00  0.00    +0.147 HD
ATOM     18  H   UNL     1      -1.477  -2.294  -3.249  0.00  0.00    +0.152 HD
ENDROOT
BRANCH   1  22
ATOM     19  C   UNL     1       0.016   4.264  -0.146  0.00  0.00    +0.121 A 
ATOM     20  C   UNL     1       1.220   3.575  -0.157  0.00  0.00    +0.046 A 
ATOM     21  C   UNL     1       1.224   2.194  -0.137  0.00  0.00    +0.007 A 
ATOM     22  C   UNL     1       0.030   1.498  -0.107  0.00  0.00    -0.043 A 
ATOM     23  C   UNL     1      -1.171   2.182  -0.103  0.00  0.00    +0.007 A 
ATOM     24  C   UNL     1      -1.181   3.563  -0.117  0.00  0.00    +0.046 A 
BRANCH  19  25
ATOM     25  O   UNL     1       0.009   5.623  -0.166  0.00  0.00    -0.492 OA
BRANCH  25  26
ATOM     26  C   UNL     1      -1.267   6.265  -0.154  0.00  0.00    +0.232 C 
BRANCH  26  28
ATOM     27  C   UNL     1      -0.427   8.193  -1.504  0.00  0.00    +0.010 C 
ATOM     28  C   UNL     1      -1.074   7.783  -0.179  0.00  0.00    +0.020 C 
ATOM     29  C   UNL     1      -2.433   8.472  -0.041  0.00  0.00    +0.010 C 
ENDBRANCH  26  28
ENDBRANCH  25  26
ENDBRANCH  19  25
ENDBRANCH   1  22
BRANCH   5  30
ATOM     30  C   UNL     1       0.572  -4.671   0.601  0.00  0.00    -0.023 A 
ATOM     31  C   UNL     1       1.700  -4.508  -0.182  0.00  0.00    +0.009 A 
ATOM     32  C   UNL     1       2.934  -4.909   0.292  0.00  0.00    +0.046 A 
ATOM     33  C   UNL     1       3.040  -5.486   1.549  0.00  0.00    +0.121 A 
ATOM     34  C   UNL     1       1.906  -5.654   2.330  0.00  0.00    +0.046 A 
ATOM     35  C   UNL     1       0.674  -5.246   1.854  0.00  0.00    +0.009 A 
BRANCH  33  36
ATOM     36  O   UNL     1       4.252  -5.886   2.015  0.00  0.00    -0.489 OA
BRANCH  36  37
ATOM     37  C   UNL     1       4.270  -6.582   3.263  0.00  0.00    +0.167 C 
ATOM     38  C   UNL     1       5.516  -7.467   3.336  0.00  0.00    +0.051 C 
ATOM     39  C   UNL     1       4.296  -5.570   4.410  0.00  0.00    +0.051 C 
ENDBRANCH  36  37
ENDBRANCH  33  36
ENDBRANCH   5  30
TORSDOF 7
