REMARK  Name = ZINC17370245
REMARK  13 active torsions:
REMARK  status: ('A' for Active; 'I' for Inactive)
REMARK    1  A    between atoms: C_1  and  C_2
REMARK    2  A    between atoms: C_2  and  C_3
REMARK    3  A    between atoms: C_3  and  C_5
REMARK    4  A    between atoms: C_3  and  C_6
REMARK    5  A    between atoms: C_9  and  C_12
REMARK    6  A    between atoms: C_12  and  C_14
REMARK    7  A    between atoms: C_12  and  N_17
REMARK    8  A    between atoms: C_14  and  C_15
REMARK    9  A    between atoms: C_14  and  C_16
REMARK   10  A    between atoms: C_18  and  C_20
REMARK   11  A    between atoms: C_20  and  N_21
REMARK   12  A    between atoms: N_28  and  C_33
REMARK   13  A    between atoms: N_31  and  C_32
REMARK                            x       y       z     vdW  Elec       q    Type
REMARK                         _______ _______ _______ _____ _____    ______ ____
ROOT
ATOM      1  N   UNL     1      -2.343   3.724   7.855  0.00  0.00    -0.307 N 
ATOM      2  C   UNL     1      -2.499   3.964   9.172  0.00  0.00    +0.233 C 
ATOM      3  O   UNL     1      -3.141   3.195   9.856  0.00  0.00    -0.274 OA
ATOM      4  H   UNL     1      -1.829   4.339   7.308  0.00  0.00    +0.149 HD
ENDROOT
BRANCH   1   5
ATOM      5  C   UNL     1      -2.948   2.535   7.250  0.00  0.00    +0.106 C 
BRANCH   5   9
ATOM      6  C   UNL     1      -0.761   1.454   3.743  0.00  0.00    -0.045 A 
ATOM      7  C   UNL     1      -1.001   2.786   4.025  0.00  0.00    +0.004 A 
ATOM      8  C   UNL     1      -1.714   3.135   5.156  0.00  0.00    +0.006 A 
ATOM      9  C   UNL     1      -2.176   2.154   6.013  0.00  0.00    -0.027 A 
ATOM     10  C   UNL     1      -1.931   0.822   5.734  0.00  0.00    +0.006 A 
ATOM     11  C   UNL     1      -1.224   0.472   4.599  0.00  0.00    +0.004 A 
BRANCH   6  12
ATOM     12  C   UNL     1       0.011   1.072   2.506  0.00  0.00    +0.016 C 
ATOM     13  C   UNL     1       1.405   1.701   2.561  0.00  0.00    +0.012 C 
BRANCH  12  15
ATOM     14  C   UNL     1      -0.013   1.086   0.008  0.00  0.00    +0.004 C 
ATOM     15  C   UNL     1      -0.729   1.579   1.267  0.00  0.00    +0.004 C 
ENDBRANCH  12  15
ENDBRANCH   6  12
ENDBRANCH   5   9
BRANCH   5  16
ATOM     16  C   UNL     1      -4.399   2.837   6.872  0.00  0.00    +0.008 C 
ATOM     17  C   UNL     1      -4.430   3.908   5.780  0.00  0.00    +0.009 C 
ATOM     18  C   UNL     1      -5.068   1.562   6.356  0.00  0.00    +0.009 C 
ENDBRANCH   5  16
ENDBRANCH   1   5
BRANCH   2  19
ATOM     19  C   UNL     1      -1.877   5.187   9.795  0.00  0.00    +0.219 C 
BRANCH  19  20
ATOM     20  N   UNL     1      -2.190   5.219  11.226  0.00  0.00    -0.316 N 
ATOM     21  C   UNL     1      -3.210   5.880  11.808  0.00  0.00    +0.202 A 
ATOM     22  N   UNL     1      -3.182   5.682  13.102  0.00  0.00    -0.218 NA
ATOM     23  C   UNL     1      -2.152   4.892  13.417  0.00  0.00    +0.168 A 
ATOM     24  C   UNL     1      -1.500   4.574  12.232  0.00  0.00    +0.152 A 
ATOM     25  C   UNL     1      -0.358   3.746  12.277  0.00  0.00    +0.282 A 
ATOM     26  O   UNL     1       0.234   3.457  11.253  0.00  0.00    -0.265 OA
ATOM     27  N   UNL     1       0.068   3.275  13.468  0.00  0.00    -0.262 N 
ATOM     28  C   UNL     1      -0.576   3.586  14.606  0.00  0.00    +0.333 A 
ATOM     29  O   UNL     1      -0.164   3.143  15.661  0.00  0.00    -0.246 OA
ATOM     30  N   UNL     1      -1.666   4.377  14.607  0.00  0.00    -0.280 N 
ATOM     31  C   UNL     1      -2.339   4.692  15.870  0.00  0.00    +0.155 C 
ATOM     32  C   UNL     1       1.249   2.410  13.521  0.00  0.00    +0.157 C 
ENDBRANCH  19  20
ENDBRANCH   2  19
TORSDOF 7
