REMARK  Name = ZINC67569105
REMARK  6 active torsions:
REMARK  status: ('A' for Active; 'I' for Inactive)
REMARK    1  A    between atoms: C_1  and  C_2
REMARK    2  A    between atoms: C_2  and  C_4
REMARK    3  A    between atoms: C_2  and  N_14
REMARK    4  A    between atoms: N_17  and  C_18
REMARK    5  A    between atoms: C_18  and  C_19
REMARK    6  A    between atoms: C_24  and  N_25
REMARK                            x       y       z     vdW  Elec       q    Type
REMARK                         _______ _______ _______ _____ _____    ______ ____
ROOT
ATOM      1  N   UNL     1      -1.372  -0.511   0.012  0.00  0.00    -0.290 N 
ATOM      2  C   UNL     1      -2.051  -0.643  -1.145  0.00  0.00    +0.300 C 
ATOM      3  O   UNL     1      -1.522  -0.341  -2.197  0.00  0.00    -0.253 OA
ATOM      4  N   UNL     1      -3.315  -1.109  -1.135  0.00  0.00    -0.295 N 
ATOM      5  H   UNL     1      -1.794  -0.752   0.852  0.00  0.00    +0.151 HD
ATOM      6  H   UNL     1      -3.737  -1.350  -0.295  0.00  0.00    +0.151 HD
ENDROOT
BRANCH   1   8
ATOM      7  C   UNL     1      -0.019   1.526   0.010  0.00  0.00    +0.036 C 
ATOM      8  C   UNL     1       0.002  -0.004   0.002  0.00  0.00    +0.137 C 
BRANCH   8   9
ATOM      9  C   UNL     1       0.731  -0.503   1.223  0.00  0.00    +0.128 A 
ATOM     10  N   UNL     1       2.080  -0.649   1.320  0.00  0.00    -0.340 N 
ATOM     11  H   UNL     1       2.731  -0.452   0.628  0.00  0.00    +0.167 HD
ATOM     12  C   UNL     1       2.351  -1.127   2.586  0.00  0.00    +0.066 A 
ATOM     13  C   UNL     1       3.515  -1.466   3.263  0.00  0.00    +0.028 A 
ATOM     14  C   UNL     1       3.442  -1.927   4.560  0.00  0.00    +0.002 A 
ATOM     15  C   UNL     1       2.213  -2.054   5.192  0.00  0.00    +0.002 A 
ATOM     16  C   UNL     1       1.057  -1.726   4.542  0.00  0.00    +0.030 A 
ATOM     17  C   UNL     1       1.108  -1.256   3.227  0.00  0.00    +0.089 A 
ATOM     18  N   UNL     1       0.162  -0.853   2.340  0.00  0.00    -0.231 NA
ENDBRANCH   8   9
ENDBRANCH   1   8
BRANCH   4  19
ATOM     19  C   UNL     1      -4.053  -1.252  -2.393  0.00  0.00    +0.143 C 
BRANCH  19  20
ATOM     20  C   UNL     1      -5.432  -1.789  -2.108  0.00  0.00    -0.005 A 
ATOM     21  C   UNL     1      -5.702  -3.132  -2.288  0.00  0.00    +0.007 A 
ATOM     22  C   UNL     1      -6.967  -3.625  -2.027  0.00  0.00    +0.000 A 
ATOM     23  C   UNL     1      -7.965  -2.776  -1.585  0.00  0.00    +0.002 A 
ATOM     24  C   UNL     1      -7.702  -1.433  -1.405  0.00  0.00    +0.028 A 
ATOM     25  C   UNL     1      -6.431  -0.936  -1.660  0.00  0.00    +0.070 A 
BRANCH  25  26
ATOM     26  N   UNL     1      -6.159   0.426  -1.471  0.00  0.00    -0.240 N 
ATOM     27  C   UNL     1      -7.034   1.360  -1.036  0.00  0.00    +0.114 A 
ATOM     28  C   UNL     1      -6.383   2.546  -0.991  0.00  0.00    +0.041 A 
ATOM     29  C   UNL     1      -5.066   2.330  -1.412  0.00  0.00    +0.135 A 
ATOM     30  N   UNL     1      -4.929   1.060  -1.694  0.00  0.00    -0.175 NA
ENDBRANCH  25  26
ENDBRANCH  19  20
ENDBRANCH   4  19
TORSDOF 5
