REMARK  Name = ZINC18709330
REMARK  9 active torsions:
REMARK  status: ('A' for Active; 'I' for Inactive)
REMARK    1  A    between atoms: C_1  and  C_2
REMARK    2  A    between atoms: C_2  and  O_3
REMARK    3  A    between atoms: O_3  and  C_4
REMARK    4  A    between atoms: C_4  and  C_6
REMARK    5  A    between atoms: C_7  and  C_22
REMARK    6  A    between atoms: C_12  and  C_14
REMARK    7  A    between atoms: C_17  and  O_20
REMARK    8  A    between atoms: O_20  and  C_21
REMARK    9  A    between atoms: C_22  and  N_23
REMARK                            x       y       z     vdW  Elec       q    Type
REMARK                         _______ _______ _______ _____ _____    ______ ____
ROOT
ATOM      1  C   UNL     1       3.137   1.128   1.508  0.00  0.00    +0.079 C 
ATOM      2  C   UNL     1       4.454   1.427   1.497  0.00  0.00    +0.038 C 
ATOM      3  N   UNL     1       5.065   1.871   0.359  0.00  0.00    -0.271 N 
ATOM      4  C   UNL     1       4.430   2.043  -0.807  0.00  0.00    +0.304 C 
ATOM      5  O   UNL     1       5.060   2.444  -1.766  0.00  0.00    -0.252 OA
ATOM      6  N   UNL     1       3.115   1.787  -0.952  0.00  0.00    -0.288 N 
ATOM      7  C   UNL     1       2.362   1.303   0.218  0.00  0.00    +0.144 C 
ATOM      8  H   UNL     1       6.139   2.109   0.369  0.00  0.00    +0.156 HD
ATOM      9  H   UNL     1       2.603   1.932  -1.914  0.00  0.00    +0.151 HD
ENDROOT
BRANCH   7  10
ATOM     10  C   UNL     1       1.236   2.270   0.478  0.00  0.00    -0.022 A 
ATOM     11  C   UNL     1      -0.043   1.795   0.700  0.00  0.00    +0.009 A 
ATOM     12  C   UNL     1      -1.078   2.680   0.934  0.00  0.00    +0.046 A 
ATOM     13  C   UNL     1      -0.831   4.045   0.957  0.00  0.00    +0.120 A 
ATOM     14  C   UNL     1       0.454   4.518   0.735  0.00  0.00    +0.046 A 
ATOM     15  C   UNL     1       1.485   3.630   0.496  0.00  0.00    +0.009 A 
BRANCH  13  16
ATOM     16  O   UNL     1      -1.846   4.917   1.192  0.00  0.00    -0.495 OA
ATOM     17  C   UNL     1      -3.143   4.359   1.412  0.00  0.00    +0.277 C 
ENDBRANCH  13  16
ENDBRANCH   7  10
BRANCH   1  18
ATOM     18  C   UNL     1       2.502   0.669   2.686  0.00  0.00    +0.339 C 
ATOM     19  O   UNL     1       3.108   0.661   3.741  0.00  0.00    -0.245 OA
BRANCH  18  20
ATOM     20  O   UNL     1       1.223   0.239   2.639  0.00  0.00    -0.462 OA
BRANCH  20  22
ATOM     21  C   UNL     1      -0.797  -0.656   3.617  0.00  0.00    +0.048 C 
ATOM     22  C   UNL     1       0.645  -0.211   3.866  0.00  0.00    +0.229 C 
ENDBRANCH  20  22
ENDBRANCH  18  20
ENDBRANCH   1  18
BRANCH   2  23
ATOM     23  C   UNL     1       5.261   1.268   2.759  0.00  0.00    +0.136 C 
BRANCH  23  24
ATOM     24  N   UNL     1       5.088   2.456   3.605  0.00  0.00    -0.294 NA
ATOM     25  C   UNL     1       5.671   3.645   2.969  0.00  0.00    +0.103 C 
ATOM     26  C   UNL     1       5.400   4.872   3.842  0.00  0.00    +0.122 C 
ATOM     27  N   UNL     1       5.976   4.657   5.177  0.00  0.00    -0.314 N 
ATOM     28  C   UNL     1       5.393   3.468   5.813  0.00  0.00    +0.122 C 
ATOM     29  C   UNL     1       5.663   2.240   4.940  0.00  0.00    +0.103 C 
ATOM     30  C   UNL     1       5.811   5.781   5.977  0.00  0.00    +0.099 A 
ATOM     31  C   UNL     1       6.299   7.012   5.547  0.00  0.00    +0.042 A 
ATOM     32  C   UNL     1       6.128   8.122   6.353  0.00  0.00    +0.005 A 
ATOM     33  C   UNL     1       5.474   7.965   7.568  0.00  0.00    +0.018 A 
ATOM     34  C   UNL     1       5.016   6.715   7.933  0.00  0.00    +0.084 A 
ATOM     35  N   UNL     1       5.188   5.673   7.140  0.00  0.00    -0.350 N 
ATOM     36  H   UNL     1       4.799   4.698   7.467  0.00  0.00    +0.166 HD
ENDBRANCH  23  24
ENDBRANCH   2  23
TORSDOF 7
