REMARK  Name = ZINC15467438
REMARK  8 active torsions:
REMARK  status: ('A' for Active; 'I' for Inactive)
REMARK    1  A    between atoms: C_1  and  C_2
REMARK    2  A    between atoms: C_5  and  S_8
REMARK    3  A    between atoms: S_8  and  C_9
REMARK    4  A    between atoms: C_9  and  C_10
REMARK    5  A    between atoms: N_12  and  N_13
REMARK    6  A    between atoms: C_14  and  C_16
REMARK    7  A    between atoms: C_17  and  C_18
REMARK    8  A    between atoms: C_22  and  N_24
REMARK                            x       y       z     vdW  Elec       q    Type
REMARK                         _______ _______ _______ _____ _____    ______ ____
ROOT
ATOM      1  N   UNL     1      -1.202  -0.721   0.010  0.00  0.00    -0.231 N 
ATOM      2  C   UNL     1      -1.183  -2.069   0.002  0.00  0.00    +0.253 C 
ATOM      3  O   UNL     1      -0.121  -2.663  -0.011  0.00  0.00    -0.269 OA
ATOM      4  H   UNL     1      -2.048  -0.247   0.020  0.00  0.00    +0.173 HD
ENDROOT
BRANCH   1   7
ATOM      5  C   UNL     1      -0.016   1.344   0.009  0.00  0.00    +0.239 C 
ATOM      6  O   UNL     1      -1.075   1.936   0.018  0.00  0.00    -0.273 OA
ATOM      7  N   UNL     1       0.002  -0.004   0.002  0.00  0.00    -0.233 N 
ATOM      8  H   UNL     1       0.849  -0.478  -0.009  0.00  0.00    +0.173 HD
BRANCH   5   9
ATOM      9  C   UNL     1       1.278   2.115   0.001  0.00  0.00    +0.171 C 
BRANCH   9  10
ATOM     10  S   UNL     1       0.923   3.893   0.014  0.00  0.00    -0.116 S 
BRANCH  10  15
ATOM     11  C   UNL     1       6.380   6.474  -0.023  0.00  0.00    +0.044 C 
ATOM     12  C   UNL     1       5.017   5.830  -0.014  0.00  0.00    -0.050 A 
ATOM     13  C   UNL     1       3.881   6.618   0.001  0.00  0.00    +0.004 A 
ATOM     14  C   UNL     1       2.631   6.032   0.009  0.00  0.00    +0.015 A 
ATOM     15  C   UNL     1       2.516   4.647   0.003  0.00  0.00    +0.008 A 
ATOM     16  C   UNL     1       3.659   3.857  -0.006  0.00  0.00    +0.015 A 
ATOM     17  C   UNL     1       4.906   4.451  -0.021  0.00  0.00    +0.004 A 
ENDBRANCH  10  15
ENDBRANCH   9  10
ENDBRANCH   5   9
ENDBRANCH   1   7
BRANCH   2  18
ATOM     18  C   UNL     1      -2.441  -2.818   0.010  0.00  0.00    +0.069 C 
ATOM     19  C   UNL     1      -2.423  -4.166   0.003  0.00  0.00    +0.013 C 
BRANCH  19  20
ATOM     20  C   UNL     1      -3.687  -4.919   0.011  0.00  0.00    -0.023 A 
ATOM     21  C   UNL     1      -4.910  -4.240   0.026  0.00  0.00    +0.009 A 
ATOM     22  C   UNL     1      -6.090  -4.951   0.034  0.00  0.00    +0.023 A 
ATOM     23  C   UNL     1      -6.067  -6.337   0.026  0.00  0.00    +0.071 A 
ATOM     24  C   UNL     1      -4.860  -7.016   0.011  0.00  0.00    +0.145 A 
ATOM     25  C   UNL     1      -3.672  -6.317  -0.003  0.00  0.00    +0.042 A 
ATOM     26 CL   UNL     1      -7.559  -7.225   0.036  0.00  0.00    -0.081 Cl
BRANCH  24  27
ATOM     27  N   UNL     1      -4.846  -8.496   0.003  0.00  0.00    +0.058 N 
ATOM     28  O   UNL     1      -3.786  -9.095  -0.010  0.00  0.00    -0.126 OA
ATOM     29  O   UNL     1      -5.895  -9.116   0.010  0.00  0.00    -0.126 OA
ENDBRANCH  24  27
ENDBRANCH  19  20
ENDBRANCH   2  18
TORSDOF 7
