REMARK  Name = ZINC35037078
REMARK  15 active torsions:
REMARK  status: ('A' for Active; 'I' for Inactive)
REMARK    1  A    between atoms: C_1  and  C_2
REMARK    2  A    between atoms: C_2  and  C_3
REMARK    3  A    between atoms: C_3  and  N_4
REMARK    4  A    between atoms: C_14  and  C_15
REMARK    5  A    between atoms: C_15  and  C_17
REMARK    6  A    between atoms: C_15  and  N_19
REMARK    7  A    between atoms: C_17  and  C_18
REMARK    8  A    between atoms: N_19  and  C_20
REMARK    9  A    between atoms: C_20  and  C_21
REMARK   10  A    between atoms: C_21  and  N_22
REMARK   11  A    between atoms: N_22  and  C_23
REMARK   12  A    between atoms: N_22  and  C_24
REMARK   13  A    between atoms: N_27  and  C_28
REMARK   14  A    between atoms: C_31  and  C_34
REMARK   15  A    between atoms: C_34  and  C_35
REMARK                            x       y       z     vdW  Elec       q    Type
REMARK                         _______ _______ _______ _____ _____    ______ ____
ROOT
ATOM      1  N   UNL     1      -1.162  -3.119   3.523  0.00  0.00    -0.277 N 
ATOM      2  C   UNL     1      -2.103  -3.159   4.487  0.00  0.00    +0.307 C 
ATOM      3  O   UNL     1      -3.102  -2.473   4.391  0.00  0.00    -0.252 OA
ATOM      4  N   UNL     1      -1.936  -3.961   5.558  0.00  0.00    -0.269 N 
ATOM      5  H   UNL     1      -1.107  -4.451   5.673  0.00  0.00    +0.156 HD
ENDROOT
BRANCH   4   6
ATOM      6  C   UNL     1      -2.959  -4.085   6.505  0.00  0.00    +0.035 A 
ATOM      7  C   UNL     1      -2.648  -4.283   7.844  0.00  0.00    +0.023 A 
ATOM      8  C   UNL     1      -3.660  -4.405   8.776  0.00  0.00    +0.005 A 
ATOM      9  C   UNL     1      -4.982  -4.330   8.377  0.00  0.00    -0.048 A 
ATOM     10  C   UNL     1      -5.295  -4.133   7.045  0.00  0.00    +0.005 A 
ATOM     11  C   UNL     1      -4.288  -4.005   6.108  0.00  0.00    +0.023 A 
BRANCH   9  12
ATOM     12  C   UNL     1      -6.083  -4.463   9.397  0.00  0.00    +0.032 C 
ATOM     13  C   UNL     1      -6.438  -3.080   9.948  0.00  0.00    +0.009 C 
ENDBRANCH   9  12
ENDBRANCH   4   6
BRANCH   1  14
ATOM     14  C   UNL     1      -1.343  -2.248   2.359  0.00  0.00    +0.143 C 
BRANCH  14  25
ATOM     15  N   UNL     1      -2.504  -3.157   0.389  0.00  0.00    -0.295 N 
ATOM     16  C   UNL     1      -2.562  -3.888  -0.749  0.00  0.00    +0.262 A 
ATOM     17  O   UNL     1      -3.587  -3.960  -1.402  0.00  0.00    -0.267 OA
ATOM     18  C   UNL     1      -1.340  -4.591  -1.165  0.00  0.00    +0.065 A 
ATOM     19  C   UNL     1      -1.294  -5.369  -2.320  0.00  0.00    +0.015 A 
ATOM     20  C   UNL     1      -0.122  -6.006  -2.663  0.00  0.00    +0.001 A 
ATOM     21  C   UNL     1       1.010  -5.879  -1.868  0.00  0.00    +0.002 A 
ATOM     22  C   UNL     1       0.986  -5.115  -0.723  0.00  0.00    +0.028 A 
ATOM     23  C   UNL     1      -0.191  -4.459  -0.354  0.00  0.00    +0.078 A 
ATOM     24  N   UNL     1      -0.259  -3.696   0.765  0.00  0.00    -0.232 NA
ATOM     25  C   UNL     1      -1.351  -3.082   1.104  0.00  0.00    +0.134 A 
BRANCH  15  26
ATOM     26  C   UNL     1      -3.693  -2.436   0.850  0.00  0.00    +0.126 C 
BRANCH  26  28
ATOM     27  C   UNL     1      -4.929  -0.268   0.737  0.00  0.00    +0.005 C 
ATOM     28  C   UNL     1      -3.633  -0.988   0.360  0.00  0.00    +0.018 C 
ENDBRANCH  26  28
ENDBRANCH  15  26
ENDBRANCH  14  25
BRANCH  14  29
ATOM     29  C   UNL     1      -0.194  -1.239   2.293  0.00  0.00    +0.027 C 
ATOM     30  C   UNL     1      -0.251  -0.320   3.515  0.00  0.00    +0.006 C 
ENDBRANCH  14  29
ENDBRANCH   1  14
BRANCH   1  31
ATOM     31  C   UNL     1       0.042  -3.946   3.639  0.00  0.00    +0.091 C 
BRANCH  31  32
ATOM     32  C   UNL     1       1.130  -3.163   4.377  0.00  0.00    -0.060 C 
BRANCH  32  33
ATOM     33  N   UNL     1       2.337  -3.992   4.494  0.00  0.00    +0.377 N 
ATOM     34  C   UNL     1       2.884  -4.250   3.155  0.00  0.00    -0.097 C 
ATOM     35  C   UNL     1       3.338  -3.287   5.305  0.00  0.00    -0.097 C 
ATOM     36  H   UNL     1       2.102  -4.868   4.936  0.00  0.00    -0.083 HD
ENDBRANCH  32  33
ENDBRANCH  31  32
ENDBRANCH   1  31
TORSDOF 10
