REMARK  Name = ZINC12004343
REMARK  12 active torsions:
REMARK  status: ('A' for Active; 'I' for Inactive)
REMARK    1  A    between atoms: C_1  and  C_2
REMARK    2  A    between atoms: C_2  and  O_3
REMARK    3  A    between atoms: O_3  and  C_4
REMARK    4  A    between atoms: C_8  and  C_11
REMARK    5  A    between atoms: C_9  and  O_10
REMARK    6  A    between atoms: C_11  and  N_75
REMARK    7  A    between atoms: C_18  and  C_20
REMARK    8  A    between atoms: N_22  and  C_23
REMARK    9  A    between atoms: C_23  and  C_24
REMARK   10  A    between atoms: C_24  and  C_25
REMARK   11  A    between atoms: C_25  and  C_26
REMARK   12  A    between atoms: C_25  and  C_32
REMARK                            x       y       z     vdW  Elec       q    Type
REMARK                         _______ _______ _______ _____ _____    ______ ____
ROOT
ATOM      1  C   UNL     1       0.174   5.559   1.798  0.00  0.00    -0.078 C 
ATOM      2  C   UNL     1      -0.929   4.540   1.492  0.00  0.00    -0.011 C 
ATOM      3  C   UNL     1      -0.287   3.159   1.324  0.00  0.00    -0.021 C 
ATOM      4  C   UNL     1       0.887   3.113   0.340  0.00  0.00    -0.011 C 
ATOM      5  C   UNL     1       1.883   4.216   0.714  0.00  0.00    -0.078 C 
ATOM      6  C   UNL     1      -0.225   2.248   2.549  0.00  0.00    +0.020 C 
ATOM      7  C   UNL     1      -1.196   1.934   1.408  0.00  0.00    +0.082 C 
ATOM      8  N   UNL     1       1.177   5.517   0.711  0.00  0.00    +0.382 N 
ATOM      9  H   UNL     1       0.696   5.631  -0.189  0.00  0.00    -0.081 HD
ENDROOT
BRANCH   7  10
ATOM     10  C   UNL     1      -2.663   2.172   1.657  0.00  0.00    +0.217 C 
ATOM     11  O   UNL     1      -3.081   3.304   1.783  0.00  0.00    -0.275 OA
ATOM     12  N   UNL     1      -3.510   1.128   1.741  0.00  0.00    -0.315 N 
ATOM     13  H   UNL     1      -3.176   0.223   1.640  0.00  0.00    +0.149 HD
BRANCH  12  14
ATOM     14  C   UNL     1      -4.936   1.359   1.983  0.00  0.00    +0.105 C 
BRANCH  14  15
ATOM     15  C   UNL     1      -5.670   0.017   2.032  0.00  0.00    +0.031 C 
BRANCH  15  16
ATOM     16  C   UNL     1      -7.159   0.259   2.285  0.00  0.00    +0.050 C 
BRANCH  16  17
ATOM     17  C   UNL     1      -7.755   0.995   1.113  0.00  0.00    -0.040 A 
ATOM     18  C   UNL     1      -8.483   2.152   1.321  0.00  0.00    +0.004 A 
ATOM     19  C   UNL     1      -9.025   2.830   0.246  0.00  0.00    +0.000 A 
ATOM     20  C   UNL     1      -8.848   2.346  -1.037  0.00  0.00    +0.000 A 
ATOM     21  C   UNL     1      -8.124   1.187  -1.245  0.00  0.00    +0.000 A 
ATOM     22  C   UNL     1      -7.577   0.511  -0.170  0.00  0.00    +0.004 A 
ENDBRANCH  16  17
BRANCH  16  23
ATOM     23  C   UNL     1      -7.861  -1.064   2.456  0.00  0.00    -0.040 A 
ATOM     24  C   UNL     1      -7.709  -2.055   1.504  0.00  0.00    +0.004 A 
ATOM     25  C   UNL     1      -8.349  -3.270   1.663  0.00  0.00    +0.000 A 
ATOM     26  C   UNL     1      -9.148  -3.490   2.769  0.00  0.00    +0.000 A 
ATOM     27  C   UNL     1      -9.304  -2.498   3.719  0.00  0.00    +0.000 A 
ATOM     28  C   UNL     1      -8.660  -1.284   3.562  0.00  0.00    +0.004 A 
ENDBRANCH  16  23
ENDBRANCH  15  16
ENDBRANCH  14  15
ENDBRANCH  12  14
ENDBRANCH   7  10
BRANCH   8  29
ATOM     29  C   UNL     1       2.148   6.617   0.879  0.00  0.00    -0.039 C 
BRANCH  29  34
ATOM     30  C   UNL     1       0.254   9.361   2.671  0.00  0.00    +0.162 A 
ATOM     31  C   UNL     1       0.027  10.254   1.635  0.00  0.00    +0.049 A 
ATOM     32  C   UNL     1       0.485   9.968   0.363  0.00  0.00    +0.004 A 
ATOM     33  C   UNL     1       1.175   8.795   0.121  0.00  0.00    +0.005 A 
ATOM     34  C   UNL     1       1.400   7.897   1.148  0.00  0.00    -0.019 A 
ATOM     35  C   UNL     1       0.944   8.178   2.426  0.00  0.00    +0.160 A 
BRANCH  35  36
ATOM     36  O   UNL     1       1.168   7.298   3.438  0.00  0.00    -0.503 OA
ATOM     37  H   UNL     1       1.996   7.450   3.914  0.00  0.00    +0.292 HD
ENDBRANCH  35  36
BRANCH  30  38
ATOM     38  O   UNL     1      -0.197   9.641   3.923  0.00  0.00    -0.489 OA
BRANCH  38  40
ATOM     39  C   UNL     1      -1.323  11.013   5.563  0.00  0.00    +0.048 C 
ATOM     40  C   UNL     1      -0.896  10.874   4.100  0.00  0.00    +0.226 C 
ENDBRANCH  38  40
ENDBRANCH  30  38
ENDBRANCH  29  34
ENDBRANCH   8  29
TORSDOF 11
