REMARK  Name = ZINC43478290
REMARK  5 active torsions:
REMARK  status: ('A' for Active; 'I' for Inactive)
REMARK    1  A    between atoms: C_3  and  O_20
REMARK    2  A    between atoms: C_6  and  C_7
REMARK    3  A    between atoms: C_7  and  N_8
REMARK    4  A    between atoms: N_8  and  C_9
REMARK    5  A    between atoms: C_12  and  N_16
REMARK                            x       y       z     vdW  Elec       q    Type
REMARK                         _______ _______ _______ _____ _____    ______ ____
ROOT
ATOM      1  N   UNL     1      -1.727  -1.016  -1.368  0.00  0.00    -0.339 N 
ATOM      2  H   UNL     1      -1.192  -0.690  -2.108  0.00  0.00    +0.146 HD
ENDROOT
BRANCH   1   3
ATOM      3  C   UNL     1      -2.911  -1.716  -1.615  0.00  0.00    +0.046 A 
ATOM      4  C   UNL     1      -3.680  -2.179  -0.555  0.00  0.00    +0.026 A 
ATOM      5  C   UNL     1      -4.850  -2.870  -0.803  0.00  0.00    +0.034 A 
ATOM      6  C   UNL     1      -5.255  -3.103  -2.105  0.00  0.00    +0.128 A 
ATOM      7  C   UNL     1      -4.492  -2.645  -3.163  0.00  0.00    +0.054 A 
ATOM      8  C   UNL     1      -3.323  -1.947  -2.922  0.00  0.00    +0.064 A 
ATOM      9 CL   UNL     1      -2.369  -1.365  -4.250  0.00  0.00    -0.082 Cl
BRANCH   6  10
ATOM     10  N   UNL     1      -6.509  -3.846  -2.366  0.00  0.00    +0.056 N 
ATOM     11  O   UNL     1      -7.177  -4.248  -1.442  0.00  0.00    -0.126 OA
ATOM     12  O   UNL     1      -6.864  -4.050  -3.503  0.00  0.00    -0.126 OA
ENDBRANCH   6  10
ENDBRANCH   1   3
BRANCH   1  13
ATOM     13  C   UNL     1      -1.293  -0.774   0.011  0.00  0.00    +0.137 C 
BRANCH  13  19
ATOM     14  C   UNL     1      -0.017   1.378   0.010  0.00  0.00    +0.009 A 
ATOM     15  C   UNL     1       1.170   2.087   0.002  0.00  0.00    +0.047 A 
ATOM     16  C   UNL     1       2.380   1.411  -0.013  0.00  0.00    +0.135 A 
ATOM     17  C   UNL     1       2.397   0.022  -0.021  0.00  0.00    +0.083 A 
ATOM     18  C   UNL     1       1.208  -0.682  -0.013  0.00  0.00    +0.028 A 
ATOM     19  C   UNL     1       0.002  -0.004   0.002  0.00  0.00    -0.029 A 
ATOM     20 CL   UNL     1       3.910  -0.828  -0.040  0.00  0.00    -0.080 Cl
BRANCH  16  21
ATOM     21  O   UNL     1       3.548   2.106  -0.021  0.00  0.00    -0.505 OA
ATOM     22  H   UNL     1       3.895   2.303   0.860  0.00  0.00    +0.292 HD
ENDBRANCH  16  21
ENDBRANCH  13  19
ENDBRANCH   1  13
TORSDOF 5
