REMARK  Name = ZINC09562753
REMARK  4 active torsions:
REMARK  status: ('A' for Active; 'I' for Inactive)
REMARK    1  A    between atoms: C_10  and  C_12
REMARK    2  A    between atoms: N_14  and  C_15
REMARK    3  A    between atoms: C_17  and  S_22
REMARK    4  A    between atoms: S_22  and  N_25
REMARK                            x       y       z     vdW  Elec       q    Type
REMARK                         _______ _______ _______ _____ _____    ______ ____
ROOT
ATOM      1  C   UNL     1       1.213   1.641   0.045  0.00  0.00    +0.054 A 
ATOM      2  C   UNL     1       1.245   3.028  -0.023  0.00  0.00    +0.053 A 
ATOM      3  C   UNL     1       2.456   3.691   0.015  0.00  0.00    +0.107 A 
ATOM      4  C   UNL     1       3.635   2.977   0.121  0.00  0.00    +0.030 A 
ATOM      5  C   UNL     1       3.608   1.597   0.189  0.00  0.00    +0.024 A 
ATOM      6  C   UNL     1       2.400   0.926   0.157  0.00  0.00    +0.062 A 
ATOM      7 CL   UNL     1       2.365  -0.807   0.251  0.00  0.00    -0.082 Cl
ENDROOT
BRANCH   1  10
ATOM      8  C   UNL     1      -1.081   1.542  -0.576  0.00  0.00    +0.284 C 
ATOM      9  O   UNL     1      -0.959   2.603  -1.155  0.00  0.00    -0.266 OA
ATOM     10  N   UNL     1      -0.011   0.966   0.007  0.00  0.00    -0.278 N 
ATOM     11  H   UNL     1      -0.089   0.081   0.397  0.00  0.00    +0.155 HD
BRANCH   8  21
ATOM     12  C   UNL     1      -6.072  -2.347   0.469  0.00  0.00    +0.001 A 
ATOM     13  C   UNL     1      -4.913  -2.858   1.035  0.00  0.00    +0.004 A 
ATOM     14  C   UNL     1      -3.718  -2.179   0.929  0.00  0.00    +0.047 A 
ATOM     15  C   UNL     1      -3.669  -0.967   0.247  0.00  0.00    +0.139 A 
ATOM     16  C   UNL     1      -4.847  -0.457  -0.324  0.00  0.00    +0.064 A 
ATOM     17  C   UNL     1      -6.047  -1.158  -0.206  0.00  0.00    +0.015 A 
ATOM     18  C   UNL     1      -4.778   0.829  -1.044  0.00  0.00    +0.193 A 
ATOM     19  O   UNL     1      -5.763   1.325  -1.562  0.00  0.00    -0.287 OA
ATOM     20  C   UNL     1      -3.463   1.484  -1.107  0.00  0.00    +0.103 A 
ATOM     21  C   UNL     1      -2.405   0.881  -0.512  0.00  0.00    +0.194 A 
ATOM     22  O   UNL     1      -2.509  -0.292   0.129  0.00  0.00    -0.450 OA
ENDBRANCH   8  21
ENDBRANCH   1  10
BRANCH   3  23
ATOM     23  S   UNL     1       2.498   5.451  -0.072  0.00  0.00    +0.061 S 
ATOM     24  O   UNL     1       3.782   5.803  -0.567  0.00  0.00    -0.153 OA
ATOM     25  O   UNL     1       1.297   5.854  -0.716  0.00  0.00    -0.153 OA
BRANCH  23  26
ATOM     26  N   UNL     1       2.416   6.020   1.481  0.00  0.00    -0.177 NA
ATOM     27  C   UNL     1       1.118   6.309   2.105  0.00  0.00    +0.109 C 
ATOM     28  C   UNL     1       1.036   5.548   3.437  0.00  0.00    +0.017 C 
ATOM     29  C   UNL     1       2.244   5.914   4.302  0.00  0.00    +0.003 C 
ATOM     30  C   UNL     1       3.531   5.496   3.587  0.00  0.00    +0.017 C 
ATOM     31  C   UNL     1       3.641   6.251   2.259  0.00  0.00    +0.109 C 
ENDBRANCH  23  26
ENDBRANCH   3  23
TORSDOF 4
