REMARK  Name = ZINC04720991
REMARK  13 active torsions:
REMARK  status: ('A' for Active; 'I' for Inactive)
REMARK    1  A    between atoms: C_1  and  O_2
REMARK    2  A    between atoms: O_2  and  C_3
REMARK    3  A    between atoms: C_5  and  O_34
REMARK    4  A    between atoms: C_7  and  O_25
REMARK    5  A    between atoms: C_9  and  O_24
REMARK    6  A    between atoms: C_11  and  C_14
REMARK    7  A    between atoms: C_14  and  O_15
REMARK    8  A    between atoms: O_15  and  C_16
REMARK    9  A    between atoms: C_16  and  C_18
REMARK   10  A    between atoms: O_25  and  C_26
REMARK   11  A    between atoms: C_26  and  C_28
REMARK   12  A    between atoms: O_34  and  C_35
REMARK   13  A    between atoms: C_35  and  C_37
REMARK                            x       y       z     vdW  Elec       q    Type
REMARK                         _______ _______ _______ _____ _____    ______ ____
ROOT
ATOM      1  C   UNL     1      -1.310   3.574   2.465  0.00  0.00    +0.295 C 
ATOM      2  C   UNL     1      -0.667   3.047   3.750  0.00  0.00    +0.275 C 
ATOM      3  C   UNL     1      -0.746   1.518   3.762  0.00  0.00    +0.253 C 
ATOM      4  C   UNL     1      -0.063   0.972   2.504  0.00  0.00    +0.191 C 
ATOM      5  C   UNL     1      -0.729   1.579   1.267  0.00  0.00    +0.191 C 
ATOM      6  O   UNL     1      -0.647   3.004   1.334  0.00  0.00    -0.338 OA
ENDROOT
BRANCH   1   8
ATOM      7  C   UNL     1      -3.414   3.752   1.331  0.00  0.00    +0.197 C 
ATOM      8  O   UNL     1      -2.692   3.212   2.440  0.00  0.00    -0.351 OA
ENDBRANCH   1   8
BRANCH   4   9
ATOM      9  O   UNL     1       1.322   1.325   2.522  0.00  0.00    -0.385 OA
ATOM     10  H   UNL     1       1.817   1.015   1.752  0.00  0.00    +0.210 HD
ENDBRANCH   4   9
BRANCH   5  11
ATOM     11  C   UNL     1      -0.013   1.086   0.008  0.00  0.00    +0.266 C 
BRANCH  11  12
ATOM     12  O   UNL     1      -0.715   1.567  -1.168  0.00  0.00    -0.458 OA
BRANCH  12  13
ATOM     13  C   UNL     1      -0.210   1.218  -2.367  0.00  0.00    +0.339 C 
ATOM     14  O   UNL     1       0.790   0.531  -2.429  0.00  0.00    -0.245 OA
BRANCH  13  15
ATOM     15  C   UNL     1      -0.872   1.671  -3.608  0.00  0.00    +0.059 A 
ATOM     16  C   UNL     1      -2.024   2.456  -3.541  0.00  0.00    +0.015 A 
ATOM     17  C   UNL     1      -2.634   2.881  -4.703  0.00  0.00    +0.001 A 
ATOM     18  C   UNL     1      -2.112   2.521  -5.933  0.00  0.00    +0.000 A 
ATOM     19  C   UNL     1      -0.974   1.739  -6.007  0.00  0.00    +0.001 A 
ATOM     20  C   UNL     1      -0.350   1.312  -4.852  0.00  0.00    +0.015 A 
ENDBRANCH  13  15
ENDBRANCH  12  13
ENDBRANCH  11  12
ENDBRANCH   5  11
BRANCH   3  21
ATOM     21  O   UNL     1      -0.073   1.005   4.942  0.00  0.00    -0.451 OA
BRANCH  21  22
ATOM     22  C   UNL     1      -0.533  -0.153   5.454  0.00  0.00    +0.340 C 
ATOM     23  O   UNL     1      -1.470  -0.719   4.929  0.00  0.00    -0.245 OA
BRANCH  22  24
ATOM     24  C   UNL     1       0.104  -0.734   6.654  0.00  0.00    +0.059 A 
ATOM     25  C   UNL     1       1.186  -0.089   7.256  0.00  0.00    +0.015 A 
ATOM     26  C   UNL     1       1.771  -0.634   8.380  0.00  0.00    +0.001 A 
ATOM     27  C   UNL     1       1.297  -1.824   8.903  0.00  0.00    +0.000 A 
ATOM     28  C   UNL     1       0.229  -2.471   8.308  0.00  0.00    +0.001 A 
ATOM     29  C   UNL     1      -0.370  -1.934   7.187  0.00  0.00    +0.015 A 
ENDBRANCH  22  24
ENDBRANCH  21  22
ENDBRANCH   3  21
BRANCH   2  30
ATOM     30  O   UNL     1      -1.376   3.579   4.901  0.00  0.00    -0.449 OA
BRANCH  30  31
ATOM     31  C   UNL     1      -0.936   4.748   5.403  0.00  0.00    +0.340 C 
ATOM     32  O   UNL     1       0.014   5.309   4.895  0.00  0.00    -0.245 OA
BRANCH  31  33
ATOM     33  C   UNL     1      -1.609   5.349   6.573  0.00  0.00    +0.059 A 
ATOM     34  C   UNL     1      -2.704   4.710   7.157  0.00  0.00    +0.015 A 
ATOM     35  C   UNL     1      -3.325   5.274   8.252  0.00  0.00    +0.001 A 
ATOM     36  C   UNL     1      -2.870   6.476   8.766  0.00  0.00    +0.000 A 
ATOM     37  C   UNL     1      -1.788   7.117   8.189  0.00  0.00    +0.001 A 
ATOM     38  C   UNL     1      -1.155   6.562   7.097  0.00  0.00    +0.015 A 
ENDBRANCH  31  33
ENDBRANCH  30  31
ENDBRANCH   2  30
TORSDOF 12
