REMARK  Name = ZINC20673689
REMARK  2 active torsions:
REMARK  status: ('A' for Active; 'I' for Inactive)
REMARK    1  A    between atoms: C_1  and  C_2
REMARK    2  A    between atoms: C_5  and  C_8
REMARK                            x       y       z     vdW  Elec       q    Type
REMARK                         _______ _______ _______ _____ _____    ______ ____
ROOT
ATOM      1  C   UNL     1      -2.721   2.388  -2.360  0.00  0.00    +0.010 A 
ATOM      2  C   UNL     1      -1.957   2.449  -3.534  0.00  0.00    +0.092 A 
ATOM      3  C   UNL     1      -2.525   2.896  -4.809  0.00  0.00    +0.263 A 
ATOM      4  O   UNL     1      -3.692   3.233  -4.898  0.00  0.00    -0.267 OA
ATOM      5  N   UNL     1      -1.703   2.919  -5.884  0.00  0.00    -0.294 N 
ATOM      6  H   UNL     1      -2.085   3.247  -6.862  0.00  0.00    +0.172 HD
ATOM      7  C   UNL     1      -0.400   2.538  -5.760  0.00  0.00    +0.200 A 
ATOM      8  N   UNL     1       0.126   2.135  -4.629  0.00  0.00    -0.196 NA
ATOM      9  C   UNL     1      -0.594   2.068  -3.495  0.00  0.00    +0.169 A 
ATOM     10  N   UNL     1      -0.045   1.653  -2.354  0.00  0.00    -0.231 NA
ATOM     11  C   UNL     1      -0.725   1.577  -1.226  0.00  0.00    +0.055 A 
ATOM     12  C   UNL     1      -2.076   1.944  -1.184  0.00  0.00    +0.047 A 
ATOM     13  C   UNL     1      -2.828   1.874   0.074  0.00  0.00    +0.165 C 
ATOM     14  O   UNL     1      -3.927   2.377   0.177  0.00  0.00    -0.292 OA
ATOM     15  C   UNL     1      -2.184   1.152   1.240  0.00  0.00    +0.080 C 
ATOM     16  C   UNL     1      -0.710   1.569   1.276  0.00  0.00    +0.014 C 
ATOM     17  C   UNL     1      -0.013   1.086   0.008  0.00  0.00    +0.056 C 
ATOM     18  N   UNL     1       0.398   2.577  -6.871  0.00  0.00    -0.301 N 
ATOM     19  C   UNL     1      -0.235   1.881  -7.999  0.00  0.00    +0.108 C 
ATOM     20  C   UNL     1       0.614   2.070  -9.258  0.00  0.00    +0.019 C 
ATOM     21  C   UNL     1       2.017   1.509  -9.010  0.00  0.00    +0.003 C 
ATOM     22  C   UNL     1       2.635   2.217  -7.801  0.00  0.00    +0.019 C 
ATOM     23  C   UNL     1       1.727   2.024  -6.584  0.00  0.00    +0.108 C 
ENDROOT
BRANCH   1  28
ATOM     24  C   UNL     1      -8.275   3.894  -2.332  0.00  0.00    +0.044 C 
ATOM     25  C   UNL     1      -6.821   3.500  -2.339  0.00  0.00    -0.050 A 
ATOM     26  C   UNL     1      -5.851   4.450  -2.603  0.00  0.00    +0.004 A 
ATOM     27  C   UNL     1      -4.518   4.096  -2.611  0.00  0.00    +0.009 A 
ATOM     28  C   UNL     1      -4.148   2.775  -2.352  0.00  0.00    -0.016 A 
ATOM     29  C   UNL     1      -5.132   1.820  -2.092  0.00  0.00    +0.009 A 
ATOM     30  C   UNL     1      -6.462   2.189  -2.081  0.00  0.00    +0.004 A 
ENDBRANCH   1  28
TORSDOF 1
