REMARK  Name = ZINC12615704
REMARK  5 active torsions:
REMARK  status: ('A' for Active; 'I' for Inactive)
REMARK    1  A    between atoms: C_4  and  C_7
REMARK    2  A    between atoms: C_11  and  S_13
REMARK    3  A    between atoms: S_13  and  C_14
REMARK    4  A    between atoms: C_14  and  C_15
REMARK    5  A    between atoms: C_24  and  C_34
REMARK                            x       y       z     vdW  Elec       q    Type
REMARK                         _______ _______ _______ _____ _____    ______ ____
ROOT
ATOM      1  C   UNL     1       9.225   1.359  -0.061  0.00  0.00    +0.226 C 
ATOM      2  O   UNL     1      10.065   0.484  -0.075  0.00  0.00    -0.275 OA
ATOM      3  N   UNL     1       9.601   2.654  -0.051  0.00  0.00    -0.291 N 
ATOM      4  C   UNL     1       8.608   3.741  -0.027  0.00  0.00    +0.130 C 
ATOM      5  C   UNL     1       8.675   4.574  -1.310  0.00  0.00    +0.141 C 
ATOM      6  N   UNL     1      10.079   4.837  -1.654  0.00  0.00    -0.340 N 
ATOM      7  C   UNL     1      10.596   5.749  -2.530  0.00  0.00    +0.050 A 
ATOM      8  C   UNL     1       9.993   6.732  -3.310  0.00  0.00    +0.027 A 
ATOM      9  C   UNL     1      10.818   7.497  -4.114  0.00  0.00    +0.006 A 
ATOM     10  C   UNL     1      12.190   7.307  -4.156  0.00  0.00    -0.044 A 
ATOM     11  C   UNL     1      12.816   6.350  -3.398  0.00  0.00    +0.014 A 
ATOM     12  C   UNL     1      12.010   5.561  -2.570  0.00  0.00    +0.004 A 
ATOM     13  C   UNL     1      12.295   4.499  -1.645  0.00  0.00    -0.017 A 
ATOM     14  C   UNL     1      11.112   4.130  -1.113  0.00  0.00    +0.044 A 
ATOM     15  C   UNL     1      11.026   3.042  -0.058  0.00  0.00    +0.123 C 
ATOM     16  C   UNL     1      11.912   1.890  -0.498  0.00  0.00    +0.029 C 
ATOM     17  C   UNL     1      13.243   2.280  -1.101  0.00  0.00    +0.007 C 
ATOM     18  C   UNL     1      13.538   3.771  -1.213  0.00  0.00    +0.037 C 
ENDROOT
BRANCH  10  19
ATOM     19  C   UNL     1      13.020   8.178  -5.062  0.00  0.00    +0.019 C 
ATOM     20  C   UNL     1      12.848   9.644  -4.659  0.00  0.00    +0.008 C 
ATOM     21  C   UNL     1      13.691  10.528  -5.580  0.00  0.00    +0.001 C 
ATOM     22  C   UNL     1      13.233  10.341  -7.027  0.00  0.00    +0.000 C 
ATOM     23  C   UNL     1      13.406   8.875  -7.430  0.00  0.00    +0.001 C 
ATOM     24  C   UNL     1      12.563   7.990  -6.510  0.00  0.00    +0.008 C 
ENDBRANCH  10  19
BRANCH   1  25
ATOM     25  C   UNL     1       7.762   0.999  -0.053  0.00  0.00    +0.173 C 
BRANCH  25  26
ATOM     26  S   UNL     1       7.583  -0.806  -0.069  0.00  0.00    -0.079 S 
BRANCH  26  31
ATOM     27  C   UNL     1       3.698  -0.688  -0.037  0.00  0.00    +0.090 A 
ATOM     28  C   UNL     1       3.862  -2.034  -0.052  0.00  0.00    +0.113 A 
ATOM     29  N   UNL     1       5.215  -2.272  -0.065  0.00  0.00    -0.339 N 
ATOM     30  H   UNL     1       5.646  -3.141  -0.077  0.00  0.00    +0.167 HD
ATOM     31  C   UNL     1       5.840  -1.062  -0.058  0.00  0.00    +0.167 A 
ATOM     32  N   UNL     1       4.929  -0.118  -0.047  0.00  0.00    -0.222 NA
BRANCH  27  36
ATOM     33  C   UNL     1      -0.017   1.379   0.010  0.00  0.00    +0.000 A 
ATOM     34  C   UNL     1       1.169   2.092   0.002  0.00  0.00    +0.001 A 
ATOM     35  C   UNL     1       2.377   1.426  -0.013  0.00  0.00    +0.010 A 
ATOM     36  C   UNL     1       2.402   0.033  -0.021  0.00  0.00    +0.002 A 
ATOM     37  C   UNL     1       1.205  -0.680  -0.013  0.00  0.00    +0.010 A 
ATOM     38  C   UNL     1       0.002  -0.004   0.002  0.00  0.00    +0.001 A 
ENDBRANCH  27  36
ENDBRANCH  26  31
ENDBRANCH  25  26
ENDBRANCH   1  25
TORSDOF 5
