REMARK  Name = ZINC13184479
REMARK  16 active torsions:
REMARK  status: ('A' for Active; 'I' for Inactive)
REMARK    1  A    between atoms: C_1  and  C_2
REMARK    2  A    between atoms: C_2  and  N_3
REMARK    3  A    between atoms: N_3  and  C_4
REMARK    4  A    between atoms: N_3  and  S_6
REMARK    5  A    between atoms: C_4  and  C_5
REMARK    6  A    between atoms: S_6  and  C_9
REMARK    7  A    between atoms: C_12  and  C_33
REMARK    8  A    between atoms: C_13  and  C_15
REMARK    9  A    between atoms: N_17  and  C_18
REMARK   10  A    between atoms: C_18  and  C_20
REMARK   11  A    between atoms: C_18  and  C_23
REMARK   12  A    between atoms: C_20  and  C_21
REMARK   13  A    between atoms: C_26  and  O_31
REMARK   14  A    between atoms: C_27  and  O_29
REMARK   15  A    between atoms: O_29  and  C_30
REMARK   16  A    between atoms: O_31  and  C_32
REMARK                            x       y       z     vdW  Elec       q    Type
REMARK                         _______ _______ _______ _____ _____    ______ ____
ROOT
ATOM      1  C   UNL     1      -2.423  -1.861  -1.939  0.00  0.00    +0.245 C 
ATOM      2  O   UNL     1      -3.562  -1.506  -1.710  0.00  0.00    -0.270 OA
ATOM      3  N   UNL     1      -1.385  -1.125  -1.495  0.00  0.00    -0.304 N 
ATOM      4  H   UNL     1      -0.478  -1.367  -1.741  0.00  0.00    +0.150 HD
ENDROOT
BRANCH   1   9
ATOM      5  C   UNL     1      -0.651  -4.603  -3.798  0.00  0.00    +0.106 A 
ATOM      6  C   UNL     1      -1.711  -5.423  -4.141  0.00  0.00    +0.029 A 
ATOM      7  C   UNL     1      -3.002  -5.089  -3.771  0.00  0.00    +0.006 A 
ATOM      8  C   UNL     1      -3.239  -3.936  -3.051  0.00  0.00    -0.038 A 
ATOM      9  C   UNL     1      -2.175  -3.101  -2.706  0.00  0.00    +0.041 A 
ATOM     10  C   UNL     1      -0.876  -3.444  -3.083  0.00  0.00    +0.041 A 
ATOM     11  C   UNL     1      -4.644  -3.576  -2.643  0.00  0.00    +0.044 C 
BRANCH   5  12
ATOM     12  S   UNL     1       0.988  -5.038  -4.275  0.00  0.00    +0.061 S 
ATOM     13  O   UNL     1       0.869  -5.889  -5.406  0.00  0.00    -0.153 OA
ATOM     14  O   UNL     1       1.736  -3.830  -4.305  0.00  0.00    -0.153 OA
BRANCH  12  15
ATOM     15  N   UNL     1       1.625  -5.958  -3.055  0.00  0.00    -0.177 NA
BRANCH  15  17
ATOM     16  C   UNL     1       2.702  -8.054  -3.710  0.00  0.00    +0.022 C 
ATOM     17  C   UNL     1       1.465  -7.414  -3.076  0.00  0.00    +0.106 C 
ENDBRANCH  15  17
BRANCH  15  18
ATOM     18  C   UNL     1       2.348  -5.317  -1.954  0.00  0.00    +0.106 C 
ATOM     19  C   UNL     1       1.392  -5.082  -0.783  0.00  0.00    +0.022 C 
ENDBRANCH  15  18
ENDBRANCH  12  15
ENDBRANCH   5  12
ENDBRANCH   1   9
BRANCH   3  20
ATOM     20  C   UNL     1      -1.626   0.041  -0.641  0.00  0.00    +0.114 C 
BRANCH  20  21
ATOM     21  C   UNL     1      -1.870   1.253  -1.502  0.00  0.00    -0.023 A 
ATOM     22  C   UNL     1      -1.120   1.448  -2.647  0.00  0.00    +0.009 A 
ATOM     23  C   UNL     1      -1.341   2.558  -3.441  0.00  0.00    +0.050 A 
ATOM     24  C   UNL     1      -2.316   3.478  -3.090  0.00  0.00    +0.162 A 
ATOM     25  C   UNL     1      -3.071   3.282  -1.937  0.00  0.00    +0.162 A 
ATOM     26  C   UNL     1      -2.844   2.167  -1.146  0.00  0.00    +0.055 A 
BRANCH  25  27
ATOM     27  O   UNL     1      -4.029   4.182  -1.588  0.00  0.00    -0.491 OA
ATOM     28  C   UNL     1      -4.765   3.915  -0.393  0.00  0.00    +0.277 C 
ENDBRANCH  25  27
BRANCH  24  29
ATOM     29  O   UNL     1      -2.535   4.570  -3.870  0.00  0.00    -0.491 OA
ATOM     30  C   UNL     1      -1.723   4.706  -5.038  0.00  0.00    +0.277 C 
ENDBRANCH  24  29
ENDBRANCH  20  21
BRANCH  20  31
ATOM     31  C   UNL     1      -0.404   0.284   0.247  0.00  0.00    +0.152 C 
BRANCH  31  32
ATOM     32  C   UNL     1      -0.246  -0.865   1.209  0.00  0.00    +0.358 C 
ATOM     33  O   UNL     1      -0.982  -1.820   1.136  0.00  0.00    -0.246 OA
ATOM     34  O   UNL     1       0.713  -0.827   2.148  0.00  0.00    -0.246 OA
ENDBRANCH  31  32
ENDBRANCH  20  31
ENDBRANCH   3  20
TORSDOF 11
