REMARK  Name = ZINC20568306
REMARK  9 active torsions:
REMARK  status: ('A' for Active; 'I' for Inactive)
REMARK    1  A    between atoms: C_1  and  C_2
REMARK    2  A    between atoms: C_2  and  C_31
REMARK    3  A    between atoms: C_17  and  N_26
REMARK    4  A    between atoms: C_18  and  C_19
REMARK    5  A    between atoms: C_19  and  O_21
REMARK    6  A    between atoms: O_21  and  C_22
REMARK    7  A    between atoms: C_22  and  C_23
REMARK    8  A    between atoms: C_22  and  C_24
REMARK    9  A    between atoms: C_22  and  C_25
REMARK                            x       y       z     vdW  Elec       q    Type
REMARK                         _______ _______ _______ _____ _____    ______ ____
ROOT
ATOM      1  C   UNL     1       1.715   2.857   1.414  0.00  0.00    +0.012 C 
ATOM      2  C   UNL     1       1.389   3.060  -0.068  0.00  0.00    -0.021 C 
ATOM      3  C   UNL     1      -0.047   2.599  -0.339  0.00  0.00    +0.081 C 
ATOM      4  C   UNL     1      -0.122   1.108  -0.078  0.00  0.00    +0.118 C 
ATOM      5  C   UNL     1       0.969   0.312  -0.209  0.00  0.00    +0.059 C 
ATOM      6  C   UNL     1       2.235   0.782  -0.599  0.00  0.00    +0.165 C 
ATOM      7  O   UNL     1       3.186   0.031  -0.677  0.00  0.00    -0.292 OA
ATOM      8  C   UNL     1       2.374   2.255  -0.917  0.00  0.00    +0.086 C 
ATOM      9  C   UNL     1       0.526  -1.080   0.140  0.00  0.00    +0.160 C 
ATOM     10  C   UNL     1       0.684  -1.998  -1.038  0.00  0.00    +0.001 A 
ATOM     11  C   UNL     1       0.365  -1.544  -2.306  0.00  0.00    +0.022 A 
ATOM     12  C   UNL     1       0.502  -2.378  -3.400  0.00  0.00    +0.018 A 
ATOM     13  C   UNL     1       0.960  -3.674  -3.232  0.00  0.00    +0.017 A 
ATOM     14  C   UNL     1       1.281  -4.133  -1.971  0.00  0.00    +0.024 A 
ATOM     15  C   UNL     1       1.145  -3.296  -0.870  0.00  0.00    +0.037 A 
ATOM     16  N   UNL     1       1.476  -3.767   0.403  0.00  0.00    -0.302 N 
ATOM     17  C   UNL     1       1.694  -2.887   1.429  0.00  0.00    +0.097 C 
ATOM     18  C   UNL     1       1.258  -1.588   1.344  0.00  0.00    +0.098 C 
ATOM     19 BR   UNL     1       0.063  -1.749  -5.128  0.00  0.00    -0.050 Br
ATOM     20  C   UNL     1      -0.945  -0.900   0.461  0.00  0.00    +0.332 C 
ATOM     21  O   UNL     1      -1.728  -1.758   0.796  0.00  0.00    -0.249 OA
ATOM     22  O   UNL     1      -1.199   0.410   0.297  0.00  0.00    -0.429 OA
ATOM     23  C   UNL     1       1.516   4.544  -0.415  0.00  0.00    +0.012 C 
ATOM     24  H   UNL     1       1.564  -4.849   0.584  0.00  0.00    +0.153 HD
ENDROOT
BRANCH  17  25
ATOM     25  N   UNL     1       2.352  -3.308   2.556  0.00  0.00    -0.346 N 
ATOM     26  H   UNL     1       2.530  -2.605   3.384  0.00  0.00    +0.143 HD
ATOM     27  H   UNL     1       2.704  -4.347   2.631  0.00  0.00    +0.143 HD
ENDBRANCH  17  25
BRANCH  18  28
ATOM     28  C   UNL     1       1.505  -0.715   2.409  0.00  0.00    +0.340 C 
ATOM     29  O   UNL     1       2.473   0.026   2.379  0.00  0.00    -0.245 OA
BRANCH  28  30
ATOM     30  O   UNL     1       0.671  -0.693   3.472  0.00  0.00    -0.456 OA
BRANCH  30  31
ATOM     31  C   UNL     1       1.055   0.122   4.582  0.00  0.00    +0.106 C 
ATOM     32  C   UNL     1       1.037   1.594   4.164  0.00  0.00    +0.055 C 
ATOM     33  C   UNL     1       0.073  -0.093   5.736  0.00  0.00    +0.055 C 
ATOM     34  C   UNL     1       2.465  -0.264   5.033  0.00  0.00    +0.055 C 
ENDBRANCH  30  31
ENDBRANCH  28  30
ENDBRANCH  18  28
TORSDOF 4
