REMARK  Name = ZINC39500060
REMARK  6 active torsions:
REMARK  status: ('A' for Active; 'I' for Inactive)
REMARK    1  A    between atoms: C_1  and  C_2
REMARK    2  A    between atoms: C_7  and  C_8
REMARK    3  A    between atoms: C_8  and  C_9
REMARK    4  A    between atoms: N_18  and  C_19
REMARK    5  A    between atoms: C_25  and  C_27
REMARK    6  A    between atoms: C_30  and  C_33
REMARK                            x       y       z     vdW  Elec       q    Type
REMARK                         _______ _______ _______ _____ _____    ______ ____
ROOT
ATOM      1  C   UNL     1      -1.661   0.215   2.866  0.00  0.00    +0.164 C 
ATOM      2  N   UNL     1      -2.413   0.878   1.793  0.00  0.00    -0.323 N 
ATOM      3  C   UNL     1      -2.946   2.056   2.331  0.00  0.00    +0.067 A 
ATOM      4  C   UNL     1      -3.732   3.045   1.752  0.00  0.00    +0.028 A 
ATOM      5  C   UNL     1      -4.123   4.123   2.534  0.00  0.00    +0.019 A 
ATOM      6  C   UNL     1      -3.722   4.178   3.853  0.00  0.00    +0.084 A 
ATOM      7  N   UNL     1      -2.976   3.226   4.378  0.00  0.00    -0.348 N 
ATOM      8  C   UNL     1      -2.577   2.176   3.670  0.00  0.00    +0.122 A 
ATOM      9  N   UNL     1      -1.796   1.080   4.043  0.00  0.00    -0.293 N 
ATOM     10  H   UNL     1      -2.520   0.559   0.883  0.00  0.00    +0.148 HD
ATOM     11  H   UNL     1      -2.710   3.294   5.308  0.00  0.00    +0.167 HD
ENDROOT
BRANCH   9  12
ATOM     12  C   UNL     1      -1.216   0.839   5.367  0.00  0.00    +0.080 C 
ATOM     13  C   UNL     1      -0.274   1.989   5.729  0.00  0.00    +0.041 C 
ATOM     14  C   UNL     1       0.357   1.716   7.098  0.00  0.00    +0.109 C 
ATOM     15  N   UNL     1      -0.716   1.484   8.075  0.00  0.00    -0.299 N 
ATOM     16  C   UNL     1      -1.729   0.462   7.782  0.00  0.00    +0.109 C 
ATOM     17  C   UNL     1      -2.336   0.749   6.406  0.00  0.00    +0.041 C 
ATOM     18  C   UNL     1      -0.769   2.196   9.218  0.00  0.00    +0.246 C 
ATOM     19  O   UNL     1       0.074   3.038   9.448  0.00  0.00    -0.273 OA
BRANCH  18  20
ATOM     20  C   UNL     1      -1.875   1.947  10.210  0.00  0.00    +0.238 C 
ATOM     21  C   UNL     1      -3.134   2.695   9.808  0.00  0.00    +0.040 C 
ATOM     22  C   UNL     1      -3.351   3.538  10.836  0.00  0.00    +0.092 C 
ATOM     23  N   UNL     1      -2.390   3.386  11.785  0.00  0.00    -0.153 NA
ATOM     24  N   UNL     1      -1.539   2.528  11.521  0.00  0.00    -0.170 NA
BRANCH  22  25
ATOM     25  C   UNL     1      -4.479   4.498  10.920  0.00  0.00    +0.002 A 
ATOM     26  C   UNL     1      -5.414   4.570   9.890  0.00  0.00    +0.010 A 
ATOM     27  C   UNL     1      -6.462   5.465   9.973  0.00  0.00    +0.001 A 
ATOM     28  C   UNL     1      -6.584   6.289  11.077  0.00  0.00    +0.000 A 
ATOM     29  C   UNL     1      -5.658   6.223  12.103  0.00  0.00    +0.001 A 
ATOM     30  C   UNL     1      -4.610   5.328  12.032  0.00  0.00    +0.010 A 
ENDBRANCH  22  25
ENDBRANCH  18  20
ENDBRANCH   9  12
BRANCH   1  31
ATOM     31  C   UNL     1      -0.188   0.082   2.474  0.00  0.00    +0.077 C 
BRANCH  31  38
ATOM     32  C   UNL     1      -0.161  -2.753   3.027  0.00  0.00    +0.044 C 
ATOM     33  C   UNL     1      -0.043  -2.261   1.607  0.00  0.00    -0.047 A 
ATOM     34  C   UNL     1       0.072  -3.167   0.569  0.00  0.00    +0.003 A 
ATOM     35  C   UNL     1       0.181  -2.716  -0.733  0.00  0.00    +0.000 A 
ATOM     36  C   UNL     1       0.173  -1.359  -0.997  0.00  0.00    +0.000 A 
ATOM     37  C   UNL     1       0.057  -0.453   0.041  0.00  0.00    +0.004 A 
ATOM     38  C   UNL     1      -0.056  -0.905   1.343  0.00  0.00    -0.041 A 
ENDBRANCH  31  38
ENDBRANCH   1  31
TORSDOF 5
