REMARK  Name = ZINC37538270
REMARK  18 active torsions:
REMARK  status: ('A' for Active; 'I' for Inactive)
REMARK    1  A    between atoms: C_1  and  C_2
REMARK    2  A    between atoms: C_2  and  C_40
REMARK    3  A    between atoms: C_3  and  C_4
REMARK    4  A    between atoms: C_4  and  C_5
REMARK    5  A    between atoms: C_5  and  C_6
REMARK    6  A    between atoms: C_6  and  C_38
REMARK    7  A    between atoms: C_7  and  C_8
REMARK    8  A    between atoms: C_8  and  C_9
REMARK    9  A    between atoms: C_9  and  C_10
REMARK   10  A    between atoms: C_10  and  C_37
REMARK   11  A    between atoms: C_11  and  O_36
REMARK   12  A    between atoms: C_15  and  O_35
REMARK   13  A    between atoms: N_22  and  C_25
REMARK   14  A    between atoms: C_25  and  C_27
REMARK   15  A    between atoms: C_25  and  C_32
REMARK   16  A    between atoms: C_27  and  C_28
REMARK   17  A    between atoms: C_28  and  C_29
REMARK   18  A    between atoms: C_38  and  O_39
REMARK                            x       y       z     vdW  Elec       q    Type
REMARK                         _______ _______ _______ _____ _____    ______ ____
ROOT
ATOM      1  C   UNL     1      -1.582   3.846   7.727  0.00  0.00    +0.134 C 
ATOM      2  C   UNL     1      -1.619   5.378   7.637  0.00  0.00    +0.162 C 
ATOM      3  C   UNL     1      -1.695   5.940   9.059  0.00  0.00    +0.077 C 
ATOM      4  C   UNL     1      -0.655   5.277   9.925  0.00  0.00    +0.039 A 
ATOM      5  C   UNL     1      -0.296   5.886  11.123  0.00  0.00    +0.124 A 
ATOM      6  C   UNL     1       0.652   5.310  11.949  0.00  0.00    +0.059 A 
ATOM      7  C   UNL     1       1.254   4.106  11.579  0.00  0.00    +0.049 A 
ATOM      8  C   UNL     1       0.889   3.502  10.376  0.00  0.00    +0.024 A 
ATOM      9  C   UNL     1      -0.059   4.084   9.551  0.00  0.00    +0.134 A 
ATOM     10  O   UNL     1      -0.373   3.463   8.383  0.00  0.00    -0.483 OA
ATOM     11  C   UNL     1       1.705   2.237  10.268  0.00  0.00    +0.148 C 
ATOM     12  N   UNL     1       2.536   2.182  11.476  0.00  0.00    -0.279 N 
ATOM     13  C   UNL     1       2.274   3.262  12.232  0.00  0.00    +0.248 C 
ATOM     14  O   UNL     1       2.801   3.509  13.299  0.00  0.00    -0.270 OA
ATOM     15  C   UNL     1      -2.785   3.348   8.530  0.00  0.00    +0.058 C 
ENDROOT
BRANCH   5  16
ATOM     16  O   UNL     1      -0.881   7.058  11.485  0.00  0.00    -0.506 OA
ATOM     17  H   UNL     1      -1.688   6.950  12.008  0.00  0.00    +0.292 HD
ENDBRANCH   5  16
BRANCH   2  18
ATOM     18  O   UNL     1      -0.434   5.851   6.994  0.00  0.00    -0.388 OA
ATOM     19  H   UNL     1      -0.392   6.813   6.905  0.00  0.00    +0.210 HD
ENDBRANCH   2  18
BRANCH   1  20
ATOM     20  C   UNL     1      -1.618   3.247   6.320  0.00  0.00    +0.054 C 
BRANCH  20  21
ATOM     21  C   UNL     1      -1.679   1.721   6.417  0.00  0.00    +0.031 C 
BRANCH  21  23
ATOM     22  C   UNL     1      -0.806   0.259   4.668  0.00  0.00    -0.048 C 
ATOM     23  C   UNL     1      -1.714   1.130   5.031  0.00  0.00    -0.025 C 
BRANCH  22  24
ATOM     24  C   UNL     1      -0.740  -0.209   3.237  0.00  0.00    +0.037 C 
BRANCH  24  25
ATOM     25  C   UNL     1       0.285   0.631   2.472  0.00  0.00    +0.031 C 
BRANCH  25  28
ATOM     26  C   UNL     1      -0.086   2.469   0.366  0.00  0.00    +0.038 C 
ATOM     27  C   UNL     1       0.119   1.007   0.065  0.00  0.00    -0.080 C 
ATOM     28  C   UNL     1       0.350   0.164   1.041  0.00  0.00    -0.028 C 
ATOM     29  C   UNL     1       0.059   0.514  -1.358  0.00  0.00    +0.038 C 
ENDBRANCH  25  28
ENDBRANCH  24  25
ENDBRANCH  22  24
BRANCH  22  30
ATOM     30  C   UNL     1       0.173  -0.276   5.681  0.00  0.00    +0.186 C 
BRANCH  30  31
ATOM     31  O   UNL     1       0.190  -1.704   5.620  0.00  0.00    -0.391 OA
ATOM     32  H   UNL     1       0.799  -2.117   6.246  0.00  0.00    +0.210 HD
ENDBRANCH  30  31
ENDBRANCH  22  30
ENDBRANCH  21  23
ENDBRANCH  20  21
ENDBRANCH   1  20
BRANCH  12  33
ATOM     33  C   UNL     1       3.494   1.123  11.805  0.00  0.00    +0.190 C 
BRANCH  33  34
ATOM     34  C   UNL     1       3.097   0.472  13.105  0.00  0.00    +0.376 C 
ATOM     35  O   UNL     1       2.106   0.858  13.702  0.00  0.00    -0.244 OA
ATOM     36  O   UNL     1       3.767  -0.439  13.561  0.00  0.00    -0.244 OA
ENDBRANCH  33  34
BRANCH  33  37
ATOM     37  C   UNL     1       4.894   1.726  11.943  0.00  0.00    +0.045 C 
BRANCH  37  38
ATOM     38  C   UNL     1       5.347   2.276  10.590  0.00  0.00    +0.127 C 
BRANCH  38  39
ATOM     39  C   UNL     1       6.726   2.870  10.726  0.00  0.00    +0.356 C 
ATOM     40  O   UNL     1       7.293   2.854  11.805  0.00  0.00    -0.246 OA
ATOM     41  O   UNL     1       7.274   3.366   9.756  0.00  0.00    -0.246 OA
ENDBRANCH  38  39
ENDBRANCH  37  38
ENDBRANCH  33  37
ENDBRANCH  12  33
TORSDOF 15
