REMARK  Name = ZINC36054122
REMARK  8 active torsions:
REMARK  status: ('A' for Active; 'I' for Inactive)
REMARK    1  A    between atoms: C_4  and  C_28
REMARK    2  A    between atoms: C_5  and  C_7
REMARK    3  A    between atoms: C_7  and  N_8
REMARK    4  A    between atoms: N_8  and  C_9
REMARK    5  A    between atoms: N_8  and  C_19
REMARK    6  A    between atoms: C_9  and  C_10
REMARK    7  A    between atoms: C_19  and  C_20
REMARK    8  A    between atoms: C_22  and  C_25
REMARK                            x       y       z     vdW  Elec       q    Type
REMARK                         _______ _______ _______ _____ _____    ______ ____
ROOT
ATOM      1  N   UNK     1       1.431  -2.549   1.390  0.00  0.00    +0.391 N 
ATOM      2  H   UNK     1       2.149  -2.064   1.907  0.00  0.00    -0.080 HD
ENDROOT
BRANCH   1   3
ATOM      3  C   UNK     1       1.222  -1.879   0.099  0.00  0.00    -0.041 C 
BRANCH   3   8
ATOM      4  C   UNK     1      -0.652   1.366   0.558  0.00  0.00    +0.000 A 
ATOM      5  C   UNK     1       0.386   2.258   0.756  0.00  0.00    +0.001 A 
ATOM      6  C   UNK     1       1.694   1.811   0.741  0.00  0.00    +0.012 A 
ATOM      7  C   UNK     1       1.964   0.472   0.528  0.00  0.00    +0.056 A 
ATOM      8  C   UNK     1       0.927  -0.420   0.332  0.00  0.00    -0.052 A 
ATOM      9  C   UNK     1      -0.381   0.027   0.345  0.00  0.00    +0.002 A 
BRANCH   7  10
ATOM     10  C   UNK     1       3.390  -0.015   0.510  0.00  0.00    +0.418 C 
ATOM     11  F   UNK     1       4.258   1.078   0.610  0.00  0.00    -0.166 F 
ATOM     12  F   UNK     1       3.601  -0.879   1.591  0.00  0.00    -0.166 F 
ATOM     13  F   UNK     1       3.635  -0.697  -0.686  0.00  0.00    -0.166 F 
ENDBRANCH   7  10
ENDBRANCH   3   8
ENDBRANCH   1   3
BRANCH   1  14
ATOM     14  C   UNK     1       0.179  -2.533   2.158  0.00  0.00    -0.042 C 
BRANCH  14  15
ATOM     15  C   UNK     1       0.428  -3.090   3.536  0.00  0.00    -0.060 A 
ATOM     16  C   UNK     1       0.172  -4.423   3.798  0.00  0.00    +0.005 A 
ATOM     17  C   UNK     1       0.399  -4.939   5.060  0.00  0.00    +0.050 A 
ATOM     18  C   UNK     1       0.885  -4.121   6.066  0.00  0.00    +0.166 A 
ATOM     19  C   UNK     1       1.143  -2.778   5.803  0.00  0.00    +0.166 A 
ATOM     20  C   UNK     1       0.918  -2.269   4.534  0.00  0.00    +0.051 A 
ATOM     21  O   UNK     1       1.609  -2.191   6.944  0.00  0.00    -0.453 OA
ATOM     22  C   UNK     1       1.247  -3.087   8.012  0.00  0.00    +0.466 C 
ATOM     23  O   UNK     1       1.189  -4.375   7.372  0.00  0.00    -0.453 OA
ENDBRANCH  14  15
ENDBRANCH   1  14
BRANCH   1  24
ATOM     24  C   UNK     1       1.847  -3.938   1.159  0.00  0.00    +0.018 C 
BRANCH  24  25
ATOM     25  C   UNK     1       3.191  -3.954   0.479  0.00  0.00    +0.158 A 
ATOM     26  N   UNK     1       4.340  -3.982   1.086  0.00  0.00    -0.323 N 
ATOM     27  C   UNK     1       5.324  -3.988   0.145  0.00  0.00    +0.166 A 
ATOM     28  C   UNK     1       4.712  -3.964  -1.074  0.00  0.00    +0.230 A 
ATOM     29  O   UNK     1       3.390  -3.949  -0.847  0.00  0.00    -0.451 OA
ATOM     30  H   UNK     1       4.474  -3.994   2.046  0.00  0.00    +0.169 HD
BRANCH  27  31
ATOM     31  C   UNK     1       6.772  -4.016   0.395  0.00  0.00    +0.406 C 
ATOM     32  O   UNK     1       7.194  -4.035   1.543  0.00  0.00    -0.239 OA
ATOM     33  O   UNK     1       7.556  -4.019  -0.545  0.00  0.00    -0.239 OA
ENDBRANCH  27  31
ENDBRANCH  24  25
ENDBRANCH   1  24
TORSDOF 8
