REMARK  Name = ZINC63446492
REMARK  15 active torsions:
REMARK  status: ('A' for Active; 'I' for Inactive)
REMARK    1  A    between atoms: C_1  and  C_2
REMARK    2  A    between atoms: C_2  and  O_3
REMARK    3  A    between atoms: O_3  and  C_4
REMARK    4  A    between atoms: C_4  and  C_6
REMARK    5  A    between atoms: C_6  and  S_7
REMARK    6  A    between atoms: S_7  and  C_8
REMARK    7  A    between atoms: C_12  and  C_15
REMARK    8  A    between atoms: C_15  and  C_17
REMARK    9  A    between atoms: C_15  and  N_27
REMARK   10  A    between atoms: C_17  and  C_18
REMARK   11  A    between atoms: C_28  and  O_30
REMARK   12  A    between atoms: O_30  and  C_31
REMARK   13  A    between atoms: C_31  and  C_32
REMARK   14  A    between atoms: C_31  and  C_33
REMARK   15  A    between atoms: C_31  and  C_34
REMARK                            x       y       z     vdW  Elec       q    Type
REMARK                         _______ _______ _______ _____ _____    ______ ____
ROOT
ATOM      1  C   UNL     1      -7.420  -5.208  -0.835  0.00  0.00    +0.133 C 
ENDROOT
BRANCH   1   5
ATOM      2  C   UNL     1      -4.407  -4.746  -0.356  0.00  0.00    +0.319 C 
ATOM      3  N   UNL     1      -4.945  -4.413   0.969  0.00  0.00    -0.146 NA
ATOM      4  N   UNL     1      -6.109  -4.005   0.866  0.00  0.00    -0.155 NA
ATOM      5  C   UNL     1      -6.520  -4.005  -0.544  0.00  0.00    +0.280 C 
ATOM      6  O   UNL     1      -5.292  -4.104  -1.298  0.00  0.00    -0.316 OA
BRANCH   2   7
ATOM      7  S   UNL     1      -2.722  -4.096  -0.533  0.00  0.00    -0.093 S 
BRANCH   7   8
ATOM      8  C   UNL     1      -2.905  -2.316  -0.233  0.00  0.00    +0.194 C 
BRANCH   8   9
ATOM      9  C   UNL     1      -1.560  -1.647  -0.351  0.00  0.00    +0.317 C 
ATOM     10  O   UNL     1      -0.579  -2.303  -0.611  0.00  0.00    -0.250 OA
BRANCH   9  11
ATOM     11  O   UNL     1      -1.451  -0.322  -0.167  0.00  0.00    -0.464 OA
BRANCH  11  13
ATOM     12  C   UNL     1      -0.221   1.755  -0.052  0.00  0.00    +0.048 C 
ATOM     13  C   UNL     1      -0.146   0.246  -0.294  0.00  0.00    +0.229 C 
ENDBRANCH  11  13
ENDBRANCH   9  11
ENDBRANCH   8   9
ENDBRANCH   7   8
ENDBRANCH   2   7
ENDBRANCH   1   5
BRANCH   1  14
ATOM     14  N   UNL     1      -6.776  -6.429  -0.344  0.00  0.00    -0.274 N 
ATOM     15  C   UNL     1      -6.424  -7.400  -1.209  0.00  0.00    +0.401 C 
ATOM     16  O   UNL     1      -6.560  -7.228  -2.404  0.00  0.00    -0.226 OA
ATOM     17  H   UNL     1      -6.604  -6.538   0.605  0.00  0.00    +0.152 HD
BRANCH  15  18
ATOM     18  O   UNL     1      -5.922  -8.562  -0.749  0.00  0.00    -0.445 OA
BRANCH  18  19
ATOM     19  C   UNL     1      -5.570  -9.547  -1.723  0.00  0.00    +0.107 C 
ATOM     20  C   UNL     1      -4.502  -8.979  -2.660  0.00  0.00    +0.055 C 
ATOM     21  C   UNL     1      -5.021 -10.788  -1.017  0.00  0.00    +0.055 C 
ATOM     22  C   UNL     1      -6.810  -9.928  -2.534  0.00  0.00    +0.055 C 
ENDBRANCH  18  19
ENDBRANCH  15  18
ENDBRANCH   1  14
BRANCH   1  23
ATOM     23  C   UNL     1      -8.764  -5.021  -0.130  0.00  0.00    +0.060 C 
BRANCH  23  24
ATOM     24  C   UNL     1      -9.694  -6.143  -0.514  0.00  0.00    -0.040 C 
ATOM     25  C   UNL     1      -9.910  -7.290   0.170  0.00  0.00    -0.001 A 
ATOM     26  C   UNL     1      -9.365  -7.816   1.427  0.00  0.00    +0.010 A 
ATOM     27  C   UNL     1      -9.782  -9.024   1.868  0.00  0.00    +0.001 A 
ATOM     28  C   UNL     1     -10.720  -9.785   1.157  0.00  0.00    +0.002 A 
ATOM     29  C   UNL     1     -11.265  -9.369  -0.006  0.00  0.00    +0.026 A 
ATOM     30  C   UNL     1     -10.899  -8.113  -0.563  0.00  0.00    +0.043 A 
ATOM     31  N   UNL     1     -11.279  -7.499  -1.657  0.00  0.00    -0.380 N 
ATOM     32  C   UNL     1     -10.578  -6.213  -1.739  0.00  0.00    +0.144 C 
ATOM     33  H   UNL     1     -11.920  -7.837  -2.302  0.00  0.00    +0.160 HD
ENDBRANCH  23  24
ENDBRANCH   1  23
TORSDOF 11
