REMARK  Name = ZINC18197653
REMARK  6 active torsions:
REMARK  status: ('A' for Active; 'I' for Inactive)
REMARK    1  A    between atoms: C_1  and  O_2
REMARK    2  A    between atoms: O_2  and  C_3
REMARK    3  A    between atoms: C_6  and  O_30
REMARK    4  A    between atoms: C_7  and  C_9
REMARK    5  A    between atoms: C_14  and  C_19
REMARK    6  A    between atoms: O_30  and  C_31
REMARK                            x       y       z     vdW  Elec       q    Type
REMARK                         _______ _______ _______ _____ _____    ______ ____
ROOT
ATOM      1  C   UNL     1       3.675   2.189  -0.021  0.00  0.00    +0.179 C 
ATOM      2  C   UNL     1       3.756   3.048   1.222  0.00  0.00    +0.041 C 
ATOM      3  C   UNL     1       3.593   4.387   1.182  0.00  0.00    +0.020 C 
ATOM      4  C   UNL     1       3.680   5.219   2.440  0.00  0.00    +0.060 C 
ATOM      5  C   UNL     1       3.204   4.393   3.637  0.00  0.00    +0.039 C 
ATOM      6  C   UNL     1       4.082   3.141   3.738  0.00  0.00    +0.088 C 
ATOM      7  C   UNL     1       4.008   2.388   2.439  0.00  0.00    +0.164 C 
ATOM      8  O   UNL     1       4.171   1.184   2.440  0.00  0.00    -0.292 OA
ATOM      9  N   UNL     1       3.348   5.052   0.004  0.00  0.00    -0.287 N 
ATOM     10  C   UNL     1       3.570   4.375  -1.184  0.00  0.00    +0.218 A 
ATOM     11  N   UNL     1       3.730   3.030  -1.210  0.00  0.00    -0.221 N 
ATOM     12  N   UNL     1       3.940   2.682  -2.545  0.00  0.00    -0.156 NA
ATOM     13  C   UNL     1       3.892   3.793  -3.236  0.00  0.00    +0.247 A 
ATOM     14  N   UNL     1       3.666   4.817  -2.407  0.00  0.00    -0.201 NA
ATOM     15  H   UNL     1       3.030   5.968   0.005  0.00  0.00    +0.155 HD
ENDROOT
BRANCH   1  20
ATOM     16  C   UNL     1      -0.017   1.383   0.010  0.00  0.00    +0.121 A 
ATOM     17  C   UNL     1       0.002  -0.004   0.002  0.00  0.00    +0.049 A 
ATOM     18  C   UNL     1       1.207  -0.678  -0.014  0.00  0.00    +0.049 A 
ATOM     19  C   UNL     1       2.399   0.032  -0.022  0.00  0.00    +0.126 A 
ATOM     20  C   UNL     1       2.380   1.418  -0.013  0.00  0.00    +0.027 A 
ATOM     21  C   UNL     1       1.175   2.093   0.002  0.00  0.00    +0.055 A 
BRANCH  16  23
ATOM     22  C   UNL     1      -2.391   1.252   0.020  0.00  0.00    +0.277 C 
ATOM     23  O   UNL     1      -1.204   2.047   0.019  0.00  0.00    -0.495 OA
ENDBRANCH  16  23
BRANCH  19  24
ATOM     24  O   UNL     1       3.586  -0.632  -0.037  0.00  0.00    -0.495 OA
ATOM     25  C   UNL     1       3.530  -2.060  -0.045  0.00  0.00    +0.277 C 
ENDBRANCH  19  24
ENDBRANCH   1  20
BRANCH   5  26
ATOM     26  C   UNL     1       3.334   5.207   4.899  0.00  0.00    -0.006 A 
ATOM     27  C   UNL     1       2.373   5.570   5.783  0.00  0.00    +0.011 A 
ATOM     28  C   UNL     1       2.727   6.324   6.886  0.00  0.00    +0.008 A 
ATOM     29  C   UNL     1       4.023   6.689   7.044  0.00  0.00    +0.045 A 
ATOM     30  S   UNL     1       4.792   5.952   5.612  0.00  0.00    -0.101 S 
ENDBRANCH   5  26
TORSDOF 4
