REMARK  Name = ZINC21809956
REMARK  10 active torsions:
REMARK  status: ('A' for Active; 'I' for Inactive)
REMARK    1  A    between atoms: C_1  and  C_2
REMARK    2  A    between atoms: C_2  and  C_3
REMARK    3  A    between atoms: C_12  and  C_26
REMARK    4  A    between atoms: C_12  and  C_27
REMARK    5  A    between atoms: N_13  and  C_16
REMARK    6  A    between atoms: C_19  and  O_24
REMARK    7  A    between atoms: C_20  and  O_22
REMARK    8  A    between atoms: O_22  and  C_23
REMARK    9  A    between atoms: O_24  and  C_25
REMARK   10  A    between atoms: N_29  and  C_30
REMARK                            x       y       z     vdW  Elec       q    Type
REMARK                         _______ _______ _______ _____ _____    ______ ____
ROOT
ATOM      1  C   UNL     1       7.921   7.094  -1.225  0.00  0.00    -0.008 A 
ATOM      2  C   UNL     1       7.189   5.963  -1.156  0.00  0.00    +0.037 A 
ATOM      3  C   UNL     1       5.821   6.025  -0.853  0.00  0.00    +0.057 A 
ATOM      4  C   UNL     1       5.305   7.312  -0.635  0.00  0.00    +0.038 A 
ATOM      5  S   UNL     1       6.718   8.361  -0.861  0.00  0.00    -0.092 S 
ATOM      6  C   UNL     1       3.950   7.226  -0.342  0.00  0.00    +0.048 A 
ATOM      7  C   UNL     1       3.615   5.904  -0.370  0.00  0.00    +0.107 A 
ATOM      8  N   UNL     1       4.749   5.166  -0.690  0.00  0.00    -0.333 N 
ATOM      9  C   UNL     1       4.712   3.707  -0.819  0.00  0.00    +0.158 C 
ATOM     10  C   UNL     1       3.620   3.152   0.095  0.00  0.00    +0.133 C 
ATOM     11  N   UNL     1       2.366   3.888  -0.016  0.00  0.00    -0.250 N 
ATOM     12  C   UNL     1       2.333   5.238  -0.121  0.00  0.00    +0.268 C 
ATOM     13  O   UNL     1       1.295   5.865  -0.010  0.00  0.00    -0.268 OA
ATOM     14  C   UNL     1       3.366   1.688  -0.271  0.00  0.00    +0.044 C 
ENDROOT
BRANCH  11  15
ATOM     15  C   UNL     1       1.160   3.178  -0.020  0.00  0.00    +0.041 A 
ATOM     16  C   UNL     1       0.778   2.464  -1.149  0.00  0.00    +0.027 A 
ATOM     17  C   UNL     1      -0.412   1.762  -1.155  0.00  0.00    +0.051 A 
ATOM     18  C   UNL     1      -1.230   1.774  -0.037  0.00  0.00    +0.162 A 
ATOM     19  C   UNL     1      -0.848   2.483   1.098  0.00  0.00    +0.163 A 
ATOM     20  C   UNL     1       0.345   3.187   1.104  0.00  0.00    +0.073 A 
BRANCH  19  21
ATOM     21  O   UNL     1      -1.648   2.491   2.197  0.00  0.00    -0.491 OA
ATOM     22  C   UNL     1      -1.196   3.245   3.323  0.00  0.00    +0.277 C 
ENDBRANCH  19  21
BRANCH  18  23
ATOM     23  O   UNL     1      -2.404   1.086  -0.046  0.00  0.00    -0.491 OA
ATOM     24  C   UNL     1      -2.731   0.376  -1.242  0.00  0.00    +0.277 C 
ENDBRANCH  18  23
ENDBRANCH  11  15
BRANCH  10  25
ATOM     25  C   UNL     1       4.100   3.220   1.521  0.00  0.00    +0.239 C 
ATOM     26  O   UNL     1       5.288   3.278   1.759  0.00  0.00    -0.273 OA
ATOM     27  N   UNL     1       3.210   3.218   2.533  0.00  0.00    -0.311 N 
ATOM     28  H   UNL     1       2.132   3.166   2.317  0.00  0.00    +0.149 HD
BRANCH  27  29
ATOM     29  C   UNL     1       3.677   3.285   3.920  0.00  0.00    +0.073 C 
ATOM     30  C   UNL     1       4.018   1.877   4.412  0.00  0.00    +0.022 C 
ATOM     31  C   UNL     1       4.506   1.947   5.860  0.00  0.00    +0.002 C 
ATOM     32  C   UNL     1       3.405   2.542   6.741  0.00  0.00    +0.000 C 
ATOM     33  C   UNL     1       3.064   3.950   6.249  0.00  0.00    +0.002 C 
ATOM     34  C   UNL     1       2.576   3.880   4.801  0.00  0.00    +0.022 C 
ENDBRANCH  27  29
ENDBRANCH  10  25
BRANCH   1  36
ATOM     35  C   UNL     1       9.578   7.414  -3.042  0.00  0.00    +0.009 C 
ATOM     36  C   UNL     1       9.388   7.249  -1.532  0.00  0.00    +0.039 C 
ENDBRANCH   1  36
TORSDOF 6
