REMARK  Name = ZINC19926243
REMARK  11 active torsions:
REMARK  status: ('A' for Active; 'I' for Inactive)
REMARK    1  A    between atoms: C_1  and  C_2
REMARK    2  A    between atoms: C_5  and  N_8
REMARK    3  A    between atoms: N_8  and  C_9
REMARK    4  A    between atoms: N_8  and  S_24
REMARK    5  A    between atoms: C_9  and  C_10
REMARK    6  A    between atoms: N_12  and  N_13
REMARK    7  A    between atoms: C_14  and  C_15
REMARK    8  A    between atoms: C_18  and  N_21
REMARK    9  A    between atoms: N_21  and  C_22
REMARK   10  A    between atoms: N_21  and  C_23
REMARK   11  A    between atoms: S_24  and  C_27
REMARK                            x       y       z     vdW  Elec       q    Type
REMARK                         _______ _______ _______ _____ _____    ______ ____
ROOT
ATOM      1  N   UNL     1       0.457  -4.185   0.109  0.00  0.00    -0.194 N 
ENDROOT
BRANCH   1   6
ATOM      2  C   UNL     1       0.563   1.473  -0.259  0.00  0.00    +0.044 C 
ATOM      3  C   UNL     1       0.535  -0.030  -0.162  0.00  0.00    -0.050 A 
ATOM      4  C   UNL     1      -0.258  -0.763  -1.026  0.00  0.00    +0.005 A 
ATOM      5  C   UNL     1      -0.286  -2.141  -0.939  0.00  0.00    +0.025 A 
ATOM      6  C   UNL     1       0.483  -2.791   0.018  0.00  0.00    +0.052 A 
ATOM      7  C   UNL     1       1.279  -2.052   0.884  0.00  0.00    +0.025 A 
ATOM      8  C   UNL     1       1.306  -0.674   0.788  0.00  0.00    +0.005 A 
ENDBRANCH   1   6
BRANCH   1   9
ATOM      9  S   UNL     1      -0.030  -4.914   1.514  0.00  0.00    +0.075 S 
ATOM     10  O   UNL     1       0.659  -6.154   1.587  0.00  0.00    -0.150 OA
ATOM     11  O   UNL     1       0.062  -3.930   2.535  0.00  0.00    -0.150 OA
BRANCH   9  12
ATOM     12  C   UNL     1      -1.740  -5.297   1.336  0.00  0.00    +0.109 A 
ATOM     13  C   UNL     1      -2.698  -4.375   1.717  0.00  0.00    +0.030 A 
ATOM     14  C   UNL     1      -4.040  -4.675   1.577  0.00  0.00    +0.022 A 
ATOM     15  C   UNL     1      -4.425  -5.898   1.057  0.00  0.00    +0.041 A 
ATOM     16  C   UNL     1      -3.466  -6.820   0.676  0.00  0.00    +0.022 A 
ATOM     17  C   UNL     1      -2.124  -6.516   0.810  0.00  0.00    +0.030 A 
ATOM     18 CL   UNL     1      -6.110  -6.276   0.883  0.00  0.00    -0.084 Cl
ENDBRANCH   9  12
ENDBRANCH   1   9
BRANCH   1  19
ATOM     19  C   UNL     1       0.860  -5.001  -1.039  0.00  0.00    +0.228 C 
BRANCH  19  20
ATOM     20  C   UNL     1       2.357  -5.173  -1.032  0.00  0.00    +0.251 C 
ATOM     21  O   UNL     1       3.022  -4.664  -0.154  0.00  0.00    -0.272 OA
ATOM     22  N   UNL     1       2.958  -5.893  -2.000  0.00  0.00    -0.206 N 
ATOM     23  H   UNL     1       2.426  -6.301  -2.702  0.00  0.00    +0.177 HD
BRANCH  22  24
ATOM     24  N   UNL     1       4.349  -6.053  -1.994  0.00  0.00    -0.188 NA
ATOM     25  C   UNL     1       4.927  -6.747  -2.927  0.00  0.00    +0.138 C 
BRANCH  25  26
ATOM     26  C   UNL     1       6.391  -6.915  -2.920  0.00  0.00    -0.005 A 
ATOM     27  C   UNL     1       7.159  -6.333  -1.906  0.00  0.00    +0.011 A 
ATOM     28  C   UNL     1       8.527  -6.493  -1.903  0.00  0.00    +0.024 A 
ATOM     29  C   UNL     1       9.145  -7.232  -2.906  0.00  0.00    +0.029 A 
ATOM     30  C   UNL     1       8.385  -7.811  -3.917  0.00  0.00    +0.024 A 
ATOM     31  C   UNL     1       7.016  -7.661  -3.923  0.00  0.00    +0.011 A 
BRANCH  29  32
ATOM     32  N   UNL     1      10.530  -7.391  -2.900  0.00  0.00    -0.336 N 
ATOM     33  C   UNL     1      11.321  -6.881  -1.777  0.00  0.00    +0.129 C 
ATOM     34  C   UNL     1      11.195  -8.069  -4.016  0.00  0.00    +0.129 C 
ENDBRANCH  29  32
ENDBRANCH  25  26
ENDBRANCH  22  24
ENDBRANCH  19  20
ENDBRANCH   1  19
TORSDOF 8
