REMARK  Name = ZINC15981051
REMARK  8 active torsions:
REMARK  status: ('A' for Active; 'I' for Inactive)
REMARK    1  A    between atoms: C_1  and  C_2
REMARK    2  A    between atoms: C_2  and  C_35
REMARK    3  A    between atoms: N_9  and  C_34
REMARK    4  A    between atoms: C_11  and  C_12
REMARK    5  A    between atoms: N_13  and  N_14
REMARK    6  A    between atoms: C_15  and  C_17
REMARK    7  A    between atoms: N_19  and  C_28
REMARK    8  A    between atoms: C_21  and  C_22
REMARK                            x       y       z     vdW  Elec       q    Type
REMARK                         _______ _______ _______ _____ _____    ______ ____
ROOT
ATOM      1  N   UNL     1       1.353   8.280   0.072  0.00  0.00    -0.203 N 
ATOM      2  C   UNL     1       1.748   9.563  -0.042  0.00  0.00    +0.267 C 
ATOM      3  O   UNL     1       2.921   9.824  -0.236  0.00  0.00    -0.268 OA
ATOM      4  H   UNL     1       0.418   8.072   0.227  0.00  0.00    +0.178 HD
ENDROOT
BRANCH   2   5
ATOM      5  C   UNL     1       0.761  10.650   0.068  0.00  0.00    +0.084 A 
ATOM      6  C   UNL     1      -0.595  10.517   0.286  0.00  0.00    +0.128 A 
ATOM      7  N   UNL     1      -1.131  11.750   0.320  0.00  0.00    -0.239 N 
ATOM      8  N   UNL     1      -0.128  12.703   0.124  0.00  0.00    -0.166 NA
ATOM      9  C   UNL     1       1.025  12.090  -0.026  0.00  0.00    +0.105 A 
BRANCH   9  10
ATOM     10  C   UNL     1       2.342  12.732  -0.251  0.00  0.00    +0.003 A 
ATOM     11  C   UNL     1       3.495  12.173   0.299  0.00  0.00    +0.010 A 
ATOM     12  C   UNL     1       4.720  12.772   0.082  0.00  0.00    +0.001 A 
ATOM     13  C   UNL     1       4.803  13.930  -0.671  0.00  0.00    +0.000 A 
ATOM     14  C   UNL     1       3.661  14.492  -1.214  0.00  0.00    +0.001 A 
ATOM     15  C   UNL     1       2.432  13.899  -1.008  0.00  0.00    +0.010 A 
ENDBRANCH   9  10
BRANCH   7  16
ATOM     16  C   UNL     1      -2.488  12.035   0.520  0.00  0.00    +0.065 A 
ATOM     17  C   UNL     1      -3.397  11.001   0.698  0.00  0.00    +0.028 A 
ATOM     18  C   UNL     1      -4.733  11.286   0.900  0.00  0.00    +0.002 A 
ATOM     19  C   UNL     1      -5.168  12.598   0.915  0.00  0.00    +0.000 A 
ATOM     20  C   UNL     1      -4.265  13.630   0.733  0.00  0.00    +0.002 A 
ATOM     21  C   UNL     1      -2.927  13.352   0.535  0.00  0.00    +0.028 A 
ENDBRANCH   7  16
ENDBRANCH   2   5
BRANCH   1  23
ATOM     22  C   UNL     1       1.911   6.006   0.078  0.00  0.00    +0.132 C 
ATOM     23  N   UNL     1       2.292   7.246  -0.033  0.00  0.00    -0.188 NA
BRANCH  22  34
ATOM     24  C   UNL     1       4.198   2.395   1.292  0.00  0.00    +0.022 C 
ATOM     25  C   UNL     1       3.365   2.417   0.009  0.00  0.00    +0.030 C 
ATOM     26  C   UNL     1       2.393   1.260  -0.010  0.00  0.00    -0.015 A 
ATOM     27  C   UNL     1       2.574  -0.106   0.009  0.00  0.00    +0.006 A 
ATOM     28  C   UNL     1       1.477  -0.949  -0.017  0.00  0.00    +0.000 A 
ATOM     29  C   UNL     1       0.201  -0.417  -0.060  0.00  0.00    +0.002 A 
ATOM     30  C   UNL     1       0.016   0.949  -0.079  0.00  0.00    +0.024 A 
ATOM     31  C   UNL     1       1.117   1.806  -0.054  0.00  0.00    +0.038 A 
ATOM     32  N   UNL     1       1.182   3.198  -0.066  0.00  0.00    -0.306 N 
ATOM     33  C   UNL     1       2.483   3.646  -0.031  0.00  0.00    +0.022 C 
ATOM     34  C   UNL     1       2.891   4.927  -0.032  0.00  0.00    +0.041 C 
ATOM     35  C   UNL     1       0.010   4.075  -0.110  0.00  0.00    +0.135 C 
ATOM     36  C   UNL     1       4.274   2.372  -1.221  0.00  0.00    +0.022 C 
ENDBRANCH  22  34
ENDBRANCH   1  23
TORSDOF 5
