REMARK  Name = ZINC32570443
REMARK  8 active torsions:
REMARK  status: ('A' for Active; 'I' for Inactive)
REMARK    1  A    between atoms: C_1  and  C_2
REMARK    2  A    between atoms: C_2  and  C_4
REMARK    3  A    between atoms: C_2  and  S_20
REMARK    4  A    between atoms: N_9  and  C_10
REMARK    5  A    between atoms: S_20  and  C_21
REMARK    6  A    between atoms: C_23  and  C_26
REMARK    7  A    between atoms: C_29  and  O_32
REMARK    8  A    between atoms: O_32  and  C_33
REMARK                            x       y       z     vdW  Elec       q    Type
REMARK                         _______ _______ _______ _____ _____    ______ ____
ROOT
ATOM      1  C   UNL     1      -1.407  -0.525  -0.111  0.00  0.00    +0.233 C 
ATOM      2  O   UNL     1      -2.343   0.189   0.181  0.00  0.00    -0.274 OA
ATOM      3  N   UNL     1      -1.628  -1.784  -0.537  0.00  0.00    -0.239 N 
ATOM      4  C   UNL     1      -2.889  -2.250  -0.638  0.00  0.00    +0.306 C 
ATOM      5  O   UNL     1      -3.827  -1.535  -0.345  0.00  0.00    -0.252 OA
ATOM      6  N   UNL     1      -3.110  -3.510  -1.064  0.00  0.00    -0.294 N 
ATOM      7  H   UNL     1      -0.780  -2.432  -0.802  0.00  0.00    +0.159 HD
ATOM      8  H   UNL     1      -2.261  -4.158  -1.329  0.00  0.00    +0.151 HD
ENDROOT
BRANCH   6   9
ATOM      9  C   UNL     1      -4.480  -4.016  -1.174  0.00  0.00    +0.037 C 
ATOM     10  C   UNL     1      -5.154  -3.967   0.199  0.00  0.00    +0.029 C 
ATOM     11  C   UNL     1      -6.585  -4.495   0.084  0.00  0.00    -0.008 C 
ATOM     12  C   UNL     1      -6.556  -5.941  -0.418  0.00  0.00    +0.007 C 
ATOM     13  C   UNL     1      -5.882  -5.990  -1.791  0.00  0.00    -0.008 C 
ATOM     14  C   UNL     1      -4.451  -5.461  -1.676  0.00  0.00    +0.029 C 
ATOM     15  C   UNL     1      -6.669  -5.123  -2.777  0.00  0.00    +0.007 C 
ATOM     16  C   UNL     1      -6.698  -3.678  -2.275  0.00  0.00    -0.008 C 
ATOM     17  C   UNL     1      -7.371  -3.629  -0.902  0.00  0.00    +0.007 C 
ATOM     18  C   UNL     1      -5.266  -3.150  -2.160  0.00  0.00    +0.029 C 
ENDBRANCH   6   9
BRANCH   1  20
ATOM     19  C   UNL     1       0.631  -0.513   1.301  0.00  0.00    +0.029 C 
ATOM     20  C   UNL     1       0.002  -0.004   0.002  0.00  0.00    +0.137 C 
BRANCH  20  21
ATOM     21  S   UNL     1      -0.022   1.806   0.012  0.00  0.00    -0.074 S 
BRANCH  21  22
ATOM     22  C   UNL     1       1.708   2.135  -0.003  0.00  0.00    +0.185 A 
ATOM     23  N   UNL     1       2.299   3.367  -0.002  0.00  0.00    -0.201 NA
ATOM     24  C   UNL     1       3.654   3.129  -0.016  0.00  0.00    +0.182 A 
ATOM     25  N   UNL     1       3.816   1.827  -0.034  0.00  0.00    -0.152 NA
ATOM     26  N   UNL     1       2.672   1.242  -0.017  0.00  0.00    -0.253 N 
ATOM     27  H   UNL     1       2.616   0.143  -0.016  0.00  0.00    +0.191 HD
BRANCH  24  28
ATOM     28  C   UNL     1       4.725   4.148  -0.012  0.00  0.00    +0.021 A 
ATOM     29  C   UNL     1       4.399   5.506  -0.009  0.00  0.00    +0.015 A 
ATOM     30  C   UNL     1       5.401   6.453   0.001  0.00  0.00    +0.046 A 
ATOM     31  C   UNL     1       6.733   6.058  -0.004  0.00  0.00    +0.120 A 
ATOM     32  C   UNL     1       7.061   4.708  -0.013  0.00  0.00    +0.046 A 
ATOM     33  C   UNL     1       6.064   3.755  -0.017  0.00  0.00    +0.015 A 
BRANCH  31  34
ATOM     34  O   UNL     1       7.717   6.994  -0.001  0.00  0.00    -0.495 OA
ATOM     35  C   UNL     1       7.310   8.364   0.008  0.00  0.00    +0.277 C 
ENDBRANCH  31  34
ENDBRANCH  24  28
ENDBRANCH  21  22
ENDBRANCH  20  21
ENDBRANCH   1  20
TORSDOF 6
