REMARK  Name = ZINC13278930
REMARK  11 active torsions:
REMARK  status: ('A' for Active; 'I' for Inactive)
REMARK    1  A    between atoms: C_1  and  C_2
REMARK    2  A    between atoms: C_3  and  C_25
REMARK    3  A    between atoms: C_4  and  C_24
REMARK    4  A    between atoms: C_5  and  S_10
REMARK    5  A    between atoms: C_6  and  C_9
REMARK    6  A    between atoms: C_7  and  C_8
REMARK    7  A    between atoms: S_10  and  N_13
REMARK    8  A    between atoms: N_13  and  C_14
REMARK    9  A    between atoms: C_17  and  C_22
REMARK   10  A    between atoms: C_19  and  S_20
REMARK   11  A    between atoms: S_20  and  C_21
REMARK                            x       y       z     vdW  Elec       q    Type
REMARK                         _______ _______ _______ _____ _____    ______ ____
ROOT
ATOM      1  S   UNL     1      -2.510   3.778   4.367  0.00  0.00    +0.073 S 
ATOM      2  O   UNL     1      -1.444   4.532   4.926  0.00  0.00    -0.150 OA
ATOM      3  O   UNL     1      -3.544   4.375   3.596  0.00  0.00    -0.150 OA
ENDROOT
BRANCH   1   8
ATOM      4  C   UNL     1       0.011  -0.456   0.885  0.00  0.00    +0.044 C 
ATOM      5  C   UNL     1      -0.619   0.601   1.755  0.00  0.00    -0.044 A 
ATOM      6  C   UNL     1      -1.929   0.984   1.538  0.00  0.00    -0.043 A 
ATOM      7  C   UNL     1      -2.509   1.950   2.340  0.00  0.00    -0.020 A 
ATOM      8  C   UNL     1      -1.774   2.541   3.351  0.00  0.00    +0.115 A 
ATOM      9  C   UNL     1      -0.462   2.162   3.564  0.00  0.00    -0.020 A 
ATOM     10  C   UNL     1       0.116   1.192   2.766  0.00  0.00    -0.043 A 
ATOM     11  C   UNL     1       1.546   0.780   2.998  0.00  0.00    +0.044 C 
ATOM     12  C   UNL     1       0.339   2.807   4.666  0.00  0.00    +0.046 C 
ATOM     13  C   UNL     1      -3.939   2.363   2.107  0.00  0.00    +0.046 C 
ATOM     14  C   UNL     1      -2.728   0.344   0.432  0.00  0.00    +0.044 C 
ENDBRANCH   1   8
BRANCH   1  15
ATOM     15  N   UNL     1      -3.250   2.999   5.628  0.00  0.00    -0.215 N 
ATOM     16  H   UNL     1      -4.210   3.070   5.746  0.00  0.00    +0.174 HD
BRANCH  15  17
ATOM     17  C   UNL     1      -2.493   2.241   6.519  0.00  0.00    +0.061 A 
ATOM     18  C   UNL     1      -2.164   0.927   6.207  0.00  0.00    +0.026 A 
ATOM     19  C   UNL     1      -1.416   0.174   7.084  0.00  0.00    +0.017 A 
ATOM     20  C   UNL     1      -0.984   0.730   8.292  0.00  0.00    +0.064 A 
ATOM     21  C   UNL     1      -1.313   2.052   8.608  0.00  0.00    +0.031 A 
ATOM     22  C   UNL     1      -2.060   2.806   7.722  0.00  0.00    +0.031 A 
BRANCH  20  23
ATOM     23  C   UNL     1      -0.183  -0.076   9.231  0.00  0.00    +0.387 C 
ATOM     24  O   UNL     1       0.193   0.409  10.280  0.00  0.00    -0.241 OA
ATOM     25  O   UNL     1       0.134  -1.349   8.925  0.00  0.00    -0.241 OA
ENDBRANCH  20  23
BRANCH  22  26
ATOM     26  S   UNL     1      -2.472   4.474   8.112  0.00  0.00    -0.127 S 
ATOM     27  C   UNL     1      -1.708   4.747   9.735  0.00  0.00    +0.090 C 
ENDBRANCH  22  26
ENDBRANCH  15  17
ENDBRANCH   1  15
TORSDOF 5
