REMARK  Name = ZINC39227506
REMARK  9 active torsions:
REMARK  status: ('A' for Active; 'I' for Inactive)
REMARK    1  A    between atoms: C_1  and  C_2
REMARK    2  A    between atoms: C_2  and  C_3
REMARK    3  A    between atoms: C_2  and  N_4
REMARK    4  A    between atoms: C_15  and  C_20
REMARK    5  A    between atoms: C_24  and  C_26
REMARK    6  A    between atoms: N_28  and  C_29
REMARK    7  A    between atoms: N_28  and  C_30
REMARK    8  A    between atoms: C_30  and  C_31
REMARK    9  A    between atoms: C_31  and  C_32
REMARK                            x       y       z     vdW  Elec       q    Type
REMARK                         _______ _______ _______ _____ _____    ______ ____
ROOT
ATOM      1  N   UNL     1      -1.861   0.739  -0.086  0.00  0.00    +0.381 N 
ATOM      2  C   UNL     1      -1.933  -0.717   0.088  0.00  0.00    -0.075 C 
ATOM      3  C   UNL     1      -3.397  -1.154   0.167  0.00  0.00    +0.030 C 
ATOM      4  C   UNL     1      -4.114  -0.754  -1.124  0.00  0.00    +0.114 C 
ATOM      5  C   UNL     1      -3.968   0.755  -1.337  0.00  0.00    +0.030 C 
ATOM      6  C   UNL     1      -2.482   1.119  -1.360  0.00  0.00    -0.075 C 
ATOM      7  C   UNL     1      -5.603  -1.108  -1.011  0.00  0.00    +0.127 C 
ATOM      8  C   UNL     1      -6.257  -0.712  -2.323  0.00  0.00    +0.170 C 
ATOM      9  O   UNL     1      -7.356  -0.198  -2.359  0.00  0.00    -0.292 OA
ATOM     10  C   UNL     1      -5.488  -0.984  -3.550  0.00  0.00    +0.060 A 
ATOM     11  C   UNL     1      -6.092  -0.885  -4.803  0.00  0.00    +0.023 A 
ATOM     12  C   UNL     1      -5.344  -1.141  -5.946  0.00  0.00    -0.017 A 
ATOM     13  C   UNL     1      -3.997  -1.495  -5.833  0.00  0.00    +0.012 A 
ATOM     14  C   UNL     1      -3.401  -1.594  -4.595  0.00  0.00    +0.047 A 
ATOM     15  C   UNL     1      -4.134  -1.344  -3.442  0.00  0.00    +0.132 A 
ATOM     16  O   UNL     1      -3.542  -1.452  -2.229  0.00  0.00    -0.485 OA
ATOM     17  H   UNL     1      -2.349   1.190   0.673  0.00  0.00    -0.081 HD
ENDROOT
BRANCH  12  18
ATOM     18  C   UNL     1      -5.975  -1.039  -7.285  0.00  0.00    -0.017 A 
ATOM     19  C   UNL     1      -7.318  -0.680  -7.399  0.00  0.00    +0.008 A 
ATOM     20  C   UNL     1      -7.907  -0.585  -8.644  0.00  0.00    +0.001 A 
ATOM     21  C   UNL     1      -7.173  -0.844  -9.784  0.00  0.00    +0.013 A 
ATOM     22  C   UNL     1      -5.827  -1.203  -9.684  0.00  0.00    +0.037 A 
ATOM     23  C   UNL     1      -5.227  -1.296  -8.429  0.00  0.00    +0.021 A 
BRANCH  22  24
ATOM     24  C   UNL     1      -5.041  -1.481 -10.905  0.00  0.00    +0.246 C 
ATOM     25  O   UNL     1      -3.887  -1.106 -10.983  0.00  0.00    -0.270 OA
ATOM     26  N   UNL     1      -5.603  -2.149 -11.931  0.00  0.00    -0.300 N 
ATOM     27  C   UNL     1      -7.023  -2.508 -11.881  0.00  0.00    +0.132 C 
BRANCH  26  28
ATOM     28  C   UNL     1      -4.795  -2.518 -13.096  0.00  0.00    +0.112 C 
BRANCH  28  29
ATOM     29  C   UNL     1      -4.175  -3.898 -12.871  0.00  0.00    +0.054 C 
BRANCH  29  30
ATOM     30  C   UNL     1      -3.343  -4.277 -14.069  0.00  0.00    -0.046 A 
ATOM     31  C   UNL     1      -3.921  -4.958 -15.124  0.00  0.00    +0.004 A 
ATOM     32  C   UNL     1      -3.158  -5.305 -16.223  0.00  0.00    +0.000 A 
ATOM     33  C   UNL     1      -1.817  -4.971 -16.268  0.00  0.00    +0.000 A 
ATOM     34  C   UNL     1      -1.240  -4.289 -15.213  0.00  0.00    +0.000 A 
ATOM     35  C   UNL     1      -2.003  -3.938 -14.116  0.00  0.00    +0.004 A 
ENDBRANCH  29  30
ENDBRANCH  28  29
ENDBRANCH  26  28
ENDBRANCH  22  24
ENDBRANCH  12  18
BRANCH   1  37
ATOM     36  C   UNL     1      -0.378   2.680  -0.253  0.00  0.00    -0.014 C 
ATOM     37  C   UNL     1      -0.454   1.162  -0.082  0.00  0.00    -0.075 C 
ATOM     38  C   UNL     1       0.194   0.765   1.246  0.00  0.00    -0.014 C 
ENDBRANCH   1  37
TORSDOF 6
