REMARK  Name = ZINC31038798
REMARK  11 active torsions:
REMARK  status: ('A' for Active; 'I' for Inactive)
REMARK    1  A    between atoms: C_1  and  C_2
REMARK    2  A    between atoms: C_5  and  N_9
REMARK    3  A    between atoms: C_10  and  C_12
REMARK    4  A    between atoms: C_12  and  C_14
REMARK    5  A    between atoms: C_12  and  N_15
REMARK    6  A    between atoms: N_15  and  C_16
REMARK    7  A    between atoms: N_15  and  C_17
REMARK    8  A    between atoms: C_17  and  C_18
REMARK    9  A    between atoms: N_20  and  C_21
REMARK   10  A    between atoms: C_26  and  S_27
REMARK   11  A    between atoms: S_27  and  C_28
REMARK                            x       y       z     vdW  Elec       q    Type
REMARK                         _______ _______ _______ _____ _____    ______ ____
ROOT
ATOM      1  N   UNL     1      -0.059  -6.822  -2.559  0.00  0.00    +0.391 N 
ATOM      2  C   UNL     1       1.163  -6.366  -3.233  0.00  0.00    -0.094 C 
ATOM      3  H   UNL     1      -0.866  -6.473  -3.053  0.00  0.00    -0.080 HD
ENDROOT
BRANCH   1   4
ATOM      4  C   UNL     1      -0.074  -6.319  -1.179  0.00  0.00    +0.017 C 
ATOM      5  C   UNL     1      -1.291  -6.885  -0.443  0.00  0.00    -0.004 C 
BRANCH   4   7
ATOM      6  N   UNL     1       0.066  -4.118  -0.060  0.00  0.00    -0.286 N 
ATOM      7  C   UNL     1      -0.150  -4.814  -1.194  0.00  0.00    +0.203 C 
ATOM      8  O   UNL     1      -0.406  -4.230  -2.225  0.00  0.00    -0.277 OA
ATOM      9  H   UNL     1       0.344  -4.579   0.747  0.00  0.00    +0.155 HD
BRANCH   6  14
ATOM     10  C   UNL     1      -0.652   1.511  -0.009  0.00  0.00    +0.044 C 
ATOM     11  C   UNL     1      -0.461   0.016  -0.023  0.00  0.00    -0.049 A 
ATOM     12  C   UNL     1      -1.119  -0.756  -0.963  0.00  0.00    +0.005 A 
ATOM     13  C   UNL     1      -0.947  -2.126  -0.978  0.00  0.00    +0.024 A 
ATOM     14  C   UNL     1      -0.111  -2.729  -0.048  0.00  0.00    +0.047 A 
ATOM     15  C   UNL     1       0.550  -1.952   0.895  0.00  0.00    +0.039 A 
ATOM     16  C   UNL     1       0.377  -0.581   0.901  0.00  0.00    +0.020 A 
ATOM     17 BR   UNL     1       1.690  -2.768   2.164  0.00  0.00    -0.048 Br
ENDBRANCH   6  14
ENDBRANCH   4   7
ENDBRANCH   1   4
BRANCH   1  18
ATOM     18  C   UNL     1      -0.091  -8.291  -2.546  0.00  0.00    +0.020 C 
BRANCH  18  19
ATOM     19  C   UNL     1      -0.200  -8.804  -3.958  0.00  0.00    +0.201 C 
ATOM     20  O   UNL     1      -0.246  -8.023  -4.885  0.00  0.00    -0.278 OA
ATOM     21  N   UNL     1      -0.246 -10.131  -4.192  0.00  0.00    -0.286 N 
ATOM     22  H   UNL     1      -0.280 -10.753  -3.449  0.00  0.00    +0.155 HD
BRANCH  21  23
ATOM     23  C   UNL     1      -0.245 -10.611  -5.508  0.00  0.00    +0.047 A 
ATOM     24  C   UNL     1      -0.732  -9.820  -6.538  0.00  0.00    +0.024 A 
ATOM     25  C   UNL     1      -0.730 -10.295  -7.836  0.00  0.00    +0.002 A 
ATOM     26  C   UNL     1      -0.243 -11.560  -8.113  0.00  0.00    +0.001 A 
ATOM     27  C   UNL     1       0.245 -12.356  -7.093  0.00  0.00    +0.016 A 
ATOM     28  C   UNL     1       0.252 -11.884  -5.788  0.00  0.00    +0.029 A 
BRANCH  28  29
ATOM     29  S   UNL     1       0.879 -12.894  -4.487  0.00  0.00    -0.127 S 
ATOM     30  C   UNL     1       1.396 -14.418  -5.325  0.00  0.00    +0.090 C 
ENDBRANCH  28  29
ENDBRANCH  21  23
ENDBRANCH  18  19
ENDBRANCH   1  18
TORSDOF 7
