REMARK  Name = ZINC35397895
REMARK  13 active torsions:
REMARK  status: ('A' for Active; 'I' for Inactive)
REMARK    1  A    between atoms: C_1  and  C_2
REMARK    2  A    between atoms: C_2  and  N_3
REMARK    3  A    between atoms: C_5  and  C_9
REMARK    4  A    between atoms: C_6  and  C_8
REMARK    5  A    between atoms: C_9  and  N_10
REMARK    6  A    between atoms: N_10  and  C_11
REMARK    7  A    between atoms: C_13  and  C_31
REMARK    8  A    between atoms: C_15  and  N_18
REMARK    9  A    between atoms: N_18  and  S_19
REMARK   10  A    between atoms: S_19  and  C_22
REMARK   11  A    between atoms: C_23  and  C_30
REMARK   12  A    between atoms: C_25  and  C_29
REMARK   13  A    between atoms: C_27  and  C_28
REMARK                            x       y       z     vdW  Elec       q    Type
REMARK                         _______ _______ _______ _____ _____    ______ ____
ROOT
ATOM      1  N   UNL     1       2.549  -2.524  -2.682  0.00  0.00    -0.313 N 
ATOM      2  C   UNL     1       1.664  -1.942  -1.669  0.00  0.00    +0.131 C 
ATOM      3  C   UNL     1       2.946  -1.768  -3.770  0.00  0.00    +0.136 A 
ATOM      4  C   UNL     1       4.179  -1.092  -3.738  0.00  0.00    +0.105 A 
ATOM      5  C   UNL     1       4.562  -0.332  -4.851  0.00  0.00    +0.044 A 
ATOM      6  C   UNL     1       3.703  -0.281  -5.940  0.00  0.00    +0.067 A 
ATOM      7  C   UNL     1       2.501  -0.978  -5.894  0.00  0.00    +0.137 A 
ATOM      8  N   UNL     1       2.166  -1.691  -4.837  0.00  0.00    -0.238 NA
ENDROOT
BRANCH   4   9
ATOM      9  C   UNL     1       5.051  -1.181  -2.557  0.00  0.00    +0.390 C 
ATOM     10  O   UNL     1       6.078  -0.518  -2.503  0.00  0.00    -0.240 OA
ATOM     11  O   UNL     1       4.749  -1.918  -1.628  0.00  0.00    -0.240 OA
ENDBRANCH   4   9
BRANCH   6  12
ATOM     12  N   UNL     1       4.043   0.466  -7.075  0.00  0.00    -0.215 N 
ATOM     13  H   UNL     1       4.393   1.366  -6.977  0.00  0.00    +0.174 HD
BRANCH  12  14
ATOM     14  S   UNL     1       3.849  -0.186  -8.585  0.00  0.00    +0.073 S 
ATOM     15  O   UNL     1       4.300   0.793  -9.511  0.00  0.00    -0.150 OA
ATOM     16  O   UNL     1       4.397  -1.496  -8.534  0.00  0.00    -0.150 OA
BRANCH  14  17
ATOM     17  C   UNL     1       2.118  -0.373  -8.853  0.00  0.00    +0.114 A 
ATOM     18  C   UNL     1       1.316   0.743  -8.994  0.00  0.00    -0.023 A 
ATOM     19  C   UNL     1      -0.043   0.596  -9.205  0.00  0.00    +0.008 A 
ATOM     20  C   UNL     1      -0.598  -0.668  -9.274  0.00  0.00    -0.050 A 
ATOM     21  C   UNL     1       0.204  -1.784  -9.134  0.00  0.00    +0.008 A 
ATOM     22  C   UNL     1       1.563  -1.637  -8.928  0.00  0.00    -0.023 A 
ATOM     23  C   UNL     1       2.439  -2.855  -8.780  0.00  0.00    +0.046 C 
ATOM     24  C   UNL     1      -2.079  -0.828  -9.503  0.00  0.00    +0.044 C 
ATOM     25  C   UNL     1       1.921   2.121  -8.918  0.00  0.00    +0.046 C 
ENDBRANCH  14  17
ENDBRANCH  12  14
ENDBRANCH   6  12
BRANCH   1  26
ATOM     26  C   UNL     1       3.013  -3.907  -2.541  0.00  0.00    +0.144 C 
BRANCH  26  29
ATOM     27  N   UNL     1       0.473  -6.218  -3.768  0.00  0.00    -0.271 N 
ATOM     28  C   UNL     1       1.048  -5.516  -2.769  0.00  0.00    +0.113 A 
ATOM     29  C   UNL     1       2.087  -4.827  -3.295  0.00  0.00    +0.010 A 
ATOM     30  C   UNL     1       2.149  -5.117  -4.662  0.00  0.00    +0.065 A 
ATOM     31  N   UNL     1       1.186  -5.956  -4.945  0.00  0.00    -0.176 NA
ATOM     32  C   UNL     1       3.156  -4.565  -5.638  0.00  0.00    +0.068 C 
BRANCH  27  34
ATOM     33  C   UNL     1      -1.766  -6.675  -4.639  0.00  0.00    +0.029 C 
ATOM     34  C   UNL     1      -0.687  -7.104  -3.642  0.00  0.00    +0.140 C 
ENDBRANCH  27  34
ENDBRANCH  26  29
ENDBRANCH   1  26
TORSDOF 7
