REMARK  Name = ZINC03262830
REMARK  3 active torsions:
REMARK  status: ('A' for Active; 'I' for Inactive)
REMARK    1  A    between atoms: C_4  and  N_17
REMARK    2  A    between atoms: C_5  and  C_7
REMARK    3  A    between atoms: C_18  and  C_20
REMARK                            x       y       z     vdW  Elec       q    Type
REMARK                         _______ _______ _______ _____ _____    ______ ____
ROOT
ATOM      1  C   UNL     1       6.280   2.378   0.887  0.00  0.00    +0.001 A 
ATOM      2  C   UNL     1       5.393   2.889  -0.045  0.00  0.00    +0.002 A 
ATOM      3  C   UNL     1       4.065   2.508  -0.027  0.00  0.00    +0.024 A 
ATOM      4  C   UNL     1       3.613   1.608   0.928  0.00  0.00    +0.044 A 
ATOM      5  C   UNL     1       4.508   1.094   1.876  0.00  0.00    +0.038 A 
ATOM      6  C   UNL     1       5.847   1.483   1.843  0.00  0.00    +0.013 A 
ENDROOT
BRANCH   5   7
ATOM      7  C   UNL     1       4.036   0.140   2.901  0.00  0.00    +0.141 A 
ATOM      8  N   UNL     1       4.796  -0.350   3.929  0.00  0.00    -0.338 N 
ATOM      9  H   UNL     1       5.754  -0.133   4.116  0.00  0.00    +0.167 HD
ATOM     10  C   UNL     1       3.992  -1.203   4.661  0.00  0.00    +0.066 A 
ATOM     11  C   UNL     1       4.191  -1.980   5.793  0.00  0.00    +0.028 A 
ATOM     12  C   UNL     1       3.157  -2.749   6.285  0.00  0.00    +0.002 A 
ATOM     13  C   UNL     1       1.920  -2.750   5.656  0.00  0.00    +0.002 A 
ATOM     14  C   UNL     1       1.705  -1.992   4.541  0.00  0.00    +0.030 A 
ATOM     15  C   UNL     1       2.739  -1.204   4.023  0.00  0.00    +0.089 A 
ATOM     16  N   UNL     1       2.829  -0.368   2.960  0.00  0.00    -0.228 NA
ENDBRANCH   5   7
BRANCH   4  17
ATOM     17  N   UNL     1       2.272   1.223   0.948  0.00  0.00    -0.282 N 
ATOM     18  C   UNL     1       1.591   1.091  -0.208  0.00  0.00    +0.261 C 
ATOM     19  O   UNL     1       2.119   1.387  -1.259  0.00  0.00    -0.271 OA
ATOM     20  H   UNL     1       1.830   1.050   1.794  0.00  0.00    +0.155 HD
BRANCH  18  21
ATOM     21  C   UNL     1       0.175   0.576  -0.194  0.00  0.00    +0.296 C 
ATOM     22  C   UNL     1      -0.734   1.580   0.528  0.00  0.00    +0.283 C 
ATOM     23  O   UNL     1      -2.070   1.067   0.512  0.00  0.00    -0.484 OA
ATOM     24  C   UNL     1      -2.525   0.578  -0.674  0.00  0.00    +0.162 A 
ATOM     25  C   UNL     1      -3.887   0.400  -0.860  0.00  0.00    +0.049 A 
ATOM     26  C   UNL     1      -4.364  -0.098  -2.058  0.00  0.00    +0.004 A 
ATOM     27  C   UNL     1      -3.483  -0.420  -3.074  0.00  0.00    +0.004 A 
ATOM     28  C   UNL     1      -2.124  -0.244  -2.896  0.00  0.00    +0.049 A 
ATOM     29  C   UNL     1      -1.640   0.257  -1.696  0.00  0.00    +0.163 A 
ATOM     30  O   UNL     1      -0.298   0.427  -1.537  0.00  0.00    -0.473 OA
ENDBRANCH  18  21
ENDBRANCH   4  17
TORSDOF 3
