REMARK  Name = ZINC48697277
REMARK  3 active torsions:
REMARK  status: ('A' for Active; 'I' for Inactive)
REMARK    1  A    between atoms: C_1  and  C_2
REMARK    2  A    between atoms: C_7  and  N_10
REMARK    3  A    between atoms: C_11  and  C_13
REMARK                            x       y       z     vdW  Elec       q    Type
REMARK                         _______ _______ _______ _____ _____    ______ ____
ROOT
ATOM      1  N   UNL     1       1.471  -2.526   2.420  0.00  0.00    -0.307 N 
ATOM      2  C   UNL     1       1.207  -3.754   2.907  0.00  0.00    +0.264 C 
ATOM      3  O   UNL     1       0.380  -4.460   2.362  0.00  0.00    -0.268 OA
ATOM      4  H   UNL     1       2.131  -1.963   2.855  0.00  0.00    +0.149 HD
ENDROOT
BRANCH   1  10
ATOM      5  C   UNL     1      -0.019   1.526   0.010  0.00  0.00    +0.007 C 
ATOM      6  C   UNL     1       0.002  -0.004   0.002  0.00  0.00    -0.012 C 
ATOM      7  C   UNL     1       0.718  -0.497  -1.257  0.00  0.00    +0.003 C 
ATOM      8  C   UNL     1       0.739  -2.027  -1.265  0.00  0.00    +0.002 C 
ATOM      9  C   UNL     1       1.479  -2.534  -0.026  0.00  0.00    +0.022 C 
ATOM     10  C   UNL     1       0.763  -2.041   1.233  0.00  0.00    +0.074 C 
ATOM     11  C   UNL     1       0.742  -0.511   1.242  0.00  0.00    +0.025 C 
ENDBRANCH   1  10
BRANCH   2  12
ATOM     12  C   UNL     1       1.921  -4.244   4.104  0.00  0.00    +0.147 A 
ATOM     13  C   UNL     1       1.757  -5.504   4.726  0.00  0.00    +0.054 A 
ATOM     14  C   UNL     1       2.612  -5.504   5.775  0.00  0.00    +0.105 A 
ATOM     15  N   UNL     1       3.246  -4.311   5.775  0.00  0.00    -0.284 N 
ATOM     16  H   UNL     1       3.917  -4.039   6.420  0.00  0.00    +0.188 HD
ATOM     17  N   UNL     1       2.837  -3.591   4.792  0.00  0.00    -0.169 NA
ENDBRANCH   2  12
TORSDOF 2
