REMARK  Name = ZINC47906299
REMARK  8 active torsions:
REMARK  status: ('A' for Active; 'I' for Inactive)
REMARK    1  A    between atoms: C_1  and  C_2
REMARK    2  A    between atoms: C_2  and  C_4
REMARK    3  A    between atoms: C_2  and  N_14
REMARK    4  A    between atoms: C_7  and  S_10
REMARK    5  A    between atoms: S_10  and  N_13
REMARK    6  A    between atoms: N_17  and  C_18
REMARK    7  A    between atoms: C_22  and  O_24
REMARK    8  A    between atoms: O_24  and  C_25
REMARK                            x       y       z     vdW  Elec       q    Type
REMARK                         _______ _______ _______ _____ _____    ______ ____
ROOT
ATOM      1  N   UNL     1       0.710  -0.495   1.187  0.00  0.00    -0.293 N 
ATOM      2  C   UNL     1       0.052  -0.632   2.356  0.00  0.00    +0.304 C 
ATOM      3  O   UNL     1      -1.129  -0.350   2.425  0.00  0.00    -0.252 OA
ATOM      4  N   UNL     1       0.703  -1.080   3.447  0.00  0.00    -0.269 N 
ATOM      5  H   UNL     1       1.652  -0.719   1.132  0.00  0.00    +0.151 HD
ATOM      6  H   UNL     1       1.627  -1.368   3.377  0.00  0.00    +0.156 HD
ENDROOT
BRANCH   4   7
ATOM      7  C   UNL     1       0.047  -1.130   4.682  0.00  0.00    +0.038 A 
ATOM      8  C   UNL     1       0.746  -0.864   5.853  0.00  0.00    +0.023 A 
ATOM      9  C   UNL     1       0.098  -0.914   7.072  0.00  0.00    +0.005 A 
ATOM     10  C   UNL     1      -1.247  -1.229   7.130  0.00  0.00    +0.046 A 
ATOM     11  C   UNL     1      -1.950  -1.497   5.964  0.00  0.00    +0.129 A 
ATOM     12  C   UNL     1      -1.304  -1.442   4.739  0.00  0.00    +0.069 A 
BRANCH  11  13
ATOM     13  O   UNL     1      -3.271  -1.808   6.023  0.00  0.00    -0.434 OA
BRANCH  13  14
ATOM     14  C   UNL     1      -3.873  -1.841   7.319  0.00  0.00    +0.541 C 
ATOM     15  F   UNL     1      -3.226  -2.797   8.110  0.00  0.00    -0.166 F 
ATOM     16  F   UNL     1      -3.755  -0.582   7.920  0.00  0.00    -0.166 F 
ENDBRANCH  13  14
ENDBRANCH  11  13
ENDBRANCH   4   7
BRANCH   1  18
ATOM     17  C   UNL     1      -0.009   1.522   0.006  0.00  0.00    +0.033 C 
ATOM     18  C   UNL     1       0.002  -0.008   0.001  0.00  0.00    +0.102 C 
BRANCH  18  19
ATOM     19  C   UNL     1       0.701  -0.501  -1.239  0.00  0.00    -0.027 A 
ATOM     20  C   UNL     1       2.082  -0.532  -1.288  0.00  0.00    +0.007 A 
ATOM     21  C   UNL     1       2.723  -0.985  -2.426  0.00  0.00    +0.029 A 
ATOM     22  C   UNL     1       1.984  -1.408  -3.514  0.00  0.00    +0.105 A 
ATOM     23  C   UNL     1       0.602  -1.379  -3.465  0.00  0.00    +0.029 A 
ATOM     24  C   UNL     1      -0.039  -0.929  -2.326  0.00  0.00    +0.007 A 
BRANCH  22  25
ATOM     25  S   UNL     1       2.801  -1.984  -4.965  0.00  0.00    +0.056 S 
ATOM     26  O   UNL     1       1.890  -1.810  -6.041  0.00  0.00    -0.153 OA
ATOM     27  O   UNL     1       4.096  -1.400  -4.961  0.00  0.00    -0.153 OA
BRANCH  25  28
ATOM     28  N   UNL     1       3.018  -3.617  -4.789  0.00  0.00    -0.204 NA
ATOM     29  H   UNL     1       2.708  -4.063  -3.986  0.00  0.00    +0.144 HD
ATOM     30  H   UNL     1       3.455  -4.126  -5.489  0.00  0.00    +0.144 HD
ENDBRANCH  25  28
ENDBRANCH  22  25
ENDBRANCH  18  19
ENDBRANCH   1  18
TORSDOF 7
