REMARK  Name = ZINC62010801
REMARK  9 active torsions:
REMARK  status: ('A' for Active; 'I' for Inactive)
REMARK    1  A    between atoms: C_1  and  N_2
REMARK    2  A    between atoms: N_2  and  C_3
REMARK    3  A    between atoms: N_2  and  C_18
REMARK    4  A    between atoms: C_3  and  C_4
REMARK    5  A    between atoms: C_4  and  N_5
REMARK    6  A    between atoms: N_5  and  S_6
REMARK    7  A    between atoms: S_6  and  C_9
REMARK    8  A    between atoms: C_14  and  N_15
REMARK    9  A    between atoms: N_15  and  N_16
REMARK                            x       y       z     vdW  Elec       q    Type
REMARK                         _______ _______ _______ _____ _____    ______ ____
ROOT
ATOM      1  S   UNL     1      -0.278  -0.734  -5.130  0.00  0.00    +0.062 S 
ATOM      2  O   UNL     1       0.523  -1.316  -6.149  0.00  0.00    -0.153 OA
ATOM      3  O   UNL     1      -1.501  -1.315  -4.698  0.00  0.00    -0.153 OA
ENDROOT
BRANCH   1   4
ATOM      4  C   UNL     1      -0.658   0.902  -5.661  0.00  0.00    +0.147 A 
ATOM      5  C   UNL     1      -1.963   1.361  -5.639  0.00  0.00    +0.048 A 
ATOM      6  C   UNL     1      -2.216   2.658  -6.067  0.00  0.00    +0.038 A 
ATOM      7  C   UNL     1      -1.166   3.446  -6.498  0.00  0.00    +0.128 A 
ATOM      8  N   UNL     1       0.068   2.980  -6.508  0.00  0.00    -0.236 NA
ATOM      9  C   UNL     1       0.351   1.752  -6.102  0.00  0.00    +0.159 A 
ATOM     10 BR   UNL     1      -3.981   3.339  -6.060  0.00  0.00    -0.049 Br
BRANCH   9  11
ATOM     11  N   UNL     1       1.667   1.305  -6.123  0.00  0.00    -0.266 N 
ATOM     12  H   UNL     1       1.892   0.441  -5.745  0.00  0.00    +0.167 HD
BRANCH  11  13
ATOM     13  N   UNL     1       2.644   2.084  -6.676  0.00  0.00    -0.255 NA
ATOM     14  H   UNL     1       3.544   1.631  -6.618  0.00  0.00    +0.140 HD
ATOM     15  H   UNL     1       2.420   2.322  -7.630  0.00  0.00    +0.140 HD
ENDBRANCH  11  13
ENDBRANCH   9  11
ENDBRANCH   1   4
BRANCH   1  16
ATOM     16  N   UNL     1       0.683  -0.603  -3.788  0.00  0.00    -0.192 NA
ATOM     17  H   UNL     1       1.599  -0.922  -3.814  0.00  0.00    +0.148 HD
BRANCH  16  18
ATOM     18  C   UNL     1       0.151  -0.005  -2.561  0.00  0.00    +0.087 C 
BRANCH  18  19
ATOM     19  C   UNL     1       1.074  -0.341  -1.388  0.00  0.00    -0.062 C 
BRANCH  19  21
ATOM     20  C   UNL     1       0.573   1.723  -0.273  0.00  0.00    -0.096 C 
ATOM     21  N   UNL     1       0.540   0.259  -0.158  0.00  0.00    +0.381 N 
ATOM     22  H   UNL     1      -0.412  -0.046  -0.021  0.00  0.00    -0.082 HD
BRANCH  21  23
ATOM     23  C   UNL     1       1.359  -0.161   0.987  0.00  0.00    -0.069 C 
ATOM     24  C   UNL     1       0.717  -1.105   2.006  0.00  0.00    -0.017 C 
ATOM     25  C   UNL     1       0.962   0.361   2.369  0.00  0.00    -0.017 C 
ENDBRANCH  21  23
ENDBRANCH  19  21
ENDBRANCH  18  19
ENDBRANCH  16  18
ENDBRANCH   1  16
TORSDOF 8
