REMARK  Name = ZINC13216228
REMARK  9 active torsions:
REMARK  status: ('A' for Active; 'I' for Inactive)
REMARK    1  A    between atoms: C_1  and  C_2
REMARK    2  A    between atoms: C_5  and  C_33
REMARK    3  A    between atoms: C_7  and  N_8
REMARK    4  A    between atoms: C_9  and  C_23
REMARK    5  A    between atoms: C_11  and  C_16
REMARK    6  A    between atoms: C_16  and  C_18
REMARK    7  A    between atoms: C_28  and  O_29
REMARK    8  A    between atoms: O_29  and  C_30
REMARK    9  A    between atoms: C_30  and  C_31
REMARK                            x       y       z     vdW  Elec       q    Type
REMARK                         _______ _______ _______ _____ _____    ______ ____
ROOT
ATOM      1  N   UNL     1       0.369  -0.348   2.912  0.00  0.00    -0.253 N 
ATOM      2  C   UNL     1      -0.926   0.215   3.312  0.00  0.00    +0.153 C 
ATOM      3  C   UNL     1      -0.618   1.310   4.307  0.00  0.00    +0.080 C 
ATOM      4  C   UNL     1       0.728   1.347   4.444  0.00  0.00    +0.250 C 
ATOM      5  C   UNL     1       1.332   0.313   3.580  0.00  0.00    +0.292 C 
ATOM      6  O   UNL     1       2.523   0.094   3.485  0.00  0.00    -0.266 OA
ATOM      7  O   UNL     1       1.411   2.194   5.248  0.00  0.00    -0.282 OA
ENDROOT
BRANCH   1  14
ATOM      8  C   UNL     1       0.534   0.299   0.150  0.00  0.00    +0.045 C 
ATOM      9  C   UNL     1       0.654  -1.120   0.642  0.00  0.00    -0.029 A 
ATOM     10  C   UNL     1       0.855  -2.147  -0.262  0.00  0.00    +0.006 A 
ATOM     11  C   UNL     1       0.966  -3.449   0.180  0.00  0.00    +0.015 A 
ATOM     12  C   UNL     1       0.875  -3.734   1.545  0.00  0.00    +0.065 A 
ATOM     13  C   UNL     1       0.671  -2.697   2.457  0.00  0.00    +0.039 A 
ATOM     14  C   UNL     1       0.567  -1.391   2.002  0.00  0.00    +0.041 A 
BRANCH  12  15
ATOM     15  C   UNL     1       0.992  -5.126   2.021  0.00  0.00    +0.387 C 
ATOM     16  O   UNL     1       1.170  -6.033   1.220  0.00  0.00    -0.241 OA
ATOM     17  O   UNL     1       0.912  -5.372   3.216  0.00  0.00    -0.241 OA
ENDBRANCH  12  15
ENDBRANCH   1  14
BRANCH   2  18
ATOM     18  C   UNL     1      -1.777  -0.848   3.956  0.00  0.00    +0.020 A 
ATOM     19  C   UNL     1      -1.892  -0.903   5.332  0.00  0.00    +0.009 A 
ATOM     20  C   UNL     1      -2.672  -1.879   5.923  0.00  0.00    +0.001 A 
ATOM     21  C   UNL     1      -3.341  -2.802   5.140  0.00  0.00    +0.004 A 
ATOM     22  C   UNL     1      -3.230  -2.751   3.764  0.00  0.00    +0.046 A 
ATOM     23  C   UNL     1      -2.451  -1.769   3.168  0.00  0.00    +0.127 A 
BRANCH  23  24
ATOM     24  O   UNL     1      -2.345  -1.714   1.814  0.00  0.00    -0.477 OA
BRANCH  24  25
ATOM     25  C   UNL     1      -3.107  -2.662   1.064  0.00  0.00    +0.346 C 
BRANCH  25  26
ATOM     26  C   UNL     1      -2.814  -2.503  -0.370  0.00  0.00    +0.104 C 
ATOM     27  N   UNL     1      -2.588  -2.380  -1.476  0.00  0.00    -0.193 NA
ENDBRANCH  25  26
ENDBRANCH  24  25
ENDBRANCH  23  24
ENDBRANCH   2  18
BRANCH   3  28
ATOM     28  C   UNL     1      -1.591   2.168   4.993  0.00  0.00    +0.230 C 
ATOM     29  O   UNL     1      -1.218   2.941   5.858  0.00  0.00    -0.283 OA
BRANCH  28  30
ATOM     30  C   UNL     1      -3.011   2.096   4.637  0.00  0.00    +0.175 A 
ATOM     31  C   UNL     1      -4.045   2.732   5.289  0.00  0.00    +0.053 A 
ATOM     32  C   UNL     1      -5.221   2.382   4.611  0.00  0.00    +0.042 A 
ATOM     33  C   UNL     1      -4.867   1.564   3.593  0.00  0.00    +0.196 A 
ATOM     34  O   UNL     1      -3.538   1.399   3.609  0.00  0.00    -0.460 OA
ENDBRANCH  28  30
ENDBRANCH   3  28
TORSDOF 8
