REMARK  Name = ZINC00718368
REMARK  9 active torsions:
REMARK  status: ('A' for Active; 'I' for Inactive)
REMARK    1  A    between atoms: C_1  and  O_2
REMARK    2  A    between atoms: O_2  and  C_3
REMARK    3  A    between atoms: C_7  and  C_18
REMARK    4  A    between atoms: C_8  and  O_9
REMARK    5  A    between atoms: O_9  and  C_10
REMARK    6  A    between atoms: C_10  and  C_11
REMARK    7  A    between atoms: C_20  and  C_37
REMARK    8  A    between atoms: C_21  and  N_36
REMARK    9  A    between atoms: C_28  and  C_31
REMARK                            x       y       z     vdW  Elec       q    Type
REMARK                         _______ _______ _______ _____ _____    ______ ____
ROOT
ATOM      1  C   UNL     1      -2.600  -4.161  -0.522  0.00  0.00    +0.105 C 
ATOM      2  C   UNL     1      -3.298  -4.379  -1.835  0.00  0.00    +0.098 C 
ATOM      3  C   UNL     1      -4.593  -4.779  -1.868  0.00  0.00    +0.198 C 
ATOM      4  O   UNL     1      -5.283  -4.989  -0.734  0.00  0.00    -0.445 OA
ATOM      5  C   UNL     1      -4.634  -5.224   0.422  0.00  0.00    +0.115 C 
ATOM      6  C   UNL     1      -3.356  -4.849   0.589  0.00  0.00    +0.046 C 
ATOM      7  C   UNL     1      -2.683  -5.084   1.803  0.00  0.00    +0.164 C 
ATOM      8  O   UNL     1      -1.522  -4.744   1.917  0.00  0.00    -0.292 OA
ATOM      9  C   UNL     1      -3.376  -5.747   2.962  0.00  0.00    +0.091 C 
ATOM     10  C   UNL     1      -4.877  -5.450   2.880  0.00  0.00    +0.070 C 
ATOM     11  C   UNL     1      -5.385  -5.928   1.528  0.00  0.00    +0.086 C 
ENDROOT
BRANCH   1  16
ATOM     12  C   UNL     1      -1.243  -0.663  -0.020  0.00  0.00    +0.162 A 
ATOM     13  C   UNL     1      -2.399   0.033   0.295  0.00  0.00    +0.049 A 
ATOM     14  C   UNL     1      -3.612  -0.627   0.344  0.00  0.00    +0.004 A 
ATOM     15  C   UNL     1      -3.676  -1.983   0.080  0.00  0.00    +0.008 A 
ATOM     16  C   UNL     1      -2.527  -2.684  -0.235  0.00  0.00    +0.011 A 
ATOM     17  C   UNL     1      -1.308  -2.027  -0.292  0.00  0.00    +0.166 A 
BRANCH  12  19
ATOM     18  C   UNL     1      -0.058   1.384   0.222  0.00  0.00    +0.277 C 
ATOM     19  O   UNL     1      -0.049  -0.015  -0.069  0.00  0.00    -0.491 OA
ENDBRANCH  12  19
BRANCH  17  20
ATOM     20  O   UNL     1      -0.178  -2.713  -0.607  0.00  0.00    -0.483 OA
BRANCH  20  21
ATOM     21  C   UNL     1       0.629  -3.169   0.481  0.00  0.00    +0.264 C 
BRANCH  21  22
ATOM     22  C   UNL     1       1.877  -3.821  -0.058  0.00  0.00    -0.010 A 
ATOM     23  C   UNL     1       1.883  -5.176  -0.334  0.00  0.00    +0.010 A 
ATOM     24  C   UNL     1       3.026  -5.775  -0.829  0.00  0.00    +0.039 A 
ATOM     25  C   UNL     1       4.165  -5.018  -1.047  0.00  0.00    +0.123 A 
ATOM     26  C   UNL     1       4.157  -3.662  -0.769  0.00  0.00    +0.039 A 
ATOM     27  C   UNL     1       3.011  -3.064  -0.280  0.00  0.00    +0.010 A 
ATOM     28  F   UNL     1       5.283  -5.603  -1.530  0.00  0.00    -0.205 F 
ENDBRANCH  21  22
ENDBRANCH  20  21
ENDBRANCH  17  20
ENDBRANCH   1  16
BRANCH  10  29
ATOM     29  C   UNL     1      -5.599  -6.179   3.984  0.00  0.00    +0.109 A 
ATOM     30  C   UNL     1      -6.338  -5.608   4.952  0.00  0.00    +0.045 A 
ATOM     31  C   UNL     1      -6.826  -6.656   5.766  0.00  0.00    +0.041 A 
ATOM     32  C   UNL     1      -6.356  -7.804   5.247  0.00  0.00    +0.195 A 
ATOM     33  O   UNL     1      -5.618  -7.510   4.164  0.00  0.00    -0.468 OA
ENDBRANCH  10  29
BRANCH   3  34
ATOM     34  N   UNL     1      -5.209  -4.973  -3.079  0.00  0.00    -0.328 N 
ATOM     35  H   UNL     1      -4.718  -4.823  -3.903  0.00  0.00    +0.145 HD
ATOM     36  H   UNL     1      -6.135  -5.259  -3.112  0.00  0.00    +0.145 HD
ENDBRANCH   3  34
BRANCH   2  37
ATOM     37  C   UNL     1      -2.590  -4.162  -3.060  0.00  0.00    +0.101 C 
ATOM     38  N   UNL     1      -2.028  -3.989  -4.033  0.00  0.00    -0.191 NA
ENDBRANCH   2  37
TORSDOF 8
