REMARK  Name = ZINC15673298
REMARK  9 active torsions:
REMARK  status: ('A' for Active; 'I' for Inactive)
REMARK    1  A    between atoms: C_1  and  C_2
REMARK    2  A    between atoms: C_2  and  C_3
REMARK    3  A    between atoms: C_12  and  C_24
REMARK    4  A    between atoms: C_12  and  C_25
REMARK    5  A    between atoms: N_13  and  C_16
REMARK    6  A    between atoms: C_18  and  C_23
REMARK    7  A    between atoms: C_21  and  C_22
REMARK    8  A    between atoms: N_27  and  C_28
REMARK    9  A    between atoms: C_31  and  C_34
REMARK                            x       y       z     vdW  Elec       q    Type
REMARK                         _______ _______ _______ _____ _____    ______ ____
ROOT
ATOM      1  C   UNL     1      -5.835 -10.383   2.493  0.00  0.00    -0.008 A 
ATOM      2  C   UNL     1      -5.146  -9.222   2.486  0.00  0.00    +0.037 A 
ATOM      3  C   UNL     1      -4.071  -9.045   1.603  0.00  0.00    +0.057 A 
ATOM      4  C   UNL     1      -3.787 -10.136   0.766  0.00  0.00    +0.038 A 
ATOM      5  S   UNL     1      -5.007 -11.336   1.232  0.00  0.00    -0.092 S 
ATOM      6  C   UNL     1      -2.704  -9.828  -0.048  0.00  0.00    +0.048 A 
ATOM      7  C   UNL     1      -2.307  -8.563   0.273  0.00  0.00    +0.107 A 
ATOM      8  N   UNL     1      -3.142  -8.075   1.272  0.00  0.00    -0.333 N 
ATOM      9  C   UNL     1      -2.989  -6.725   1.819  0.00  0.00    +0.158 C 
ATOM     10  C   UNL     1      -1.521  -6.308   1.717  0.00  0.00    +0.133 C 
ATOM     11  N   UNL     1      -0.945  -6.594   0.408  0.00  0.00    -0.250 N 
ATOM     12  C   UNL     1      -1.212  -7.743  -0.258  0.00  0.00    +0.268 C 
ATOM     13  O   UNL     1      -0.578  -8.076  -1.242  0.00  0.00    -0.268 OA
ATOM     14  C   UNL     1      -0.721  -7.057   2.784  0.00  0.00    +0.044 C 
ENDROOT
BRANCH  11  15
ATOM     15  C   UNL     1      -0.092  -5.654  -0.177  0.00  0.00    +0.041 A 
ATOM     16  C   UNL     1       1.263  -5.658   0.131  0.00  0.00    +0.027 A 
ATOM     17  C   UNL     1       2.104  -4.728  -0.449  0.00  0.00    -0.049 A 
ATOM     18  C   UNL     1       1.598  -3.795  -1.335  0.00  0.00    +0.004 A 
ATOM     19  C   UNL     1       0.250  -3.788  -1.644  0.00  0.00    +0.005 A 
ATOM     20  C   UNL     1      -0.595  -4.719  -1.071  0.00  0.00    -0.029 A 
ATOM     21  C   UNL     1      -2.063  -4.715  -1.413  0.00  0.00    +0.045 C 
ATOM     22  C   UNL     1       3.573  -4.732  -0.117  0.00  0.00    +0.044 C 
ENDBRANCH  11  15
BRANCH  10  23
ATOM     23  C   UNL     1      -1.417  -4.827   1.981  0.00  0.00    +0.239 C 
ATOM     24  O   UNL     1      -2.411  -4.134   1.950  0.00  0.00    -0.273 OA
ATOM     25  N   UNL     1      -0.218  -4.274   2.251  0.00  0.00    -0.311 N 
ATOM     26  H   UNL     1       0.568  -4.837   2.337  0.00  0.00    +0.149 HD
BRANCH  25  27
ATOM     27  C   UNL     1      -0.101  -2.824   2.416  0.00  0.00    +0.073 C 
ATOM     28  C   UNL     1       1.115  -2.506   3.289  0.00  0.00    +0.022 C 
ATOM     29  C   UNL     1       1.237  -0.990   3.462  0.00  0.00    +0.005 C 
ATOM     30  C   UNL     1       1.408  -0.333   2.090  0.00  0.00    -0.014 C 
ATOM     31  C   UNL     1       0.192  -0.651   1.218  0.00  0.00    +0.005 C 
ATOM     32  C   UNL     1       0.070  -2.166   1.045  0.00  0.00    +0.022 C 
ATOM     33  C   UNL     1       1.530   1.182   2.263  0.00  0.00    +0.007 C 
ENDBRANCH  25  27
ENDBRANCH  10  23
BRANCH   1  35
ATOM     34  C   UNL     1      -8.310 -10.377   2.649  0.00  0.00    +0.009 C 
ATOM     35  C   UNL     1      -7.010 -10.775   3.351  0.00  0.00    +0.039 C 
ENDBRANCH   1  35
TORSDOF 4
