REMARK  Name = ZINC36833775
REMARK  9 active torsions:
REMARK  status: ('A' for Active; 'I' for Inactive)
REMARK    1  A    between atoms: C_1  and  C_2
REMARK    2  A    between atoms: C_2  and  C_4
REMARK    3  A    between atoms: C_2  and  N_31
REMARK    4  A    between atoms: C_7  and  S_16
REMARK    5  A    between atoms: N_8  and  C_9
REMARK    6  A    between atoms: S_16  and  C_17
REMARK    7  A    between atoms: C_17  and  C_18
REMARK    8  A    between atoms: N_31  and  C_32
REMARK    9  A    between atoms: N_31  and  C_33
REMARK                            x       y       z     vdW  Elec       q    Type
REMARK                         _______ _______ _______ _____ _____    ______ ____
ROOT
ATOM      1  C   UNL     1       0.731  -0.503   1.223  0.00  0.00    +0.125 A 
ATOM      2  N   UNL     1       2.020  -0.483   1.415  0.00  0.00    -0.135 NA
ATOM      3  N   UNL     1       2.304  -0.986   2.563  0.00  0.00    -0.122 NA
ATOM      4  C   UNL     1       1.202  -1.359   3.173  0.00  0.00    +0.197 A 
ATOM      5  N   UNL     1       0.161  -1.057   2.339  0.00  0.00    -0.275 N 
ENDROOT
BRANCH   5   6
ATOM      6  C   UNL     1      -1.204  -1.273   2.575  0.00  0.00    +0.050 A 
ATOM      7  C   UNL     1      -2.070  -0.193   2.683  0.00  0.00    +0.028 A 
ATOM      8  C   UNL     1      -3.415  -0.407   2.915  0.00  0.00    +0.022 A 
ATOM      9  C   UNL     1      -3.899  -1.698   3.041  0.00  0.00    +0.041 A 
ATOM     10  C   UNL     1      -3.038  -2.776   2.934  0.00  0.00    +0.022 A 
ATOM     11  C   UNL     1      -1.693  -2.566   2.696  0.00  0.00    +0.028 A 
ATOM     12 CL   UNL     1      -5.589  -1.964   3.334  0.00  0.00    -0.084 Cl
ENDBRANCH   5   6
BRANCH   1  14
ATOM     13  C   UNL     1      -0.019   1.526   0.010  0.00  0.00    -0.005 C 
ATOM     14  C   UNL     1       0.002  -0.004   0.002  0.00  0.00    -0.003 C 
BRANCH  14  15
ATOM     15  N   UNL     1       0.690  -0.478  -1.207  0.00  0.00    +0.382 N 
ATOM     16  C   UNL     1       0.710  -1.947  -1.215  0.00  0.00    -0.096 C 
ATOM     17  C   UNL     1      -0.021   0.009  -2.397  0.00  0.00    -0.096 C 
ATOM     18  H   UNL     1       1.636  -0.129  -1.214  0.00  0.00    -0.082 HD
ENDBRANCH  14  15
ENDBRANCH   1  14
BRANCH   4  19
ATOM     19  S   UNL     1       1.087  -2.101   4.767  0.00  0.00    -0.076 S 
BRANCH  19  20
ATOM     20  C   UNL     1       2.809  -2.211   5.326  0.00  0.00    +0.173 C 
BRANCH  20  21
ATOM     21  C   UNL     1       2.854  -2.837   6.696  0.00  0.00    +0.229 C 
ATOM     22  O   UNL     1       1.825  -3.175   7.242  0.00  0.00    -0.275 OA
ATOM     23  N   UNL     1       4.037  -3.021   7.315  0.00  0.00    -0.264 N 
ATOM     24  C   UNL     1       4.078  -3.596   8.575  0.00  0.00    +0.165 A 
ATOM     25  N   UNL     1       3.084  -4.027   9.316  0.00  0.00    -0.225 NA
ATOM     26  C   UNL     1       3.272  -4.571  10.538  0.00  0.00    +0.080 A 
ATOM     27  C   UNL     1       2.295  -5.069  11.431  0.00  0.00    +0.032 A 
ATOM     28  C   UNL     1       2.657  -5.593  12.644  0.00  0.00    +0.040 A 
ATOM     29  C   UNL     1       3.987  -5.654  13.041  0.00  0.00    +0.125 A 
ATOM     30  C   UNL     1       4.970  -5.175  12.191  0.00  0.00    +0.055 A 
ATOM     31  C   UNL     1       4.614  -4.649  10.973  0.00  0.00    +0.043 A 
ATOM     32  S   UNL     1       5.498  -3.947   9.601  0.00  0.00    -0.052 S 
ATOM     33  F   UNL     1       4.319  -6.175  14.242  0.00  0.00    -0.205 F 
ATOM     34  H   UNL     1       4.860  -2.751   6.878  0.00  0.00    +0.157 HD
ENDBRANCH  20  21
ENDBRANCH  19  20
ENDBRANCH   4  19
TORSDOF 6
