REMARK  Name = ZINC20872246
REMARK  9 active torsions:
REMARK  status: ('A' for Active; 'I' for Inactive)
REMARK    1  A    between atoms: C_1  and  C_2
REMARK    2  A    between atoms: C_2  and  C_4
REMARK    3  A    between atoms: C_2  and  N_17
REMARK    4  A    between atoms: C_4  and  N_5
REMARK    5  A    between atoms: N_17  and  C_18
REMARK    6  A    between atoms: C_20  and  C_26
REMARK    7  A    between atoms: C_20  and  C_27
REMARK    8  A    between atoms: C_22  and  C_24
REMARK    9  A    between atoms: C_22  and  C_25
REMARK                            x       y       z     vdW  Elec       q    Type
REMARK                         _______ _______ _______ _____ _____    ______ ____
ROOT
ATOM      1  C   UNL     1      -0.729   1.579   1.267  0.00  0.00    +0.026 C 
ATOM      2  C   UNL     1      -0.013   1.086   0.008  0.00  0.00    +0.072 C 
ENDROOT
BRANCH   2   3
ATOM      3  N   UNL     1      -0.723   1.572  -1.182  0.00  0.00    -0.309 NA
ATOM      4  H   UNL     1      -1.131   2.574  -0.982  0.00  0.00    +0.123 HD
BRANCH   3   5
ATOM      5  C   UNL     1      -1.834   0.674  -1.538  0.00  0.00    +0.051 C 
ATOM      6  C   UNL     1      -1.303  -0.459  -2.417  0.00  0.00    +0.006 C 
ATOM      7  C   UNL     1      -2.439  -1.397  -2.818  0.00  0.00    -0.072 C 
ATOM      8  N   UNL     1      -3.591  -0.695  -3.345  0.00  0.00    +0.386 N 
ATOM      9  C   UNL     1      -4.034   0.542  -2.736  0.00  0.00    -0.072 C 
ATOM     10  C   UNL     1      -2.879   1.455  -2.333  0.00  0.00    +0.006 C 
ATOM     11  C   UNL     1      -4.923   0.271  -1.517  0.00  0.00    -0.010 C 
ATOM     12  C   UNL     1      -4.893   1.306  -3.768  0.00  0.00    -0.010 C 
ATOM     13  C   UNL     1      -2.825  -2.275  -1.622  0.00  0.00    -0.010 C 
ATOM     14  C   UNL     1      -1.900  -2.336  -3.920  0.00  0.00    -0.010 C 
ATOM     15  H   UNL     1      -3.404  -0.420  -4.394  0.00  0.00    -0.084 HD
ATOM     16  H   UNL     1      -4.474  -1.347  -3.289  0.00  0.00    -0.084 HD
ENDBRANCH   3   5
ENDBRANCH   2   3
BRANCH   2  17
ATOM     17  C   UNL     1       1.423   1.615  -0.003  0.00  0.00    +0.162 C 
BRANCH  17  18
ATOM     18  N   UNL     1       2.071   1.244  -1.263  0.00  0.00    -0.258 NA
ATOM     19  C   UNL     1       2.434   2.167  -2.105  0.00  0.00    +0.193 C 
ATOM     20  N   UNL     1       2.338   3.505  -2.074  0.00  0.00    -0.200 NA
ATOM     21  C   UNL     1       2.894   3.755  -3.224  0.00  0.00    +0.167 C 
ATOM     22  S   UNL     1       3.223   2.092  -3.668  0.00  0.00    -0.015 S 
ATOM     23  N   UNL     1       3.143   4.929  -3.870  0.00  0.00    -0.309 N 
ATOM     24  C   UNL     1       2.747   6.167  -3.237  0.00  0.00    +0.107 C 
ATOM     25  C   UNL     1       1.301   6.523  -3.639  0.00  0.00    +0.019 C 
ATOM     26  C   UNL     1       1.252   6.944  -5.048  0.00  0.00    +0.002 C 
ATOM     27  C   UNL     1       1.667   5.863  -6.041  0.00  0.00    +0.002 C 
ATOM     28  C   UNL     1       3.169   5.870  -6.189  0.00  0.00    +0.019 C 
ATOM     29  C   UNL     1       3.802   4.884  -5.190  0.00  0.00    +0.107 C 
ENDBRANCH  17  18
ENDBRANCH   2  17
TORSDOF 4
