REMARK  Name = ZINC27027465
REMARK  7 active torsions:
REMARK  status: ('A' for Active; 'I' for Inactive)
REMARK    1  A    between atoms: C_1  and  O_2
REMARK    2  A    between atoms: O_2  and  C_3
REMARK    3  A    between atoms: C_6  and  C_9
REMARK    4  A    between atoms: N_13  and  C_14
REMARK    5  A    between atoms: C_17  and  C_20
REMARK    6  A    between atoms: N_30  and  C_31
REMARK    7  A    between atoms: C_31  and  C_32
REMARK                            x       y       z     vdW  Elec       q    Type
REMARK                         _______ _______ _______ _____ _____    ______ ____
ROOT
ATOM      1  C   UNL     1       5.973   2.030  -0.784  0.00  0.00    +0.058 A 
ATOM      2  C   UNL     1       5.851   3.364  -0.951  0.00  0.00    +0.075 A 
ATOM      3  S   UNL     1       4.134   3.635  -0.542  0.00  0.00    -0.059 S 
ATOM      4  C   UNL     1       3.698   1.945  -0.166  0.00  0.00    +0.152 A 
ATOM      5  N   UNL     1       2.536   1.448   0.218  0.00  0.00    -0.336 N 
ATOM      6  N   UNL     1       4.890   1.296  -0.386  0.00  0.00    -0.317 N 
ATOM      7  H   UNL     1       2.454   0.385   0.486  0.00  0.00    +0.168 HD
ENDROOT
BRANCH   1  11
ATOM      8  C   UNL     1       9.704   0.122  -1.492  0.00  0.00    +0.120 A 
ATOM      9  C   UNL     1       9.148   0.938  -2.467  0.00  0.00    +0.046 A 
ATOM     10  C   UNL     1       7.937   1.559  -2.242  0.00  0.00    +0.013 A 
ATOM     11  C   UNL     1       7.271   1.366  -1.031  0.00  0.00    -0.001 A 
ATOM     12  C   UNL     1       7.837   0.550  -0.050  0.00  0.00    +0.013 A 
ATOM     13  C   UNL     1       9.045  -0.072  -0.285  0.00  0.00    +0.046 A 
BRANCH   8  15
ATOM     14  C   UNL     1      11.412  -1.314  -0.671  0.00  0.00    +0.277 C 
ATOM     15  O   UNL     1      10.897  -0.488  -1.718  0.00  0.00    -0.495 OA
ENDBRANCH   8  15
ENDBRANCH   1  11
BRANCH   5  16
ATOM     16  C   UNL     1       1.437   2.255   0.282  0.00  0.00    +0.041 A 
ATOM     17  C   UNL     1       0.667   2.480  -0.865  0.00  0.00    +0.026 A 
ATOM     18  C   UNL     1      -0.430   3.291  -0.801  0.00  0.00    +0.013 A 
ATOM     19  C   UNL     1      -0.789   3.888   0.411  0.00  0.00    +0.019 A 
ATOM     20  C   UNL     1      -0.021   3.663   1.556  0.00  0.00    +0.013 A 
ATOM     21  C   UNL     1       1.080   2.857   1.493  0.00  0.00    +0.026 A 
BRANCH  19  22
ATOM     22  C   UNL     1      -1.979   4.761   0.479  0.00  0.00    +0.164 A 
ATOM     23  N   UNL     1      -2.586   5.343  -0.534  0.00  0.00    -0.129 NA
ATOM     24  N   UNL     1      -3.591   6.023  -0.107  0.00  0.00    -0.134 NA
ATOM     25  C   UNL     1      -3.686   5.913   1.188  0.00  0.00    +0.134 A 
ATOM     26  N   UNL     1      -2.665   5.115   1.605  0.00  0.00    -0.311 N 
ATOM     27  C   UNL     1      -2.357   4.746   2.987  0.00  0.00    +0.125 C 
ATOM     28  C   UNL     1      -3.648   4.752   3.810  0.00  0.00    +0.022 C 
ATOM     29  C   UNL     1      -3.878   6.143   4.398  0.00  0.00    +0.002 C 
ATOM     30  C   UNL     1      -4.036   7.176   3.287  0.00  0.00    +0.008 C 
ATOM     31  C   UNL     1      -4.729   6.533   2.082  0.00  0.00    +0.076 C 
ENDBRANCH  19  22
ENDBRANCH   5  16
BRANCH   6  32
ATOM     32  C   UNL     1       4.997  -0.153  -0.199  0.00  0.00    +0.151 C 
BRANCH  32  33
ATOM     33  C   UNL     1       4.564  -0.856  -1.460  0.00  0.00    -0.013 C 
ATOM     34  C   UNL     1       5.372  -1.703  -2.048  0.00  0.00    +0.005 C 
ENDBRANCH  32  33
ENDBRANCH   6  32
TORSDOF 6
