REMARK  Name = ZINC31581715
REMARK  7 active torsions:
REMARK  status: ('A' for Active; 'I' for Inactive)
REMARK    1  A    between atoms: C_1  and  C_2
REMARK    2  A    between atoms: C_8  and  N_10
REMARK    3  A    between atoms: C_11  and  C_13
REMARK    4  A    between atoms: C_13  and  C_15
REMARK    5  A    between atoms: C_13  and  N_16
REMARK    6  A    between atoms: N_19  and  S_22
REMARK    7  A    between atoms: S_22  and  C_25
REMARK                            x       y       z     vdW  Elec       q    Type
REMARK                         _______ _______ _______ _____ _____    ______ ____
ROOT
ATOM      1  N   UNL     1       1.365   1.594  -0.002  0.00  0.00    +0.389 N 
ATOM      2  C   UNL     1       1.385   3.063  -0.011  0.00  0.00    -0.060 C 
ATOM      3  C   UNL     1       2.826   3.553   0.161  0.00  0.00    +0.091 C 
ATOM      4  N   UNL     1       3.663   2.914  -0.867  0.00  0.00    -0.180 NA
ATOM      5  C   UNL     1       3.593   1.452  -1.010  0.00  0.00    +0.091 C 
ATOM      6  C   UNL     1       2.121   1.045  -1.136  0.00  0.00    -0.060 C 
ATOM      7  H   UNL     1       1.858   1.259   0.922  0.00  0.00    -0.081 HD
ENDROOT
BRANCH   4   8
ATOM      8  S   UNL     1       4.657   3.816  -1.836  0.00  0.00    +0.067 S 
ATOM      9  O   UNL     1       4.930   5.019  -1.130  0.00  0.00    -0.152 OA
ATOM     10  O   UNL     1       5.686   2.946  -2.285  0.00  0.00    -0.152 OA
BRANCH   8  11
ATOM     11  C   UNL     1       3.724   4.269  -3.261  0.00  0.00    +0.144 A 
ATOM     12  C   UNL     1       2.948   5.363  -3.461  0.00  0.00    +0.037 A 
ATOM     13  C   UNL     1       2.305   5.516  -4.675  0.00  0.00    +0.025 A 
ATOM     14  C   UNL     1       2.461   4.561  -5.626  0.00  0.00    +0.057 A 
ATOM     15  S   UNL     1       3.550   3.404  -4.812  0.00  0.00    -0.062 S 
ATOM     16 BR   UNL     1       1.718   4.478  -7.363  0.00  0.00    -0.043 Br
ENDBRANCH   8  11
ENDBRANCH   4   8
BRANCH   1  17
ATOM     17  C   UNL     1      -0.013   1.086   0.008  0.00  0.00    +0.016 C 
ATOM     18  C   UNL     1      -0.753   1.593  -1.232  0.00  0.00    -0.004 C 
BRANCH  17  20
ATOM     19  N   UNL     1      -2.002   1.228   1.472  0.00  0.00    -0.314 N 
ATOM     20  C   UNL     1      -0.718   1.572   1.248  0.00  0.00    +0.199 C 
ATOM     21  O   UNL     1      -0.131   2.273   2.044  0.00  0.00    -0.278 OA
ATOM     22  H   UNL     1      -2.535   0.592   0.749  0.00  0.00    +0.149 HD
BRANCH  19  29
ATOM     23  C   UNL     1      -3.253  -0.658   3.279  0.00  0.00    +0.009 C 
ATOM     24  C   UNL     1      -3.825   0.739   3.026  0.00  0.00    +0.006 C 
ATOM     25  C   UNL     1      -4.819   0.680   1.864  0.00  0.00    +0.005 C 
ATOM     26  C   UNL     1      -5.391   2.076   1.611  0.00  0.00    +0.000 C 
ATOM     27  C   UNL     1      -4.253   3.038   1.262  0.00  0.00    +0.002 C 
ATOM     28  C   UNL     1      -3.260   3.096   2.424  0.00  0.00    +0.022 C 
ATOM     29  C   UNL     1      -2.688   1.700   2.677  0.00  0.00    +0.076 C 
ENDBRANCH  19  29
ENDBRANCH  17  20
ENDBRANCH   1  17
TORSDOF 5
