REMARK  Name = ZINC49990731
REMARK  8 active torsions:
REMARK  status: ('A' for Active; 'I' for Inactive)
REMARK    1  A    between atoms: C_1  and  C_2
REMARK    2  A    between atoms: C_5  and  N_9
REMARK    3  A    between atoms: C_6  and  C_8
REMARK    4  A    between atoms: N_9  and  C_10
REMARK    5  A    between atoms: C_12  and  C_19
REMARK    6  A    between atoms: C_13  and  C_18
REMARK    7  A    between atoms: C_14  and  C_17
REMARK    8  A    between atoms: C_19  and  N_21
REMARK                            x       y       z     vdW  Elec       q    Type
REMARK                         _______ _______ _______ _____ _____    ______ ____
ROOT
ATOM      1  N   UNL     1       0.099  -4.223   0.046  0.00  0.00    -0.286 N 
ATOM      2  C   UNL     1       1.361  -4.965  -0.022  0.00  0.00    +0.137 C 
ATOM      3  C   UNL     1      -1.106  -4.904   0.016  0.00  0.00    +0.158 A 
ATOM      4  C   UNL     1      -1.669  -5.297  -1.214  0.00  0.00    +0.050 A 
ATOM      5  C   UNL     1      -2.890  -5.982  -1.179  0.00  0.00    -0.015 A 
ATOM      6  C   UNL     1      -3.462  -6.226   0.059  0.00  0.00    +0.064 A 
ATOM      7  N   UNL     1      -2.860  -5.818   1.159  0.00  0.00    -0.152 NA
ATOM      8  N   UNL     1      -1.739  -5.194   1.145  0.00  0.00    -0.133 NA
ATOM      9  C   UNL     1      -4.775  -6.959   0.149  0.00  0.00    +0.068 C 
ATOM     10  C   UNL     1      -3.562  -6.440  -2.449  0.00  0.00    +0.046 C 
ENDROOT
BRANCH   1  15
ATOM     11  C   UNL     1       0.152   1.435   0.434  0.00  0.00    +0.044 C 
ATOM     12  C   UNL     1       0.138  -0.069   0.331  0.00  0.00    -0.050 A 
ATOM     13  C   UNL     1       0.116  -0.675  -0.912  0.00  0.00    +0.005 A 
ATOM     14  C   UNL     1       0.103  -2.052  -1.010  0.00  0.00    +0.024 A 
ATOM     15  C   UNL     1       0.113  -2.829   0.142  0.00  0.00    +0.038 A 
ATOM     16  C   UNL     1       0.135  -2.217   1.389  0.00  0.00    -0.029 A 
ATOM     17  C   UNL     1       0.154  -0.839   1.479  0.00  0.00    +0.008 A 
ATOM     18  C   UNL     1       0.145  -3.055   2.640  0.00  0.00    +0.045 C 
ENDBRANCH   1  15
BRANCH   4  19
ATOM     19  C   UNL     1      -0.996  -4.999  -2.492  0.00  0.00    +0.081 C 
ATOM     20  S   UNL     1       0.066  -6.146  -3.188  0.00  0.00    -0.035 S 
BRANCH  19  21
ATOM     21  N   UNL     1      -1.218  -3.823  -3.112  0.00  0.00    -0.352 N 
ATOM     22  H   UNL     1      -1.764  -3.145  -2.684  0.00  0.00    +0.143 HD
ATOM     23  H   UNL     1      -0.831  -3.654  -3.985  0.00  0.00    +0.143 HD
ENDBRANCH  19  21
ENDBRANCH   4  19
TORSDOF 3
