REMARK  Name = ZINC11435845
REMARK  6 active torsions:
REMARK  status: ('A' for Active; 'I' for Inactive)
REMARK    1  A    between atoms: C_8  and  C_10
REMARK    2  A    between atoms: C_10  and  O_12
REMARK    3  A    between atoms: O_12  and  C_13
REMARK    4  A    between atoms: C_13  and  C_14
REMARK    5  A    between atoms: N_16  and  C_17
REMARK    6  A    between atoms: C_22  and  N_23
REMARK                            x       y       z     vdW  Elec       q    Type
REMARK                         _______ _______ _______ _____ _____    ______ ____
ROOT
ATOM      1  C   UNL     1       3.235  10.106   0.046  0.00  0.00    +0.255 C 
ATOM      2  O   UNL     1       2.029  10.235   0.043  0.00  0.00    -0.272 OA
ATOM      3  N   UNL     1       4.029  11.195   0.040  0.00  0.00    -0.281 N 
ATOM      4  H   UNL     1       4.992  11.093   0.106  0.00  0.00    +0.155 HD
ENDROOT
BRANCH   3   5
ATOM      5  C   UNL     1       3.465  12.473  -0.063  0.00  0.00    +0.068 A 
ATOM      6  C   UNL     1       2.244  12.743   0.544  0.00  0.00    +0.075 A 
ATOM      7  C   UNL     1       1.695  14.009   0.442  0.00  0.00    +0.164 A 
ATOM      8  C   UNL     1       2.355  15.000  -0.271  0.00  0.00    +0.164 A 
ATOM      9  C   UNL     1       3.568  14.729  -0.879  0.00  0.00    +0.084 A 
ATOM     10  C   UNL     1       4.123  13.466  -0.774  0.00  0.00    +0.151 A 
ATOM     11  O   UNL     1       1.799  16.244  -0.369  0.00  0.00    -0.488 OA
ATOM     12  C   UNL     1       1.747  17.002   0.841  0.00  0.00    +0.232 C 
ATOM     13  C   UNL     1       0.514  16.638   1.653  0.00  0.00    +0.082 C 
ATOM     14  C   UNL     1       0.546  15.197   2.139  0.00  0.00    +0.232 C 
ATOM     15  O   UNL     1       0.499  14.289   1.037  0.00  0.00    -0.488 OA
BRANCH  10  16
ATOM     16  N   UNL     1       5.421  13.174  -1.423  0.00  0.00    +0.058 N 
ATOM     17  O   UNL     1       6.048  14.068  -1.962  0.00  0.00    -0.126 OA
ATOM     18  O   UNL     1       5.862  12.038  -1.418  0.00  0.00    -0.126 OA
ENDBRANCH  10  16
ENDBRANCH   3   5
BRANCH   1  19
ATOM     19  C   UNL     1       3.845   8.728   0.056  0.00  0.00    +0.328 C 
BRANCH  19  20
ATOM     20  O   UNL     1       2.790   7.731   0.061  0.00  0.00    -0.451 OA
BRANCH  20  21
ATOM     21  C   UNL     1       3.170   6.437   0.070  0.00  0.00    +0.348 C 
ATOM     22  O   UNL     1       4.351   6.150   0.074  0.00  0.00    -0.244 OA
BRANCH  21  30
ATOM     23  C   UNL     1       0.042   1.065   0.099  0.00  0.00    +0.001 A 
ATOM     24  C   UNL     1      -1.184   1.720   0.086  0.00  0.00    +0.001 A 
ATOM     25  C   UNL     1      -1.216   3.100   0.082  0.00  0.00    +0.016 A 
ATOM     26  C   UNL     1      -0.033   3.808   0.080  0.00  0.00    +0.022 A 
ATOM     27  C   UNL     1       1.229   3.167   0.088  0.00  0.00    +0.008 A 
ATOM     28  C   UNL     1       1.215   1.748   0.098  0.00  0.00    +0.010 A 
ATOM     29  C   UNL     1       2.343   4.027   0.085  0.00  0.00    +0.070 A 
ATOM     30  C   UNL     1       2.158   5.376   0.075  0.00  0.00    +0.116 A 
ATOM     31  S   UNL     1       0.380   5.534   0.070  0.00  0.00    -0.080 S 
ATOM     32 CL   UNL     1       3.949   3.369   0.092  0.00  0.00    -0.082 Cl
ENDBRANCH  21  30
ENDBRANCH  20  21
ENDBRANCH  19  20
ENDBRANCH   1  19
TORSDOF 6
