REMARK  Name = ZINC19296637
REMARK  8 active torsions:
REMARK  status: ('A' for Active; 'I' for Inactive)
REMARK    1  A    between atoms: C_1  and  C_2
REMARK    2  A    between atoms: C_2  and  C_4
REMARK    3  A    between atoms: C_2  and  O_14
REMARK    4  A    between atoms: C_7  and  C_9
REMARK    5  A    between atoms: O_14  and  C_15
REMARK    6  A    between atoms: C_15  and  C_17
REMARK    7  A    between atoms: C_30  and  C_31
REMARK    8  A    between atoms: C_34  and  O_37
REMARK                            x       y       z     vdW  Elec       q    Type
REMARK                         _______ _______ _______ _____ _____    ______ ____
ROOT
ATOM      1  C   UNL     1       4.381  10.457  -2.554  0.00  0.00    +0.073 A 
ATOM      2  C   UNL     1       4.385  11.862  -2.145  0.00  0.00    +0.015 A 
ATOM      3  C   UNL     1       4.590  12.238  -0.814  0.00  0.00    +0.011 A 
ATOM      4  C   UNL     1       4.591  13.560  -0.480  0.00  0.00    +0.001 A 
ATOM      5  C   UNL     1       4.397  14.541  -1.450  0.00  0.00    +0.002 A 
ATOM      6  C   UNL     1       4.200  14.210  -2.756  0.00  0.00    +0.028 A 
ATOM      7  C   UNL     1       4.191  12.855  -3.139  0.00  0.00    +0.072 A 
ATOM      8  N   UNL     1       4.001  12.500  -4.407  0.00  0.00    -0.247 NA
ATOM      9  C   UNL     1       3.987  11.233  -4.809  0.00  0.00    +0.072 A 
ATOM     10  C   UNL     1       4.175  10.181  -3.898  0.00  0.00    -0.007 A 
ATOM     11  C   UNL     1       4.111   8.860  -4.625  0.00  0.00    +0.043 C 
ATOM     12  C   UNL     1       3.860   9.192  -6.101  0.00  0.00    +0.042 C 
ATOM     13  C   UNL     1       3.789  10.697  -6.170  0.00  0.00    -0.021 C 
ATOM     14  C   UNL     1       3.582  11.426  -7.281  0.00  0.00    +0.013 C 
ENDROOT
BRANCH  14  15
ATOM     15  C   UNL     1       3.535  10.766  -8.596  0.00  0.00    -0.024 A 
ATOM     16  C   UNL     1       3.488  11.533  -9.765  0.00  0.00    +0.011 A 
ATOM     17  C   UNL     1       3.451  10.911 -10.993  0.00  0.00    +0.046 A 
ATOM     18  C   UNL     1       3.448   9.524 -11.072  0.00  0.00    +0.117 A 
ATOM     19  C   UNL     1       3.489   8.758  -9.914  0.00  0.00    +0.046 A 
ATOM     20  C   UNL     1       3.533   9.370  -8.681  0.00  0.00    +0.011 A 
BRANCH  18  21
ATOM     21  O   UNL     1       3.405   8.915 -12.285  0.00  0.00    -0.507 OA
ATOM     22  H   UNL     1       3.402   7.817 -12.350  0.00  0.00    +0.292 HD
ENDBRANCH  18  21
ENDBRANCH  14  15
BRANCH   1  23
ATOM     23  C   UNL     1       4.581   9.372  -1.571  0.00  0.00    +0.341 C 
ATOM     24  O   UNL     1       5.702   8.967  -1.334  0.00  0.00    -0.245 OA
BRANCH  23  25
ATOM     25  O   UNL     1       3.522   8.833  -0.937  0.00  0.00    -0.448 OA
BRANCH  25  27
ATOM     26  C   UNL     1       4.021   8.377   1.403  0.00  0.00    +0.062 C 
ATOM     27  C   UNL     1       3.794   7.771   0.016  0.00  0.00    +0.261 C 
BRANCH  27  28
ATOM     28  C   UNL     1       2.620   6.828   0.065  0.00  0.00    +0.258 A 
ATOM     29  N   UNL     1       1.363   7.167   0.124  0.00  0.00    -0.108 NA
ATOM     30  N   UNL     1       0.631   6.109   0.153  0.00  0.00    -0.107 NA
ATOM     31  C   UNL     1       1.405   5.046   0.113  0.00  0.00    +0.255 A 
ATOM     32  O   UNL     1       2.680   5.484   0.062  0.00  0.00    -0.416 OA
BRANCH  31  33
ATOM     33  C   UNL     1       0.964   3.644   0.129  0.00  0.00    +0.076 A 
ATOM     34  C   UNL     1      -0.320   3.135   0.186  0.00  0.00    +0.021 A 
ATOM     35  C   UNL     1      -0.484   1.769   0.182  0.00  0.00    +0.008 A 
ATOM     36  C   UNL     1       0.613   0.968   0.135  0.00  0.00    +0.046 A 
ATOM     37  S   UNL     1       1.946   2.154   0.078  0.00  0.00    -0.092 S 
ENDBRANCH  31  33
ENDBRANCH  27  28
ENDBRANCH  25  27
ENDBRANCH  23  25
ENDBRANCH   1  23
TORSDOF 7
