REMARK  Name = ZINC03550872
REMARK  6 active torsions:
REMARK  status: ('A' for Active; 'I' for Inactive)
REMARK    1  A    between atoms: C_1  and  C_2
REMARK    2  A    between atoms: C_4  and  C_27
REMARK    3  A    between atoms: C_5  and  N_9
REMARK    4  A    between atoms: C_10  and  C_12
REMARK    5  A    between atoms: C_12  and  N_13
REMARK    6  A    between atoms: C_21  and  C_23
REMARK                            x       y       z     vdW  Elec       q    Type
REMARK                         _______ _______ _______ _____ _____    ______ ____
ROOT
ATOM      1  C   UNL     1       0.501  -0.765   4.953  0.00  0.00    +0.214 C 
ENDROOT
BRANCH   1   2
ATOM      2  N   UNL     1       1.718  -0.359   4.246  0.00  0.00    -0.215 N 
ATOM      3  C   UNL     1       2.963  -0.740   4.600  0.00  0.00    +0.247 C 
ATOM      4  O   UNL     1       3.276  -1.455   5.527  0.00  0.00    -0.273 OA
ATOM      5  C   UNL     1       3.885  -0.087   3.596  0.00  0.00    +0.115 C 
ATOM      6  C   UNL     1       4.652  -1.146   2.812  0.00  0.00    +0.035 C 
ATOM      7  C   UNL     1       5.558  -0.466   1.782  0.00  0.00    +0.003 C 
ATOM      8  C   UNL     1       6.535   0.467   2.501  0.00  0.00    +0.000 C 
ATOM      9  C   UNL     1       5.751   1.538   3.263  0.00  0.00    +0.006 C 
ATOM     10  C   UNL     1       4.846   0.866   4.299  0.00  0.00    +0.018 C 
ATOM     11  C   UNL     1       4.047   1.935   5.047  0.00  0.00    +0.010 C 
ATOM     12  N   UNL     1       2.980   0.655   2.710  0.00  0.00    -0.285 N 
ATOM     13  C   UNL     1       1.733   0.436   3.169  0.00  0.00    +0.310 C 
ATOM     14  O   UNL     1       0.733   0.906   2.663  0.00  0.00    -0.252 OA
ATOM     15  H   UNL     1       3.230   1.196   1.945  0.00  0.00    +0.151 HD
ENDBRANCH   1   2
BRANCH   1  17
ATOM     16  N   UNL     1      -0.889   0.065   6.824  0.00  0.00    -0.283 N 
ATOM     17  C   UNL     1       0.193   0.234   6.038  0.00  0.00    +0.235 C 
ATOM     18  O   UNL     1       0.919   1.192   6.205  0.00  0.00    -0.274 OA
ATOM     19  H   UNL     1      -1.509  -0.660   6.646  0.00  0.00    +0.155 HD
BRANCH  16  24
ATOM     20  C   UNL     1      -1.818   3.587  11.175  0.00  0.00    +0.044 C 
ATOM     21  C   UNL     1      -1.571   2.652  10.019  0.00  0.00    -0.049 A 
ATOM     22  C   UNL     1      -0.812   1.511  10.204  0.00  0.00    +0.008 A 
ATOM     23  C   UNL     1      -0.589   0.649   9.149  0.00  0.00    -0.028 A 
ATOM     24  C   UNL     1      -1.118   0.934   7.897  0.00  0.00    +0.055 A 
ATOM     25  C   UNL     1      -1.881   2.080   7.713  0.00  0.00    +0.063 A 
ATOM     26  C   UNL     1      -2.106   2.936   8.775  0.00  0.00    +0.025 A 
ATOM     27 CL   UNL     1      -2.552   2.437   6.153  0.00  0.00    -0.082 Cl
ATOM     28  C   UNL     1       0.234  -0.597   9.354  0.00  0.00    +0.046 C 
ENDBRANCH  16  24
ENDBRANCH   1  17
TORSDOF 3
