REMARK  Name = ZINC39993074
REMARK  10 active torsions:
REMARK  status: ('A' for Active; 'I' for Inactive)
REMARK    1  A    between atoms: C_1  and  C_2
REMARK    2  A    between atoms: C_7  and  N_8
REMARK    3  A    between atoms: C_9  and  C_11
REMARK    4  A    between atoms: C_11  and  C_34
REMARK    5  A    between atoms: C_12  and  C_13
REMARK    6  A    between atoms: C_14  and  O_25
REMARK    7  A    between atoms: C_17  and  C_24
REMARK    8  A    between atoms: O_25  and  C_26
REMARK    9  A    between atoms: C_30  and  C_33
REMARK   10  A    between atoms: C_31  and  C_32
REMARK                            x       y       z     vdW  Elec       q    Type
REMARK                         _______ _______ _______ _____ _____    ______ ____
ROOT
ATOM      1  C   UNL     1       0.249  -0.357   7.437  0.00  0.00    +0.103 A 
ATOM      2  C   UNL     1       0.161  -1.179   8.587  0.00  0.00    +0.235 A 
ATOM      3  N   UNL     1       0.003  -0.622   9.776  0.00  0.00    -0.194 NA
ATOM      4  C   UNL     1      -0.076   0.702   9.926  0.00  0.00    +0.147 A 
ATOM      5  C   UNL     1      -0.243   1.233  11.216  0.00  0.00    -0.007 A 
ATOM      6  C   UNL     1      -0.325   2.585  11.382  0.00  0.00    +0.008 A 
ATOM      7  C   UNL     1      -0.241   3.424  10.263  0.00  0.00    +0.019 A 
ATOM      8  C   UNL     1      -0.081   2.894   9.029  0.00  0.00    +0.096 A 
ATOM      9  N   UNL     1       0.003   1.545   8.854  0.00  0.00    -0.267 N 
ATOM     10  C   UNL     1       0.169   1.050   7.609  0.00  0.00    +0.269 A 
ATOM     11  O   UNL     1       0.246   1.797   6.649  0.00  0.00    -0.266 OA
ATOM     12  C   UNL     1      -0.332   0.317  12.409  0.00  0.00    +0.047 C 
ENDROOT
BRANCH   1  14
ATOM     13  C   UNL     1      -0.486  -1.867   5.694  0.00  0.00    +0.114 C 
ATOM     14  C   UNL     1       0.416  -0.920   6.159  0.00  0.00    +0.042 C 
BRANCH  13  16
ATOM     15  N   UNL     1      -1.123  -3.460   3.962  0.00  0.00    -0.281 N 
ATOM     16  C   UNL     1      -0.247  -2.541   4.414  0.00  0.00    +0.259 C 
ATOM     17  O   UNL     1       0.744  -2.271   3.760  0.00  0.00    -0.269 OA
ATOM     18  H   UNL     1      -1.946  -3.626   4.448  0.00  0.00    +0.155 HD
BRANCH  15  25
ATOM     19  C   UNL     1      -2.165  -6.097   3.720  0.00  0.00    +0.045 C 
ATOM     20  C   UNL     1      -1.335  -5.465   2.633  0.00  0.00    -0.029 A 
ATOM     21  C   UNL     1      -1.064  -6.165   1.474  0.00  0.00    +0.005 A 
ATOM     22  C   UNL     1      -0.302  -5.587   0.476  0.00  0.00    +0.000 A 
ATOM     23  C   UNL     1       0.191  -4.304   0.634  0.00  0.00    +0.002 A 
ATOM     24  C   UNL     1      -0.075  -3.598   1.791  0.00  0.00    +0.023 A 
ATOM     25  C   UNL     1      -0.846  -4.175   2.793  0.00  0.00    +0.037 A 
ENDBRANCH  15  25
ENDBRANCH  13  16
BRANCH  13  26
ATOM     26  C   UNL     1      -1.651  -2.184   6.464  0.00  0.00    +0.104 C 
ATOM     27  N   UNL     1      -2.575  -2.437   7.074  0.00  0.00    -0.191 NA
ENDBRANCH  13  26
ENDBRANCH   1  14
BRANCH   2  28
ATOM     28  O   UNL     1       0.237  -2.524   8.470  0.00  0.00    -0.437 OA
BRANCH  28  29
ATOM     29  C   UNL     1       0.123  -3.270   9.600  0.00  0.00    +0.134 A 
ATOM     30  C   UNL     1      -1.113  -3.779   9.976  0.00  0.00    +0.046 A 
ATOM     31  C   UNL     1      -1.226  -4.537  11.125  0.00  0.00    +0.004 A 
ATOM     32  C   UNL     1      -0.110  -4.788  11.901  0.00  0.00    +0.004 A 
ATOM     33  C   UNL     1       1.122  -4.283  11.530  0.00  0.00    -0.044 A 
ATOM     34  C   UNL     1       1.242  -3.529  10.378  0.00  0.00    -0.005 A 
ATOM     35  C   UNL     1       2.586  -2.984   9.970  0.00  0.00    +0.048 C 
ATOM     36  C   UNL     1       2.337  -4.559  12.378  0.00  0.00    +0.044 C 
ENDBRANCH  28  29
ENDBRANCH   2  28
TORSDOF 6
