REMARK  Name = ZINC05893740
REMARK  4 active torsions:
REMARK  status: ('A' for Active; 'I' for Inactive)
REMARK    1  A    between atoms: C_3  and  N_22
REMARK    2  A    between atoms: C_6  and  C_7
REMARK    3  A    between atoms: C_8  and  C_9
REMARK    4  A    between atoms: N_11  and  C_12
REMARK                            x       y       z     vdW  Elec       q    Type
REMARK                         _______ _______ _______ _____ _____    ______ ____
ROOT
ATOM      1  C   UNL     1      -2.494  -2.862   0.011  0.00  0.00    +0.237 C 
ATOM      2  O   UNL     1      -3.558  -2.271   0.025  0.00  0.00    -0.271 OA
ATOM      3  N   UNL     1      -2.472  -4.210   0.004  0.00  0.00    -0.306 N 
ATOM      4  H   UNL     1      -1.624  -4.681  -0.007  0.00  0.00    +0.150 HD
ENDROOT
BRANCH   3   5
ATOM      5  C   UNL     1      -3.728  -4.963   0.013  0.00  0.00    +0.036 C 
ATOM      6  C   UNL     1      -4.549  -4.600  -1.227  0.00  0.00    +0.029 C 
ATOM      7  C   UNL     1      -5.861  -5.387  -1.218  0.00  0.00    -0.008 C 
ATOM      8  C   UNL     1      -5.556  -6.886  -1.229  0.00  0.00    +0.007 C 
ATOM      9  C   UNL     1      -4.736  -7.249   0.010  0.00  0.00    -0.008 C 
ATOM     10  C   UNL     1      -3.424  -6.462   0.001  0.00  0.00    +0.029 C 
ATOM     11  C   UNL     1      -5.532  -6.900   1.269  0.00  0.00    +0.007 C 
ATOM     12  C   UNL     1      -5.836  -5.400   1.280  0.00  0.00    -0.008 C 
ATOM     13  C   UNL     1      -6.657  -5.037   0.041  0.00  0.00    +0.007 C 
ATOM     14  C   UNL     1      -4.524  -4.613   1.272  0.00  0.00    +0.029 C 
ENDBRANCH   3   5
BRANCH   1  16
ATOM     15  C   UNL     1      -1.260  -0.761   0.011  0.00  0.00    +0.013 C 
ATOM     16  C   UNL     1      -1.238  -2.109   0.003  0.00  0.00    +0.068 C 
BRANCH  15  22
ATOM     17  C   UNL     1      -0.017   1.394   0.010  0.00  0.00    +0.010 A 
ATOM     18  C   UNL     1       1.170   2.096   0.002  0.00  0.00    +0.033 A 
ATOM     19  C   UNL     1       2.378   1.421  -0.013  0.00  0.00    +0.126 A 
ATOM     20  C   UNL     1       2.405   0.037  -0.022  0.00  0.00    +0.033 A 
ATOM     21  C   UNL     1       1.226  -0.679  -0.014  0.00  0.00    +0.010 A 
ATOM     22  C   UNL     1       0.002  -0.004   0.002  0.00  0.00    -0.025 A 
BRANCH  19  23
ATOM     23  N   UNL     1       3.647   2.182  -0.022  0.00  0.00    +0.056 N 
ATOM     24  O   UNL     1       3.627   3.390  -0.015  0.00  0.00    -0.126 OA
ATOM     25  O   UNL     1       4.704   1.595  -0.036  0.00  0.00    -0.126 OA
ENDBRANCH  19  23
ENDBRANCH  15  22
ENDBRANCH   1  16
TORSDOF 4
