REMARK  Name = ZINC39344529
REMARK  8 active torsions:
REMARK  status: ('A' for Active; 'I' for Inactive)
REMARK    1  A    between atoms: C_1  and  O_2
REMARK    2  A    between atoms: O_2  and  C_3
REMARK    3  A    between atoms: C_3  and  C_4
REMARK    4  A    between atoms: C_4  and  N_5
REMARK    5  A    between atoms: N_8  and  C_30
REMARK    6  A    between atoms: N_14  and  C_17
REMARK    7  A    between atoms: C_17  and  C_18
REMARK    8  A    between atoms: C_23  and  C_24
REMARK                            x       y       z     vdW  Elec       q    Type
REMARK                         _______ _______ _______ _____ _____    ______ ____
ROOT
ATOM      1  N   UNL     1      -0.392  -2.785  -1.008  0.00  0.00    -0.269 N 
ATOM      2  C   UNL     1      -1.226  -3.013   0.024  0.00  0.00    +0.312 C 
ATOM      3  O   UNL     1      -0.948  -2.776   1.184  0.00  0.00    -0.252 OA
ATOM      4  N   UNL     1      -2.397  -3.528  -0.370  0.00  0.00    -0.220 N 
ATOM      5  C   UNL     1      -2.444  -3.689  -1.709  0.00  0.00    +0.247 C 
ATOM      6  O   UNL     1      -3.364  -4.129  -2.364  0.00  0.00    -0.273 OA
ATOM      7  C   UNL     1      -1.110  -3.197  -2.220  0.00  0.00    +0.112 C 
ATOM      8  C   UNL     1      -0.364  -4.324  -2.928  0.00  0.00    +0.017 C 
ATOM      9  C   UNL     1       0.962  -3.788  -3.475  0.00  0.00    -0.076 C 
ATOM     10  N   UNL     1       0.698  -2.686  -4.409  0.00  0.00    +0.380 N 
ATOM     11  C   UNL     1       0.064  -1.569  -3.698  0.00  0.00    -0.076 C 
ATOM     12  C   UNL     1      -1.299  -2.011  -3.161  0.00  0.00    +0.017 C 
ATOM     13  H   UNL     1       0.084  -3.008  -5.142  0.00  0.00    -0.082 HD
ENDROOT
BRANCH   4  14
ATOM     14  C   UNL     1      -3.493  -3.874   0.540  0.00  0.00    +0.094 C 
ATOM     15  C   UNL     1      -3.855  -2.676   1.443  0.00  0.00    +0.058 C 
ATOM     16  C   UNL     1      -4.232  -3.285   2.776  0.00  0.00    -0.042 A 
ATOM     17  C   UNL     1      -4.929  -2.746   3.844  0.00  0.00    +0.004 A 
ATOM     18  C   UNL     1      -5.158  -3.501   4.978  0.00  0.00    +0.000 A 
ATOM     19  C   UNL     1      -4.690  -4.800   5.047  0.00  0.00    +0.000 A 
ATOM     20  C   UNL     1      -3.994  -5.340   3.983  0.00  0.00    +0.004 A 
ATOM     21  C   UNL     1      -3.764  -4.584   2.846  0.00  0.00    -0.042 A 
ATOM     22  C   UNL     1      -3.040  -4.936   1.564  0.00  0.00    +0.058 C 
ENDBRANCH   4  14
BRANCH   1  23
ATOM     23  C   UNL     1       0.962  -2.229  -0.936  0.00  0.00    +0.138 C 
BRANCH  23  24
ATOM     24  C   UNL     1       1.868  -3.193  -0.167  0.00  0.00    +0.178 C 
BRANCH  24  26
ATOM     25  C   UNL     1       2.795  -5.402  -0.244  0.00  0.00    +0.194 C 
ATOM     26  O   UNL     1       1.967  -4.427  -0.881  0.00  0.00    -0.381 OA
ENDBRANCH  24  26
ENDBRANCH  23  24
ENDBRANCH   1  23
BRANCH  10  27
ATOM     27  C   UNL     1       1.965  -2.233  -4.999  0.00  0.00    -0.063 C 
BRANCH  27  28
ATOM     28  C   UNL     1       2.545  -3.345  -5.875  0.00  0.00    +0.066 C 
ATOM     29  C   UNL     1       1.693  -3.552  -7.111  0.00  0.00    +0.115 C 
ATOM     30  N   UNL     1       2.457  -3.293  -8.122  0.00  0.00    -0.161 NA
ATOM     31  N   UNL     1       3.744  -2.930  -7.737  0.00  0.00    -0.153 NA
ATOM     32  C   UNL     1       3.892  -2.934  -6.438  0.00  0.00    +0.077 C 
BRANCH  32  33
ATOM     33  C   UNL     1       5.109  -2.606  -5.678  0.00  0.00    -0.001 A 
ATOM     34  C   UNL     1       5.101  -2.662  -4.281  0.00  0.00    +0.010 A 
ATOM     35  C   UNL     1       6.246  -2.353  -3.576  0.00  0.00    +0.001 A 
ATOM     36  C   UNL     1       7.399  -1.988  -4.248  0.00  0.00    +0.000 A 
ATOM     37  C   UNL     1       7.414  -1.929  -5.631  0.00  0.00    +0.001 A 
ATOM     38  C   UNL     1       6.280  -2.242  -6.350  0.00  0.00    +0.010 A 
ENDBRANCH  32  33
ENDBRANCH  27  28
ENDBRANCH  10  27
TORSDOF 7
