REMARK  Name = ZINC59286330
REMARK  5 active torsions:
REMARK  status: ('A' for Active; 'I' for Inactive)
REMARK    1  A    between atoms: C_1  and  C_2
REMARK    2  A    between atoms: C_3  and  N_12
REMARK    3  A    between atoms: C_5  and  C_9
REMARK    4  A    between atoms: C_13  and  C_15
REMARK    5  A    between atoms: C_21  and  C_23
REMARK                            x       y       z     vdW  Elec       q    Type
REMARK                         _______ _______ _______ _____ _____    ______ ____
ROOT
ATOM      1  N   UNL     1       0.087  -0.150  -2.310  0.00  0.00    -0.284 N 
ATOM      2  C   UNL     1       0.182  -0.795  -3.490  0.00  0.00    +0.238 C 
ATOM      3  O   UNL     1       0.353  -1.995  -3.514  0.00  0.00    -0.273 OA
ATOM      4  H   UNL     1      -0.128   0.795  -2.290  0.00  0.00    +0.155 HD
ENDROOT
BRANCH   1   7
ATOM      5  C   UNL     1      -1.115   0.864   0.057  0.00  0.00    +0.048 C 
ATOM      6  C   UNL     1      -0.272  -0.385   0.067  0.00  0.00    +0.006 A 
ATOM      7  C   UNL     1       0.297  -0.846  -1.114  0.00  0.00    +0.040 A 
ATOM      8  C   UNL     1       1.073  -1.995  -1.108  0.00  0.00    +0.036 A 
ATOM      9  C   UNL     1       1.281  -2.686   0.086  0.00  0.00    +0.041 A 
ATOM     10  C   UNL     1       0.706  -2.216   1.268  0.00  0.00    +0.051 A 
ATOM     11  C   UNL     1      -0.062  -1.067   1.253  0.00  0.00    +0.129 A 
ATOM     12  F   UNL     1      -0.614  -0.611   2.399  0.00  0.00    -0.205 F 
BRANCH   9  13
ATOM     13  C   UNL     1       2.107  -3.912   0.099  0.00  0.00    +0.242 C 
ATOM     14  O   UNL     1       2.606  -4.319  -0.932  0.00  0.00    -0.270 OA
ATOM     15  N   UNL     1       2.307  -4.578   1.254  0.00  0.00    -0.325 N 
ATOM     16  H   UNL     1       1.908  -4.253   2.076  0.00  0.00    +0.145 HD
ATOM     17  H   UNL     1       2.849  -5.382   1.262  0.00  0.00    +0.145 HD
ENDBRANCH   9  13
ENDBRANCH   1   7
BRANCH   2  18
ATOM     18  C   UNL     1       0.076  -0.023  -4.780  0.00  0.00    +0.162 C 
ATOM     19  C   UNL     1      -1.310   0.648  -4.878  0.00  0.00    +0.033 C 
ATOM     20  C   UNL     1      -1.665   0.494  -6.381  0.00  0.00    +0.021 C 
ATOM     21  C   UNL     1      -1.049  -0.889  -6.706  0.00  0.00    +0.108 C 
ATOM     22  N   UNL     1       0.203  -0.940  -5.923  0.00  0.00    -0.289 N 
ATOM     23  C   UNL     1       1.280  -1.698  -6.206  0.00  0.00    +0.222 C 
ATOM     24  O   UNL     1       2.223  -1.721  -5.443  0.00  0.00    -0.275 OA
BRANCH  23  25
ATOM     25  C   UNL     1       1.314  -2.518  -7.470  0.00  0.00    +0.048 C 
ATOM     26  C   UNL     1       0.098  -3.447  -7.507  0.00  0.00    +0.019 C 
ATOM     27  C   UNL     1       0.132  -4.280  -8.790  0.00  0.00    -0.009 C 
ATOM     28  C   UNL     1       1.414  -5.115  -8.823  0.00  0.00    +0.007 C 
ATOM     29  C   UNL     1       2.629  -4.186  -8.785  0.00  0.00    -0.009 C 
ATOM     30  C   UNL     1       2.595  -3.354  -7.502  0.00  0.00    +0.019 C 
ATOM     31  C   UNL     1       2.597  -3.255  -9.999  0.00  0.00    +0.007 C 
ATOM     32  C   UNL     1       1.315  -2.419  -9.966  0.00  0.00    -0.009 C 
ATOM     33  C   UNL     1       0.100  -3.348 -10.004  0.00  0.00    +0.007 C 
ATOM     34  C   UNL     1       1.281  -1.587  -8.683  0.00  0.00    +0.019 C 
ENDBRANCH  23  25
ENDBRANCH   2  18
TORSDOF 4
