REMARK  Name = ZINC12497721
REMARK  13 active torsions:
REMARK  status: ('A' for Active; 'I' for Inactive)
REMARK    1  A    between atoms: C_1  and  C_2
REMARK    2  A    between atoms: C_2  and  C_3
REMARK    3  A    between atoms: C_3  and  C_4
REMARK    4  A    between atoms: C_4  and  C_5
REMARK    5  A    between atoms: C_5  and  C_31
REMARK    6  A    between atoms: C_10  and  C_12
REMARK    7  A    between atoms: N_19  and  C_22
REMARK    8  A    between atoms: C_25  and  O_28
REMARK    9  A    between atoms: O_28  and  C_29
REMARK   10  A    between atoms: C_29  and  C_30
REMARK   11  A    between atoms: C_31  and  O_33
REMARK   12  A    between atoms: O_33  and  C_34
REMARK   13  A    between atoms: C_34  and  C_35
REMARK                            x       y       z     vdW  Elec       q    Type
REMARK                         _______ _______ _______ _____ _____    ______ ____
ROOT
ATOM      1  C   UNL     1      -0.019   1.526   0.010  0.00  0.00    +0.044 C 
ATOM      2  C   UNL     1       1.353   2.059   0.000  0.00  0.00    +0.086 C 
ATOM      3  C   UNL     1       1.722   2.043  -1.538  0.00  0.00    +0.078 C 
ATOM      4  C   UNL     1       0.453   2.756  -2.018  0.00  0.00    -0.020 C 
ATOM      5  C   UNL     1       2.999   2.826  -1.395  0.00  0.00    +0.229 C 
ATOM      6  O   UNL     1       3.451   3.637  -2.174  0.00  0.00    -0.275 OA
ATOM      7  N   UNL     1       3.543   2.432  -0.205  0.00  0.00    -0.210 N 
ATOM      8  C   UNL     1       2.639   1.787   0.603  0.00  0.00    +0.229 C 
ATOM      9  O   UNL     1       2.869   1.137   1.600  0.00  0.00    -0.275 OA
ATOM     10  N   UNL     1      -0.615   2.051  -1.252  0.00  0.00    +0.396 N 
ATOM     11  H   UNL     1      -1.374   2.706  -1.032  0.00  0.00    -0.083 HD
ATOM     12  H   UNL     1      -0.986   1.273  -1.810  0.00  0.00    -0.083 HD
ENDROOT
BRANCH   7  13
ATOM     13  C   UNL     1       4.880   2.662   0.152  0.00  0.00    +0.044 A 
ATOM     14  C   UNL     1       5.352   2.234   1.385  0.00  0.00    +0.027 A 
ATOM     15  C   UNL     1       6.670   2.456   1.735  0.00  0.00    +0.047 A 
ATOM     16  C   UNL     1       7.518   3.117   0.858  0.00  0.00    +0.121 A 
ATOM     17  C   UNL     1       7.045   3.549  -0.372  0.00  0.00    +0.047 A 
ATOM     18  C   UNL     1       5.729   3.323  -0.725  0.00  0.00    +0.027 A 
BRANCH  16  19
ATOM     19  O   UNL     1       8.814   3.340   1.205  0.00  0.00    -0.492 OA
BRANCH  19  20
ATOM     20  C   UNL     1       9.233   2.867   2.486  0.00  0.00    +0.225 C 
ATOM     21  C   UNL     1      10.710   3.207   2.697  0.00  0.00    +0.048 C 
ENDBRANCH  19  20
ENDBRANCH  16  19
ENDBRANCH   7  13
BRANCH   4  22
ATOM     22  C   UNL     1       0.267   2.575  -3.503  0.00  0.00    -0.023 A 
ATOM     23  C   UNL     1       0.553   3.435  -4.511  0.00  0.00    +0.009 A 
ATOM     24  C   UNL     1       0.299   3.049  -5.813  0.00  0.00    +0.008 A 
ATOM     25  C   UNL     1      -0.238   1.827  -6.044  0.00  0.00    +0.045 A 
ATOM     26  S   UNL     1      -0.395   1.174  -4.390  0.00  0.00    -0.103 S 
ENDBRANCH   4  22
BRANCH   1  27
ATOM     27  C   UNL     1      -0.773   2.035   1.211  0.00  0.00    +0.297 C 
ATOM     28  O   UNL     1      -0.175   2.346   2.214  0.00  0.00    -0.252 OA
BRANCH  27  29
ATOM     29  O   UNL     1      -2.111   2.143   1.167  0.00  0.00    -0.466 OA
BRANCH  29  30
ATOM     30  C   UNL     1      -2.771   2.640   2.361  0.00  0.00    +0.228 C 
ATOM     31  C   UNL     1      -4.282   2.694   2.123  0.00  0.00    +0.048 C 
ENDBRANCH  29  30
ENDBRANCH  27  29
ENDBRANCH   1  27
BRANCH   1  32
ATOM     32  C   UNL     1       0.002  -0.004   0.002  0.00  0.00    -0.001 C 
BRANCH  32  33
ATOM     33  C   UNL     1      -1.429  -0.533  -0.113  0.00  0.00    -0.001 C 
BRANCH  33  35
ATOM     34  C   UNL     1      -2.839  -2.592  -0.236  0.00  0.00    +0.004 C 
ATOM     35  C   UNL     1      -1.408  -2.063  -0.121  0.00  0.00    -0.003 C 
ENDBRANCH  33  35
ENDBRANCH  32  33
ENDBRANCH   1  32
TORSDOF 10
