REMARK  Name = ZINC40098868
REMARK  11 active torsions:
REMARK  status: ('A' for Active; 'I' for Inactive)
REMARK    1  A    between atoms: C_1  and  C_2
REMARK    2  A    between atoms: C_3  and  C_8
REMARK    3  A    between atoms: C_5  and  C_7
REMARK    4  A    between atoms: C_8  and  C_10
REMARK    5  A    between atoms: N_14  and  C_27
REMARK    6  A    between atoms: C_15  and  C_17
REMARK    7  A    between atoms: C_19  and  O_25
REMARK    8  A    between atoms: C_20  and  O_24
REMARK    9  A    between atoms: O_25  and  C_26
REMARK   10  A    between atoms: C_27  and  C_28
REMARK   11  A    between atoms: C_28  and  O_29
REMARK                            x       y       z     vdW  Elec       q    Type
REMARK                         _______ _______ _______ _____ _____    ______ ____
ROOT
ATOM      1  C   UNL     1      -0.215  -1.505  -2.770  0.00  0.00    +0.077 C 
ATOM      2  C   UNL     1      -0.099  -0.716  -3.862  0.00  0.00    +0.249 C 
ATOM      3  C   UNL     1       0.243  -1.551  -5.031  0.00  0.00    +0.288 C 
ATOM      4  O   UNL     1       0.415  -1.135  -6.159  0.00  0.00    -0.266 OA
ATOM      5  N   UNL     1       0.337  -2.842  -4.662  0.00  0.00    -0.281 N 
ATOM      6  C   UNL     1       0.065  -2.919  -3.221  0.00  0.00    +0.145 C 
ATOM      7  O   UNL     1      -0.269   0.627  -3.881  0.00  0.00    -0.282 OA
ENDROOT
BRANCH   6   8
ATOM      8  C   UNL     1       1.265  -3.468  -2.493  0.00  0.00    -0.018 A 
ATOM      9  C   UNL     1       2.397  -2.689  -2.345  0.00  0.00    +0.055 A 
ATOM     10  C   UNL     1       3.502  -3.192  -1.676  0.00  0.00    +0.163 A 
ATOM     11  C   UNL     1       3.468  -4.481  -1.154  0.00  0.00    +0.173 A 
ATOM     12  C   UNL     1       2.329  -5.257  -1.306  0.00  0.00    +0.063 A 
ATOM     13  C   UNL     1       1.228  -4.747  -1.971  0.00  0.00    +0.025 A 
ATOM     14 BR   UNL     1       2.278  -7.010  -0.599  0.00  0.00    -0.046 Br
BRANCH  11  15
ATOM     15  O   UNL     1       4.549  -4.979  -0.497  0.00  0.00    -0.503 OA
ATOM     16  H   UNL     1       4.545  -4.807   0.455  0.00  0.00    +0.292 HD
ENDBRANCH  11  15
BRANCH  10  17
ATOM     17  O   UNL     1       4.616  -2.427  -1.530  0.00  0.00    -0.491 OA
ATOM     18  C   UNL     1       4.542  -1.077  -1.992  0.00  0.00    +0.277 C 
ENDBRANCH  10  17
ENDBRANCH   6   8
BRANCH   1  19
ATOM     19  C   UNL     1      -0.543  -1.070  -1.407  0.00  0.00    +0.203 C 
ATOM     20  O   UNL     1      -0.607   0.118  -1.145  0.00  0.00    -0.286 OA
BRANCH  19  23
ATOM     21  C   UNL     1      -0.982  -0.524   1.642  0.00  0.00    +0.067 C 
ATOM     22  C   UNL     1      -0.996  -1.890   1.004  0.00  0.00    +0.057 A 
ATOM     23  C   UNL     1      -0.794  -2.066  -0.360  0.00  0.00    +0.082 A 
ATOM     24  S   UNL     1      -0.925  -3.842  -0.481  0.00  0.00    -0.069 S 
ATOM     25  C   UNL     1      -1.212  -4.166   1.145  0.00  0.00    +0.076 A 
ATOM     26  N   UNL     1      -1.195  -2.978   1.705  0.00  0.00    -0.249 NA
ATOM     27  C   UNL     1      -1.430  -5.504   1.804  0.00  0.00    +0.073 C 
ENDBRANCH  19  23
ENDBRANCH   1  19
BRANCH   5  28
ATOM     28  C   UNL     1       0.658  -3.969  -5.540  0.00  0.00    +0.137 C 
BRANCH  28  29
ATOM     29  C   UNL     1       2.177  -4.106  -5.660  0.00  0.00    +0.175 C 
BRANCH  29  30
ATOM     30  O   UNL     1       2.732  -4.394  -4.375  0.00  0.00    -0.393 OA
ATOM     31  H   UNL     1       3.694  -4.495  -4.375  0.00  0.00    +0.209 HD
ENDBRANCH  29  30
ENDBRANCH  28  29
ENDBRANCH   5  28
TORSDOF 8
