REMARK  Name = ZINC16613235
REMARK  12 active torsions:
REMARK  status: ('A' for Active; 'I' for Inactive)
REMARK    1  A    between atoms: C_1  and  C_2
REMARK    2  A    between atoms: C_2  and  C_3
REMARK    3  A    between atoms: C_3  and  C_5
REMARK    4  A    between atoms: C_3  and  N_6
REMARK    5  A    between atoms: C_7  and  C_9
REMARK    6  A    between atoms: C_9  and  N_10
REMARK    7  A    between atoms: N_12  and  C_33
REMARK    8  A    between atoms: N_18  and  S_21
REMARK    9  A    between atoms: S_21  and  C_24
REMARK   10  A    between atoms: C_25  and  C_32
REMARK   11  A    between atoms: C_27  and  C_31
REMARK   12  A    between atoms: C_29  and  C_30
REMARK                            x       y       z     vdW  Elec       q    Type
REMARK                         _______ _______ _______ _____ _____    ______ ____
ROOT
ATOM      1  N   UNL     1       4.464   5.405   0.436  0.00  0.00    -0.275 N 
ATOM      2  C   UNL     1       3.937   4.071   0.123  0.00  0.00    +0.217 C 
ATOM      3  N   UNL     1       3.039   4.245  -1.042  0.00  0.00    -0.300 N 
ATOM      4  C   UNL     1       2.594   5.650  -0.915  0.00  0.00    +0.115 C 
ATOM      5  C   UNL     1       3.693   6.345  -0.150  0.00  0.00    +0.241 C 
ATOM      6  O   UNL     1       3.857   7.545  -0.075  0.00  0.00    -0.273 OA
ATOM      7  C   UNL     1       1.282   5.713  -0.137  0.00  0.00    +0.052 C 
ATOM      8  C   UNL     1       0.859   7.177   0.028  0.00  0.00    +0.112 C 
ATOM      9  N   UNL     1       0.821   7.810  -1.298  0.00  0.00    -0.176 NA
ATOM     10  C   UNL     1       2.016   7.741  -2.149  0.00  0.00    +0.112 C 
ATOM     11  C   UNL     1       2.431   6.273  -2.298  0.00  0.00    +0.052 C 
ENDROOT
BRANCH   3  12
ATOM     12  C   UNL     1       1.954   3.369  -0.974  0.00  0.00    +0.032 A 
ATOM     13  C   UNL     1       1.917   2.381   0.003  0.00  0.00    +0.023 A 
ATOM     14  C   UNL     1       0.843   1.516   0.067  0.00  0.00    +0.002 A 
ATOM     15  C   UNL     1      -0.193   1.627  -0.842  0.00  0.00    +0.000 A 
ATOM     16  C   UNL     1      -0.163   2.613  -1.811  0.00  0.00    +0.002 A 
ATOM     17  C   UNL     1       0.908   3.482  -1.882  0.00  0.00    +0.023 A 
ENDBRANCH   3  12
BRANCH   9  18
ATOM     18  S   UNL     1      -0.545   8.586  -1.822  0.00  0.00    +0.061 S 
ATOM     19  O   UNL     1      -1.207   9.071  -0.662  0.00  0.00    -0.153 OA
ATOM     20  O   UNL     1      -0.143   9.442  -2.883  0.00  0.00    -0.153 OA
BRANCH  18  21
ATOM     21  C   UNL     1      -1.599   7.365  -2.531  0.00  0.00    +0.111 A 
ATOM     22  C   UNL     1      -2.620   6.814  -1.780  0.00  0.00    -0.024 A 
ATOM     23  C   UNL     1      -3.450   5.859  -2.337  0.00  0.00    +0.008 A 
ATOM     24  C   UNL     1      -3.252   5.448  -3.642  0.00  0.00    -0.050 A 
ATOM     25  C   UNL     1      -2.227   5.996  -4.391  0.00  0.00    +0.008 A 
ATOM     26  C   UNL     1      -1.400   6.954  -3.835  0.00  0.00    -0.024 A 
ATOM     27  C   UNL     1      -0.283   7.550  -4.652  0.00  0.00    +0.046 C 
ATOM     28  C   UNL     1      -4.154   4.404  -4.248  0.00  0.00    +0.044 C 
ATOM     29  C   UNL     1      -2.833   7.258  -0.356  0.00  0.00    +0.046 C 
ENDBRANCH  18  21
ENDBRANCH   9  18
BRANCH   1  30
ATOM     30  C   UNL     1       5.646   5.675   1.259  0.00  0.00    +0.205 C 
BRANCH  30  32
ATOM     31  N   UNL     1       6.160   6.070   3.646  0.00  0.00    -0.311 N 
ATOM     32  C   UNL     1       5.232   5.818   2.701  0.00  0.00    +0.231 C 
ATOM     33  O   UNL     1       4.065   5.706   3.011  0.00  0.00    -0.274 OA
ATOM     34  H   UNL     1       7.093   6.160   3.398  0.00  0.00    +0.149 HD
BRANCH  31  35
ATOM     35  C   UNL     1       5.757   6.210   5.048  0.00  0.00    +0.070 C 
ATOM     36  C   UNL     1       5.311   7.649   5.309  0.00  0.00    +0.028 C 
BRANCH  35  38
ATOM     37  C   UNL     1       7.309   4.395   5.783  0.00  0.00    +0.005 C 
ATOM     38  C   UNL     1       6.942   5.870   5.954  0.00  0.00    +0.018 C 
ENDBRANCH  35  38
ENDBRANCH  31  35
ENDBRANCH  30  32
ENDBRANCH   1  30
TORSDOF 7
