REMARK  Name = ZINC21122155
REMARK  13 active torsions:
REMARK  status: ('A' for Active; 'I' for Inactive)
REMARK    1  A    between atoms: C_1  and  C_2
REMARK    2  A    between atoms: C_2  and  C_3
REMARK    3  A    between atoms: C_3  and  N_4
REMARK    4  A    between atoms: C_8  and  S_9
REMARK    5  A    between atoms: S_9  and  C_10
REMARK    6  A    between atoms: C_10  and  C_11
REMARK    7  A    between atoms: N_13  and  C_14
REMARK    8  A    between atoms: N_13  and  C_17
REMARK    9  A    between atoms: C_14  and  C_15
REMARK   10  A    between atoms: C_15  and  C_16
REMARK   11  A    between atoms: C_18  and  N_33
REMARK   12  A    between atoms: N_19  and  C_26
REMARK   13  A    between atoms: C_26  and  C_27
REMARK                            x       y       z     vdW  Elec       q    Type
REMARK                         _______ _______ _______ _____ _____    ______ ____
ROOT
ATOM      1  C   UNL     1       9.012   5.132  -1.448  0.00  0.00    +0.140 A 
ATOM      2  C   UNL     1       9.666   4.331  -2.362  0.00  0.00    +0.128 A 
ATOM      3  N   UNL     1      10.786   4.815  -2.998  0.00  0.00    -0.276 N 
ATOM      4  C   UNL     1      11.244   6.050  -2.725  0.00  0.00    +0.331 A 
ATOM      5  O   UNL     1      12.238   6.457  -3.294  0.00  0.00    -0.246 OA
ATOM      6  N   UNL     1      10.622   6.842  -1.833  0.00  0.00    -0.273 N 
ATOM      7  H   UNL     1      11.014   7.849  -1.625  0.00  0.00    +0.173 HD
ATOM      8  C   UNL     1       9.519   6.418  -1.187  0.00  0.00    +0.277 A 
ATOM      9  O   UNL     1       8.963   7.145  -0.380  0.00  0.00    -0.266 OA
ENDROOT
BRANCH   1  12
ATOM     10  C   UNL     1       6.745   4.373  -1.487  0.00  0.00    +0.230 C 
ATOM     11  O   UNL     1       6.708   4.589  -2.680  0.00  0.00    -0.274 OA
ATOM     12  N   UNL     1       7.858   4.666  -0.783  0.00  0.00    -0.264 N 
BRANCH  10  13
ATOM     13  C   UNL     1       5.548   3.779  -0.791  0.00  0.00    +0.173 C 
BRANCH  13  14
ATOM     14  S   UNL     1       4.223   3.501  -1.999  0.00  0.00    -0.077 S 
BRANCH  14  19
ATOM     15  N   UNL     1       1.688   2.433  -1.514  0.00  0.00    -0.271 N 
ATOM     16  C   UNL     1       0.962   1.951  -0.464  0.00  0.00    +0.345 A 
ATOM     17  N   UNL     1       1.701   2.034   0.612  0.00  0.00    -0.226 N 
ATOM     18  N   UNL     1       2.940   2.575   0.246  0.00  0.00    -0.145 NA
ATOM     19  C   UNL     1       2.912   2.813  -1.043  0.00  0.00    +0.192 A 
ATOM     20  O   UNL     1      -0.307   1.475  -0.524  0.00  0.00    -0.245 OA
ATOM     21  H   UNL     1       1.507   1.764   1.661  0.00  0.00    +0.194 HD
BRANCH  15  22
ATOM     22  C   UNL     1       1.234   2.525  -2.904  0.00  0.00    +0.129 C 
BRANCH  22  24
ATOM     23  C   UNL     1       0.092   3.979  -4.585  0.00  0.00    +0.005 C 
ATOM     24  C   UNL     1       0.566   3.882  -3.134  0.00  0.00    +0.018 C 
ENDBRANCH  22  24
ENDBRANCH  15  22
ENDBRANCH  14  19
ENDBRANCH  13  14
ENDBRANCH  10  13
BRANCH  12  25
ATOM     25  C   UNL     1       7.869   4.500   0.673  0.00  0.00    +0.114 C 
BRANCH  25  26
ATOM     26  C   UNL     1       8.371   3.098   1.023  0.00  0.00    +0.016 C 
ATOM     27  C   UNL     1       8.382   2.925   2.543  0.00  0.00    +0.005 C 
ENDBRANCH  25  26
ENDBRANCH  12  25
ENDBRANCH   1  12
BRANCH   2  28
ATOM     28  N   UNL     1       9.201   3.067  -2.637  0.00  0.00    -0.343 N 
ATOM     29  H   UNL     1       9.728   2.435  -3.367  0.00  0.00    +0.144 HD
ATOM     30  H   UNL     1       8.303   2.688  -2.128  0.00  0.00    +0.144 HD
ENDBRANCH   2  28
BRANCH   3  31
ATOM     31  C   UNL     1      11.488   3.977  -3.974  0.00  0.00    +0.163 C 
BRANCH  31  32
ATOM     32  C   UNL     1      12.540   3.159  -3.270  0.00  0.00    -0.028 A 
ATOM     33  C   UNL     1      13.822   3.657  -3.129  0.00  0.00    +0.005 A 
ATOM     34  C   UNL     1      14.785   2.909  -2.479  0.00  0.00    +0.000 A 
ATOM     35  C   UNL     1      14.470   1.659  -1.980  0.00  0.00    +0.000 A 
ATOM     36  C   UNL     1      13.189   1.159  -2.126  0.00  0.00    +0.000 A 
ATOM     37  C   UNL     1      12.224   1.910  -2.771  0.00  0.00    +0.005 A 
ENDBRANCH  31  32
ENDBRANCH   3  31
TORSDOF 11
