REMARK  Name = ZINC19898413
REMARK  7 active torsions:
REMARK  status: ('A' for Active; 'I' for Inactive)
REMARK    1  A    between atoms: C_1  and  C_2
REMARK    2  A    between atoms: C_3  and  C_24
REMARK    3  A    between atoms: C_4  and  C_14
REMARK    4  A    between atoms: C_24  and  O_26
REMARK    5  A    between atoms: O_26  and  C_27
REMARK    6  A    between atoms: C_27  and  C_28
REMARK    7  A    between atoms: C_27  and  C_29
REMARK                            x       y       z     vdW  Elec       q    Type
REMARK                         _______ _______ _______ _____ _____    ______ ____
ROOT
ATOM      1  C   UNL     1      -5.320  -1.814  -2.213  0.00  0.00    +0.061 C 
ATOM      2  C   UNL     1      -4.543  -1.353  -1.006  0.00  0.00    +0.016 C 
ATOM      3  C   UNL     1      -3.285  -0.904  -1.154  0.00  0.00    +0.065 C 
ATOM      4  C   UNL     1      -2.485  -0.429   0.023  0.00  0.00    +0.093 C 
ATOM      5  C   UNL     1      -3.082  -0.922   1.317  0.00  0.00    +0.024 C 
ATOM      6  C   UNL     1      -4.355  -1.368   1.363  0.00  0.00    +0.015 C 
ATOM      7  N   UNL     1      -5.124  -1.393   0.231  0.00  0.00    -0.321 N 
ATOM      8  C   UNL     1      -4.963  -1.851   2.657  0.00  0.00    +0.051 C 
ATOM      9  C   UNL     1      -3.873  -2.461   3.541  0.00  0.00    +0.014 C 
ATOM     10  C   UNL     1      -2.800  -1.396   3.792  0.00  0.00    +0.080 C 
ATOM     11  C   UNL     1      -2.277  -0.906   2.470  0.00  0.00    +0.162 C 
ATOM     12  O   UNL     1      -1.138  -0.489   2.396  0.00  0.00    -0.292 OA
ATOM     13  H   UNL     1      -6.219  -1.445   0.323  0.00  0.00    +0.152 HD
ENDROOT
BRANCH   4  14
ATOM     14  C   UNL     1      -2.462   1.078   0.031  0.00  0.00    -0.027 A 
ATOM     15  C   UNL     1      -3.627   1.779   0.101  0.00  0.00    +0.005 A 
ATOM     16  C   UNL     1      -3.626   3.172   0.109  0.00  0.00    +0.001 A 
ATOM     17  C   UNL     1      -2.460   3.873   0.048  0.00  0.00    +0.008 A 
ATOM     18  C   UNL     1      -1.238   3.183  -0.025  0.00  0.00    -0.018 A 
ATOM     19  C   UNL     1      -1.239   1.766  -0.039  0.00  0.00    -0.014 A 
ATOM     20  C   UNL     1      -0.016   1.077  -0.106  0.00  0.00    +0.009 A 
ATOM     21  C   UNL     1       1.149   1.777  -0.167  0.00  0.00    +0.001 A 
ATOM     22  C   UNL     1       1.150   3.171  -0.159  0.00  0.00    +0.001 A 
ATOM     23  C   UNL     1      -0.014   3.872  -0.089  0.00  0.00    +0.008 A 
ENDBRANCH   4  14
BRANCH   3  24
ATOM     24  C   UNL     1      -2.704  -0.878  -2.443  0.00  0.00    +0.338 C 
ATOM     25  O   UNL     1      -3.343  -1.260  -3.406  0.00  0.00    -0.245 OA
BRANCH  24  26
ATOM     26  O   UNL     1      -1.442  -0.430  -2.606  0.00  0.00    -0.459 OA
BRANCH  26  27
ATOM     27  C   UNL     1      -0.919  -0.433  -3.936  0.00  0.00    +0.171 C 
ATOM     28  C   UNL     1       0.096   0.702  -4.087  0.00  0.00    +0.052 C 
ATOM     29  C   UNL     1      -0.232  -1.772  -4.212  0.00  0.00    +0.052 C 
ENDBRANCH  26  27
ENDBRANCH  24  26
ENDBRANCH   3  24
TORSDOF 4
