REMARK  Name = ZINC36303280
REMARK  16 active torsions:
REMARK  status: ('A' for Active; 'I' for Inactive)
REMARK    1  A    between atoms: C_1  and  C_2
REMARK    2  A    between atoms: C_2  and  C_3
REMARK    3  A    between atoms: C_4  and  C_22
REMARK    4  A    between atoms: C_5  and  O_14
REMARK    5  A    between atoms: N_6  and  C_8
REMARK    6  A    between atoms: O_14  and  C_15
REMARK    7  A    between atoms: C_22  and  N_23
REMARK    8  A    between atoms: N_23  and  C_24
REMARK    9  A    between atoms: N_23  and  C_28
REMARK   10  A    between atoms: C_24  and  C_25
REMARK   11  A    between atoms: C_25  and  O_26
REMARK   12  A    between atoms: O_26  and  C_27
REMARK   13  A    between atoms: C_28  and  C_29
REMARK   14  A    between atoms: C_29  and  C_31
REMARK   15  A    between atoms: C_29  and  O_38
REMARK   16  A    between atoms: C_31  and  C_32
REMARK                            x       y       z     vdW  Elec       q    Type
REMARK                         _______ _______ _______ _____ _____    ______ ____
ROOT
ATOM      1  C   UNL     1      -1.203   0.087  -0.599  0.00  0.00    +0.068 A 
ATOM      2  C   UNL     1      -1.429  -0.142   0.761  0.00  0.00    +0.021 A 
ATOM      3  C   UNL     1      -2.723  -0.534   0.909  0.00  0.00    +0.225 A 
ATOM      4  N   UNL     1      -3.289  -0.549  -0.327  0.00  0.00    -0.200 N 
ATOM      5  N   UNL     1      -2.314  -0.150  -1.250  0.00  0.00    -0.168 NA
ENDROOT
BRANCH   4   6
ATOM      6  C   UNL     1      -4.614  -0.897  -0.625  0.00  0.00    +0.069 A 
ATOM      7  C   UNL     1      -5.210  -1.976   0.014  0.00  0.00    +0.028 A 
ATOM      8  C   UNL     1      -6.516  -2.317  -0.281  0.00  0.00    +0.002 A 
ATOM      9  C   UNL     1      -7.229  -1.584  -1.212  0.00  0.00    +0.000 A 
ATOM     10  C   UNL     1      -6.638  -0.509  -1.851  0.00  0.00    +0.002 A 
ATOM     11  C   UNL     1      -5.335  -0.160  -1.555  0.00  0.00    +0.028 A 
ENDBRANCH   4   6
BRANCH   1  13
ATOM     12  C   UNL     1       0.137   2.067  -1.258  0.00  0.00    +0.010 C 
ATOM     13  C   UNL     1       0.098   0.538  -1.212  0.00  0.00    +0.054 C 
ENDBRANCH   1  13
BRANCH   3  14
ATOM     14  O   UNL     1      -3.336  -0.853   2.077  0.00  0.00    -0.438 OA
BRANCH  14  15
ATOM     15  C   UNL     1      -3.193  -2.120   2.548  0.00  0.00    +0.131 A 
ATOM     16  C   UNL     1      -2.345  -3.009   1.903  0.00  0.00    +0.049 A 
ATOM     17  C   UNL     1      -2.200  -4.296   2.383  0.00  0.00    +0.042 A 
ATOM     18  C   UNL     1      -2.900  -4.699   3.508  0.00  0.00    +0.124 A 
ATOM     19  C   UNL     1      -3.747  -3.814   4.152  0.00  0.00    +0.042 A 
ATOM     20  C   UNL     1      -3.890  -2.524   3.678  0.00  0.00    +0.049 A 
ATOM     21  F   UNL     1      -2.757  -5.959   3.976  0.00  0.00    -0.205 F 
ENDBRANCH  14  15
ENDBRANCH   3  14
BRANCH   2  22
ATOM     22  C   UNL     1      -0.418   0.016   1.867  0.00  0.00    -0.036 C 
BRANCH  22  23
ATOM     23  N   UNL     1      -0.409   1.411   2.327  0.00  0.00    +0.386 N 
ATOM     24  H   UNL     1      -0.260   2.024   1.539  0.00  0.00    -0.081 HD
BRANCH  23  25
ATOM     25  C   UNL     1       0.672   1.599   3.304  0.00  0.00    -0.050 C 
BRANCH  25  26
ATOM     26  C   UNL     1       2.022   1.387   2.617  0.00  0.00    +0.141 C 
BRANCH  26  27
ATOM     27  O   UNL     1       2.201   2.377   1.602  0.00  0.00    -0.385 OA
ATOM     28  C   UNL     1       3.439   2.268   0.896  0.00  0.00    +0.193 C 
ENDBRANCH  26  27
ENDBRANCH  25  26
ENDBRANCH  23  25
BRANCH  23  29
ATOM     29  C   UNL     1      -1.698   1.728   2.956  0.00  0.00    -0.046 C 
BRANCH  29  30
ATOM     30  C   UNL     1      -1.736   3.213   3.322  0.00  0.00    +0.102 C 
BRANCH  30  31
ATOM     31  O   UNL     1      -1.695   3.999   2.129  0.00  0.00    -0.393 OA
ATOM     32  H   UNL     1      -2.431   3.835   1.524  0.00  0.00    +0.210 HD
ENDBRANCH  30  31
BRANCH  30  33
ATOM     33  C   UNL     1      -3.025   3.517   4.088  0.00  0.00    +0.064 C 
BRANCH  33  34
ATOM     34  C   UNL     1      -3.006   4.950   4.555  0.00  0.00    -0.045 A 
ATOM     35  C   UNL     1      -2.466   5.269   5.787  0.00  0.00    +0.004 A 
ATOM     36  C   UNL     1      -2.448   6.583   6.215  0.00  0.00    +0.000 A 
ATOM     37  C   UNL     1      -2.971   7.579   5.411  0.00  0.00    +0.000 A 
ATOM     38  C   UNL     1      -3.510   7.260   4.178  0.00  0.00    +0.000 A 
ATOM     39  C   UNL     1      -3.524   5.947   3.748  0.00  0.00    +0.004 A 
ENDBRANCH  33  34
ENDBRANCH  30  33
ENDBRANCH  29  30
ENDBRANCH  23  29
ENDBRANCH  22  23
ENDBRANCH   2  22
TORSDOF 14
