REMARK  Name = ZINC54433014
REMARK  11 active torsions:
REMARK  status: ('A' for Active; 'I' for Inactive)
REMARK    1  A    between atoms: C_1  and  C_2
REMARK    2  A    between atoms: C_2  and  N_3
REMARK    3  A    between atoms: C_4  and  C_6
REMARK    4  A    between atoms: C_9  and  N_12
REMARK    5  A    between atoms: N_15  and  C_16
REMARK    6  A    between atoms: C_16  and  C_17
REMARK    7  A    between atoms: C_17  and  C_18
REMARK    8  A    between atoms: C_17  and  C_19
REMARK    9  A    between atoms: C_17  and  N_20
REMARK   10  A    between atoms: C_22  and  C_29
REMARK   11  A    between atoms: C_25  and  C_28
REMARK                            x       y       z     vdW  Elec       q    Type
REMARK                         _______ _______ _______ _____ _____    ______ ____
ROOT
ATOM      1  N   UNL     1       3.581  -3.683   5.965  0.00  0.00    -0.269 N 
ATOM      2  C   UNL     1       3.642  -5.005   6.220  0.00  0.00    +0.304 C 
ATOM      3  O   UNL     1       3.188  -5.800   5.419  0.00  0.00    -0.253 OA
ATOM      4  N   UNL     1       4.205  -5.445   7.362  0.00  0.00    -0.300 N 
ATOM      5  H   UNL     1       4.001  -3.052   6.570  0.00  0.00    +0.156 HD
ATOM      6  H   UNL     1       4.566  -4.811   8.001  0.00  0.00    +0.150 HD
ENDROOT
BRANCH   1  10
ATOM      7  C   UNL     1       1.590  -2.304   2.575  0.00  0.00    +0.037 A 
ATOM      8  C   UNL     1       2.295  -3.510   2.532  0.00  0.00    +0.015 A 
ATOM      9  C   UNL     1       2.951  -3.963   3.654  0.00  0.00    +0.024 A 
ATOM     10  C   UNL     1       2.914  -3.221   4.830  0.00  0.00    +0.035 A 
ATOM     11  C   UNL     1       2.214  -2.020   4.877  0.00  0.00    +0.024 A 
ATOM     12  C   UNL     1       1.559  -1.559   3.757  0.00  0.00    +0.015 A 
BRANCH   7  14
ATOM     13  N   UNL     1       0.916  -2.536   0.235  0.00  0.00    -0.312 N 
ATOM     14  C   UNL     1       0.885  -1.816   1.374  0.00  0.00    +0.244 C 
ATOM     15  O   UNL     1       0.277  -0.764   1.412  0.00  0.00    -0.270 OA
ATOM     16  H   UNL     1       1.401  -3.375   0.205  0.00  0.00    +0.149 HD
BRANCH  13  18
ATOM     17  C   UNL     1       0.408  -3.047  -2.102  0.00  0.00    +0.024 C 
ATOM     18  C   UNL     1       0.216  -2.051  -0.957  0.00  0.00    +0.101 C 
ENDBRANCH  13  18
ENDBRANCH   7  14
ENDBRANCH   1  10
BRANCH   4  19
ATOM     19  C   UNL     1       4.270  -6.882   7.639  0.00  0.00    +0.093 C 
BRANCH  19  20
ATOM     20  C   UNL     1       4.952  -7.111   8.990  0.00  0.00    -0.055 C 
ATOM     21  C   UNL     1       5.021  -8.611   9.280  0.00  0.00    -0.008 C 
ATOM     22  C   UNL     1       6.368  -6.533   8.951  0.00  0.00    -0.008 C 
BRANCH  20  23
ATOM     23  N   UNL     1       4.180  -6.443  10.047  0.00  0.00    +0.384 N 
ATOM     24  C   UNL     1       2.819  -6.991  10.077  0.00  0.00    -0.075 C 
ATOM     25  C   UNL     1       1.987  -6.244  11.121  0.00  0.00    -0.031 C 
ATOM     26  C   UNL     1       2.637  -6.409  12.498  0.00  0.00    +0.003 C 
ATOM     27  C   UNL     1       4.080  -5.902  12.435  0.00  0.00    -0.031 C 
ATOM     28  C   UNL     1       4.835  -6.662  11.342  0.00  0.00    -0.075 C 
ATOM     29  C   UNL     1       4.083  -4.406  12.112  0.00  0.00    +0.005 C 
ATOM     30  C   UNL     1       0.569  -6.818  11.152  0.00  0.00    +0.005 C 
ATOM     31  H   UNL     1       4.137  -5.453   9.856  0.00  0.00    -0.081 HD
ENDBRANCH  20  23
ENDBRANCH  19  20
ENDBRANCH   4  19
TORSDOF 6
