REMARK  Name = ZINC39711266
REMARK  14 active torsions:
REMARK  status: ('A' for Active; 'I' for Inactive)
REMARK    1  A    between atoms: C_1  and  C_2
REMARK    2  A    between atoms: C_6  and  C_15
REMARK    3  A    between atoms: C_13  and  C_14
REMARK    4  A    between atoms: C_15  and  C_17
REMARK    5  A    between atoms: C_15  and  N_26
REMARK    6  A    between atoms: N_21  and  C_22
REMARK    7  A    between atoms: C_22  and  C_23
REMARK    8  A    between atoms: C_23  and  O_24
REMARK    9  A    between atoms: O_24  and  C_25
REMARK   10  A    between atoms: N_26  and  C_27
REMARK   11  A    between atoms: N_26  and  C_35
REMARK   12  A    between atoms: C_27  and  C_28
REMARK   13  A    between atoms: C_28  and  C_29
REMARK   14  A    between atoms: C_35  and  C_36
REMARK                            x       y       z     vdW  Elec       q    Type
REMARK                         _______ _______ _______ _____ _____    ______ ____
ROOT
ATOM      1  C   UNL     1       1.755  -5.329  -3.562  0.00  0.00    +0.142 C 
ENDROOT
BRANCH   1   7
ATOM      2  C   UNL     1      -5.074  -3.664  -4.828  0.00  0.00    +0.044 C 
ATOM      3  C   UNL     1      -3.675  -3.348  -4.364  0.00  0.00    -0.047 A 
ATOM      4  C   UNL     1      -2.860  -4.362  -3.974  0.00  0.00    +0.013 A 
ATOM      5  C   UNL     1      -1.503  -4.043  -3.526  0.00  0.00    -0.007 A 
ATOM      6  C   UNL     1      -0.650  -5.028  -3.125  0.00  0.00    -0.003 C 
ATOM      7  C   UNL     1       0.736  -4.606  -2.678  0.00  0.00    +0.123 C 
ATOM      8  C   UNL     1       1.059  -3.129  -2.713  0.00  0.00    +0.226 C 
ATOM      9  O   UNL     1       2.156  -2.736  -2.365  0.00  0.00    -0.275 OA
ATOM     10  N   UNL     1       0.144  -2.267  -3.123  0.00  0.00    -0.284 N 
ATOM     11  C   UNL     1      -1.076  -2.633  -3.517  0.00  0.00    +0.041 A 
ATOM     12  C   UNL     1      -1.999  -1.660  -3.942  0.00  0.00    +0.027 A 
ATOM     13  C   UNL     1      -3.243  -2.022  -4.351  0.00  0.00    -0.046 A 
ATOM     14  C   UNL     1      -4.197  -0.946  -4.803  0.00  0.00    +0.044 C 
ATOM     15  H   UNL     1       0.371  -1.324  -3.137  0.00  0.00    +0.155 HD
ENDBRANCH   1   7
BRANCH   1  16
ATOM     16  C   UNL     1       3.149  -5.015  -3.082  0.00  0.00    +0.170 A 
ATOM     17  N   UNL     1       3.657  -5.306  -1.910  0.00  0.00    -0.112 NA
ATOM     18  N   UNL     1       4.870  -4.874  -1.884  0.00  0.00    -0.023 NA
ATOM     19  N   UNL     1       5.149  -4.314  -3.010  0.00  0.00    -0.044 NA
ATOM     20  N   UNL     1       4.115  -4.386  -3.777  0.00  0.00    -0.225 N 
BRANCH  20  21
ATOM     21  C   UNL     1       4.010  -3.876  -5.146  0.00  0.00    +0.175 C 
BRANCH  21  22
ATOM     22  C   UNL     1       3.504  -2.432  -5.115  0.00  0.00    +0.183 C 
BRANCH  22  23
ATOM     23  O   UNL     1       3.365  -1.947  -6.452  0.00  0.00    -0.381 OA
ATOM     24  C   UNL     1       2.895  -0.600  -6.536  0.00  0.00    +0.194 C 
ENDBRANCH  22  23
ENDBRANCH  21  22
ENDBRANCH  20  21
ENDBRANCH   1  16
BRANCH   1  25
ATOM     25  N   UNL     1       1.526  -6.778  -3.487  0.00  0.00    -0.287 NA
BRANCH  25  26
ATOM     26  C   UNL     1       2.443  -7.502  -4.378  0.00  0.00    +0.090 C 
BRANCH  26  27
ATOM     27  C   UNL     1       1.933  -8.930  -4.584  0.00  0.00    +0.050 C 
BRANCH  27  28
ATOM     28  C   UNL     1       2.931  -9.707  -5.403  0.00  0.00    -0.046 A 
ATOM     29  C   UNL     1       2.837  -9.715  -6.782  0.00  0.00    +0.003 A 
ATOM     30  C   UNL     1       3.752 -10.428  -7.533  0.00  0.00    +0.000 A 
ATOM     31  C   UNL     1       4.763 -11.132  -6.905  0.00  0.00    +0.000 A 
ATOM     32  C   UNL     1       4.857 -11.123  -5.526  0.00  0.00    +0.000 A 
ATOM     33  C   UNL     1       3.944 -10.407  -4.775  0.00  0.00    +0.003 A 
ENDBRANCH  27  28
ENDBRANCH  26  27
ENDBRANCH  25  26
BRANCH  25  34
ATOM     34  C   UNL     1       1.647  -7.260  -2.104  0.00  0.00    +0.127 C 
BRANCH  34  35
ATOM     35  C   UNL     1       0.282  -7.301  -1.467  0.00  0.00    +0.004 A 
ATOM     36  C   UNL     1      -0.671  -8.261  -1.552  0.00  0.00    +0.012 A 
ATOM     37  C   UNL     1      -1.863  -8.085  -0.873  0.00  0.00    +0.008 A 
ATOM     38  C   UNL     1      -2.042  -6.958  -0.142  0.00  0.00    +0.045 A 
ATOM     39  S   UNL     1      -0.496  -6.103  -0.396  0.00  0.00    -0.100 S 
ENDBRANCH  34  35
ENDBRANCH  25  34
ENDBRANCH   1  25
TORSDOF 11
