REMARK  Name = ZINC36167885
REMARK  10 active torsions:
REMARK  status: ('A' for Active; 'I' for Inactive)
REMARK    1  A    between atoms: C_5  and  C_7
REMARK    2  A    between atoms: C_7  and  N_8
REMARK    3  A    between atoms: N_8  and  C_9
REMARK    4  A    between atoms: N_8  and  C_15
REMARK    5  A    between atoms: C_9  and  C_10
REMARK    6  A    between atoms: C_15  and  C_16
REMARK    7  A    between atoms: C_19  and  C_21
REMARK    8  A    between atoms: C_21  and  C_22
REMARK    9  A    between atoms: C_21  and  C_27
REMARK   10  A    between atoms: C_21  and  O_32
REMARK                            x       y       z     vdW  Elec       q    Type
REMARK                         _______ _______ _______ _____ _____    ______ ____
ROOT
ATOM      1  C   UNL     1       2.289  -4.327   2.799  0.00  0.00    +0.089 A 
ATOM      2  C   UNL     1       1.433  -4.690   3.771  0.00  0.00    +0.043 A 
ATOM      3  C   UNL     1       2.207  -4.945   4.926  0.00  0.00    +0.048 A 
ATOM      4  C   UNL     1       3.491  -4.723   4.590  0.00  0.00    +0.147 A 
ATOM      5  O   UNL     1       3.535  -4.355   3.300  0.00  0.00    -0.463 OA
ENDROOT
BRANCH   1   6
ATOM      6  C   UNL     1       1.915  -3.959   1.387  0.00  0.00    -0.002 C 
BRANCH   6   7
ATOM      7  N   UNL     1       1.527  -2.543   1.336  0.00  0.00    +0.392 N 
ATOM      8  H   UNL     1       0.792  -2.371   2.006  0.00  0.00    -0.080 HD
BRANCH   7   9
ATOM      9  C   UNL     1       2.690  -1.705   1.659  0.00  0.00    -0.039 C 
BRANCH   9  14
ATOM     10  C   UNL     1       2.107   1.905   0.719  0.00  0.00    +0.000 A 
ATOM     11  C   UNL     1       1.485   2.390   1.854  0.00  0.00    +0.003 A 
ATOM     12  C   UNL     1       1.253   1.552   2.928  0.00  0.00    +0.038 A 
ATOM     13  C   UNL     1       1.643   0.225   2.866  0.00  0.00    +0.125 A 
ATOM     14  C   UNL     1       2.265  -0.261   1.728  0.00  0.00    -0.029 A 
ATOM     15  C   UNL     1       2.496   0.580   0.656  0.00  0.00    +0.004 A 
ATOM     16  F   UNL     1       1.416  -0.596   3.915  0.00  0.00    -0.205 F 
ENDBRANCH   9  14
ENDBRANCH   7   9
BRANCH   7  17
ATOM     17  C   UNL     1       1.046  -2.214  -0.013  0.00  0.00    -0.002 C 
BRANCH  17  18
ATOM     18  C   UNL     1      -0.230  -2.967  -0.288  0.00  0.00    +0.089 A 
ATOM     19  C   UNL     1      -1.476  -2.509  -0.071  0.00  0.00    +0.042 A 
ATOM     20  C   UNL     1      -2.364  -3.535  -0.468  0.00  0.00    +0.041 A 
ATOM     21  C   UNL     1      -1.607  -4.559  -0.904  0.00  0.00    +0.195 A 
ATOM     22  O   UNL     1      -0.316  -4.207  -0.798  0.00  0.00    -0.470 OA
ENDBRANCH  17  18
ENDBRANCH   7  17
ENDBRANCH   6   7
ENDBRANCH   1   6
BRANCH   4  23
ATOM     23  C   UNL     1       4.679  -4.869   5.506  0.00  0.00    +0.186 C 
BRANCH  23  24
ATOM     24  C   UNL     1       5.890  -5.261   4.700  0.00  0.00    +0.034 A 
ATOM     25  C   UNL     1       6.959  -6.006   5.073  0.00  0.00    +0.015 A 
ATOM     26  C   UNL     1       7.965  -6.242   4.155  0.00  0.00    +0.008 A 
ATOM     27  C   UNL     1       7.853  -5.721   2.909  0.00  0.00    +0.045 A 
ATOM     28  S   UNL     1       6.285  -4.873   3.003  0.00  0.00    -0.098 S 
ENDBRANCH  23  24
BRANCH  23  29
ATOM     29  C   UNL     1       4.941  -3.557   6.201  0.00  0.00    +0.034 A 
ATOM     30  C   UNL     1       5.481  -3.332   7.424  0.00  0.00    +0.015 A 
ATOM     31  C   UNL     1       5.629  -2.029   7.861  0.00  0.00    +0.008 A 
ATOM     32  C   UNL     1       5.231  -1.015   7.054  0.00  0.00    +0.045 A 
ATOM     33  S   UNL     1       4.629  -1.897   5.623  0.00  0.00    -0.098 S 
ENDBRANCH  23  29
BRANCH  23  34
ATOM     34  O   UNL     1       4.408  -5.878   6.481  0.00  0.00    -0.371 OA
ATOM     35  H   UNL     1       4.229  -6.750   6.104  0.00  0.00    +0.212 HD
ENDBRANCH  23  34
ENDBRANCH   4  23
TORSDOF 10
