REMARK  Name = ZINC04473685
REMARK  13 active torsions:
REMARK  status: ('A' for Active; 'I' for Inactive)
REMARK    1  A    between atoms: C_1  and  C_2
REMARK    2  A    between atoms: C_2  and  C_4
REMARK    3  A    between atoms: C_2  and  N_10
REMARK    4  A    between atoms: C_15  and  C_17
REMARK    5  A    between atoms: C_15  and  C_25
REMARK    6  A    between atoms: C_15  and  N_63
REMARK    7  A    between atoms: C_17  and  O_18
REMARK    8  A    between atoms: O_18  and  C_19
REMARK    9  A    between atoms: C_25  and  C_26
REMARK   10  A    between atoms: C_25  and  C_27
REMARK   11  A    between atoms: C_25  and  C_28
REMARK   12  A    between atoms: C_29  and  C_30
REMARK   13  A    between atoms: C_29  and  C_31
REMARK                            x       y       z     vdW  Elec       q    Type
REMARK                         _______ _______ _______ _____ _____    ______ ____
ROOT
ATOM      1  N   UNL     1      -0.675  -4.107   3.200  0.00  0.00    -0.294 N 
ATOM      2  C   UNL     1      -0.987  -3.100   4.034  0.00  0.00    +0.139 C 
ATOM      3  S   UNL     1      -1.823  -3.317   5.512  0.00  0.00    -0.018 S 
ATOM      4  N   UNL     1      -0.568  -1.910   3.586  0.00  0.00    -0.285 N 
ATOM      5  C   UNL     1       0.070  -2.036   2.373  0.00  0.00    +0.097 C 
ATOM      6  C   UNL     1       0.034  -3.517   2.053  0.00  0.00    +0.085 C 
ATOM      7  C   UNL     1      -0.738  -3.769   0.756  0.00  0.00    +0.039 C 
ATOM      8  C   UNL     1       1.454  -4.079   1.952  0.00  0.00    +0.039 C 
ATOM      9  H   UNL     1      -0.699  -1.070   4.054  0.00  0.00    +0.155 HD
ATOM     10  N   UNL     1       0.623  -1.110   1.600  0.00  0.00    -0.368 N 
ATOM     11  H   UNL     1       1.069  -1.379   0.715  0.00  0.00    +0.161 HD
ENDROOT
BRANCH   1  13
ATOM     12  C   UNL     1      -1.528  -5.738   4.810  0.00  0.00    +0.033 C 
ATOM     13  C   UNL     1      -0.983  -5.526   3.397  0.00  0.00    +0.103 C 
BRANCH  13  14
ATOM     14  C   UNL     1      -2.016  -5.960   2.389  0.00  0.00    -0.027 A 
ATOM     15  C   UNL     1      -3.116  -5.162   2.140  0.00  0.00    +0.005 A 
ATOM     16  C   UNL     1      -4.062  -5.558   1.212  0.00  0.00    +0.000 A 
ATOM     17  C   UNL     1      -3.911  -6.757   0.541  0.00  0.00    +0.000 A 
ATOM     18  C   UNL     1      -2.813  -7.557   0.793  0.00  0.00    +0.000 A 
ATOM     19  C   UNL     1      -1.865  -7.159   1.718  0.00  0.00    +0.005 A 
ENDBRANCH  13  14
ENDBRANCH   1  13
BRANCH  10  20
ATOM     20  C   UNL     1       0.598   0.333   2.021  0.00  0.00    +0.123 C 
BRANCH  20  21
ATOM     21  C   UNL     1      -0.134   1.135   0.943  0.00  0.00    -0.014 C 
ATOM     22  C   UNL     1       0.479   0.828  -0.425  0.00  0.00    +0.013 C 
ATOM     23  C   UNL     1       0.003   2.630   1.238  0.00  0.00    +0.013 C 
ATOM     24  C   UNL     1      -1.614   0.750   0.937  0.00  0.00    +0.013 C 
ENDBRANCH  20  21
BRANCH  20  25
ATOM     25  C   UNL     1       2.042   0.827   2.131  0.00  0.00    +0.254 C 
BRANCH  25  26
ATOM     26  O   UNL     1       2.685   0.709   0.860  0.00  0.00    -0.490 OA
BRANCH  26  27
ATOM     27  C   UNL     1       3.982   1.108   0.785  0.00  0.00    +0.121 A 
ATOM     28  C   UNL     1       4.621   1.607   1.910  0.00  0.00    +0.045 A 
ATOM     29  C   UNL     1       5.941   2.007   1.833  0.00  0.00    +0.004 A 
ATOM     30  C   UNL     1       6.622   1.919   0.632  0.00  0.00    +0.000 A 
ATOM     31  C   UNL     1       5.985   1.427  -0.492  0.00  0.00    +0.004 A 
ATOM     32  C   UNL     1       4.667   1.021  -0.418  0.00  0.00    +0.045 A 
ENDBRANCH  26  27
ENDBRANCH  25  26
ENDBRANCH  20  25
ENDBRANCH  10  20
TORSDOF 7
