REMARK  Name = ZINC41025557
REMARK  6 active torsions:
REMARK  status: ('A' for Active; 'I' for Inactive)
REMARK    1  A    between atoms: C_1  and  C_2
REMARK    2  A    between atoms: C_5  and  C_8
REMARK    3  A    between atoms: C_10  and  C_13
REMARK    4  A    between atoms: N_15  and  C_16
REMARK    5  A    between atoms: C_18  and  C_29
REMARK    6  A    between atoms: N_20  and  C_21
REMARK                            x       y       z     vdW  Elec       q    Type
REMARK                         _______ _______ _______ _____ _____    ______ ____
ROOT
ATOM      1  C   UNL     1       0.135  -9.944   1.796  0.00  0.00    +0.124 A 
ATOM      2  C   UNL     1       0.129  -9.959   3.156  0.00  0.00    +0.073 A 
ATOM      3  C   UNL     1       0.148 -11.303   3.571  0.00  0.00    +0.095 A 
ATOM      4  N   UNL     1       0.165 -12.064   2.497  0.00  0.00    -0.169 NA
ATOM      5  N   UNL     1       0.152 -11.234   1.369  0.00  0.00    -0.245 N 
ENDROOT
BRANCH   5   6
ATOM      6  C   UNL     1       0.158 -11.678  -0.027  0.00  0.00    +0.132 C 
ATOM      7  C   UNL     1      -1.066 -12.569  -0.294  0.00  0.00    +0.051 C 
ATOM      8  C   UNL     1      -0.904 -13.296  -1.651  0.00  0.00    +0.168 C 
ATOM      9  S   UNL     1       0.923 -13.424  -1.825  0.00  0.00    -0.029 S 
ATOM     10  O   UNL     1       1.305 -14.787  -1.702  0.00  0.00    -0.174 OA
ATOM     11  O   UNL     1       1.331 -12.683  -2.967  0.00  0.00    -0.174 OA
ATOM     12  C   UNL     1       1.438 -12.517  -0.306  0.00  0.00    +0.192 C 
ENDBRANCH   5   6
BRANCH   3  13
ATOM     13  C   UNL     1       0.150 -11.781   4.976  0.00  0.00    +0.002 A 
ATOM     14  C   UNL     1       0.126 -10.864   6.025  0.00  0.00    +0.011 A 
ATOM     15  C   UNL     1       0.127 -11.313   7.330  0.00  0.00    +0.020 A 
ATOM     16  C   UNL     1       0.154 -12.671   7.598  0.00  0.00    +0.041 A 
ATOM     17  C   UNL     1       0.179 -13.585   6.558  0.00  0.00    +0.020 A 
ATOM     18  C   UNL     1       0.171 -13.147   5.250  0.00  0.00    +0.011 A 
ATOM     19 CL   UNL     1       0.157 -13.230   9.241  0.00  0.00    -0.084 Cl
ENDBRANCH   3  13
BRANCH   1  22
ATOM     20  C   UNL     1       0.103  -7.583   1.545  0.00  0.00    +0.287 C 
ATOM     21  O   UNL     1       0.102  -7.466   2.756  0.00  0.00    -0.266 OA
ATOM     22  N   UNL     1       0.119  -8.810   0.987  0.00  0.00    -0.264 N 
ATOM     23  H   UNL     1       0.121  -8.903   0.021  0.00  0.00    +0.157 HD
BRANCH  20  26
ATOM     24  C   UNL     1       0.059  -4.256  -0.021  0.00  0.00    +0.114 A 
ATOM     25  C   UNL     1       0.070  -5.094   1.118  0.00  0.00    +0.086 A 
ATOM     26  C   UNL     1       0.087  -6.383   0.689  0.00  0.00    +0.222 A 
ATOM     27  O   UNL     1       0.087  -6.371  -0.659  0.00  0.00    -0.349 OA
ATOM     28  N   UNL     1       0.064  -5.021  -1.086  0.00  0.00    -0.077 NA
BRANCH  24  33
ATOM     29  C   UNL     1      -0.018   1.503   0.010  0.00  0.00    +0.044 C 
ATOM     30  C   UNL     1       0.002  -0.004   0.002  0.00  0.00    -0.050 A 
ATOM     31  C   UNL     1       0.006  -0.687  -1.201  0.00  0.00    +0.004 A 
ATOM     32  C   UNL     1       0.024  -2.067  -1.214  0.00  0.00    +0.010 A 
ATOM     33  C   UNL     1       0.040  -2.772  -0.013  0.00  0.00    +0.004 A 
ATOM     34  C   UNL     1       0.036  -2.080   1.196  0.00  0.00    +0.010 A 
ATOM     35  C   UNL     1       0.023  -0.700   1.198  0.00  0.00    +0.004 A 
ENDBRANCH  24  33
ENDBRANCH  20  26
ENDBRANCH   1  22
TORSDOF 5
