REMARK  Name = ZINC40612243
REMARK  6 active torsions:
REMARK  status: ('A' for Active; 'I' for Inactive)
REMARK    1  A    between atoms: C_1  and  C_2
REMARK    2  A    between atoms: C_10  and  N_29
REMARK    3  A    between atoms: C_11  and  N_15
REMARK    4  A    between atoms: N_15  and  N_16
REMARK    5  A    between atoms: N_16  and  C_17
REMARK    6  A    between atoms: N_16  and  C_23
REMARK                            x       y       z     vdW  Elec       q    Type
REMARK                         _______ _______ _______ _____ _____    ______ ____
ROOT
ATOM      1  C   UNL     1       3.726   2.371   3.212  0.00  0.00    +0.009 C 
ATOM      2  C   UNL     1       4.136   1.325   2.173  0.00  0.00    +0.003 C 
ATOM      3  C   UNL     1       3.737   1.809   0.777  0.00  0.00    +0.006 C 
ATOM      4  C   UNL     1       4.177   0.779  -0.267  0.00  0.00    +0.019 C 
ATOM      5  C   UNL     1       3.467  -0.551   0.005  0.00  0.00    +0.106 C 
ATOM      6  N   UNL     1       3.728  -0.951   1.395  0.00  0.00    -0.313 N 
ATOM      7  C   UNL     1       3.428   0.001   2.473  0.00  0.00    +0.109 C 
ATOM      8  C   UNL     1       4.249  -2.203   1.683  0.00  0.00    +0.157 A 
ATOM      9  C   UNL     1       3.411  -3.309   1.786  0.00  0.00    +0.207 A 
ATOM     10  C   UNL     1       3.982  -4.544   2.078  0.00  0.00    +0.171 A 
ATOM     11  N   UNL     1       5.301  -4.622   2.247  0.00  0.00    -0.217 NA
ATOM     12  C   UNL     1       6.061  -3.551   2.142  0.00  0.00    +0.225 A 
ATOM     13  N   UNL     1       5.559  -2.366   1.862  0.00  0.00    -0.218 NA
ENDROOT
BRANCH   9  14
ATOM     14  N   UNL     1       1.950  -3.176   1.589  0.00  0.00    +0.063 N 
ATOM     15  O   UNL     1       1.483  -3.224   0.475  0.00  0.00    -0.126 OA
ATOM     16  O   UNL     1       1.224  -3.020   2.543  0.00  0.00    -0.126 OA
ENDBRANCH   9  14
BRANCH  10  17
ATOM     17  N   UNL     1       3.191  -5.676   2.190  0.00  0.00    -0.242 N 
ATOM     18  H   UNL     1       2.231  -5.612   2.066  0.00  0.00    +0.172 HD
BRANCH  17  19
ATOM     19  N   UNL     1       3.777  -6.915   2.485  0.00  0.00    -0.221 N 
BRANCH  19  20
ATOM     20  C   UNL     1       3.652  -7.460   3.765  0.00  0.00    +0.053 A 
ATOM     21  C   UNL     1       3.117  -6.699   4.797  0.00  0.00    +0.025 A 
ATOM     22  C   UNL     1       2.996  -7.240   6.061  0.00  0.00    +0.002 A 
ATOM     23  C   UNL     1       3.406  -8.539   6.301  0.00  0.00    +0.000 A 
ATOM     24  C   UNL     1       3.939  -9.300   5.276  0.00  0.00    +0.002 A 
ATOM     25  C   UNL     1       4.058  -8.766   4.008  0.00  0.00    +0.025 A 
ENDBRANCH  19  20
BRANCH  19  26
ATOM     26  C   UNL     1       4.485  -7.604   1.498  0.00  0.00    +0.053 A 
ATOM     27  C   UNL     1       3.886  -7.881   0.275  0.00  0.00    +0.025 A 
ATOM     28  C   UNL     1       4.589  -8.563  -0.698  0.00  0.00    +0.002 A 
ATOM     29  C   UNL     1       5.889  -8.970  -0.457  0.00  0.00    +0.000 A 
ATOM     30  C   UNL     1       6.489  -8.695   0.758  0.00  0.00    +0.002 A 
ATOM     31  C   UNL     1       5.793  -8.009   1.734  0.00  0.00    +0.025 A 
ENDBRANCH  19  26
ENDBRANCH  17  19
ENDBRANCH  10  17
TORSDOF 5
