REMARK  Name = ZINC15513421
REMARK  7 active torsions:
REMARK  status: ('A' for Active; 'I' for Inactive)
REMARK    1  A    between atoms: C_1  and  C_2
REMARK    2  A    between atoms: C_6  and  N_9
REMARK    3  A    between atoms: C_7  and  C_8
REMARK    4  A    between atoms: C_10  and  S_14
REMARK    5  A    between atoms: S_14  and  C_15
REMARK    6  A    between atoms: C_15  and  C_16
REMARK    7  A    between atoms: C_29  and  C_31
REMARK                            x       y       z     vdW  Elec       q    Type
REMARK                         _______ _______ _______ _____ _____    ______ ____
ROOT
ATOM      1  C   UNL     1       1.465  -4.191   0.465  0.00  0.00    +0.230 C 
ATOM      2  O   UNL     1       0.260  -4.059   0.508  0.00  0.00    -0.274 OA
ATOM      3  N   UNL     1       2.012  -5.420   0.536  0.00  0.00    -0.266 N 
ATOM      4  C   UNL     1       3.403  -5.587   0.487  0.00  0.00    +0.058 A 
ATOM      5  C   UNL     1       4.197  -5.218   1.561  0.00  0.00    +0.025 A 
ATOM      6  C   UNL     1       5.565  -5.411   1.503  0.00  0.00    +0.002 A 
ATOM      7  C   UNL     1       6.143  -5.971   0.379  0.00  0.00    +0.002 A 
ATOM      8  C   UNL     1       5.359  -6.334  -0.701  0.00  0.00    +0.025 A 
ATOM      9  C   UNL     1       3.989  -6.134  -0.655  0.00  0.00    +0.055 A 
ATOM     10  N   UNL     1       3.182  -6.441  -1.756  0.00  0.00    -0.284 N 
ATOM     11  C   UNL     1       2.046  -7.155  -1.595  0.00  0.00    +0.219 C 
ATOM     12  O   UNL     1       1.313  -7.343  -2.543  0.00  0.00    -0.275 OA
ATOM     13  C   UNL     1       1.684  -7.718  -0.247  0.00  0.00    +0.118 C 
ATOM     14  C   UNL     1       1.164  -6.606   0.671  0.00  0.00    +0.087 C 
ATOM     15  C   UNL     1       1.190  -7.087   2.124  0.00  0.00    +0.029 C 
ATOM     16  H   UNL     1       3.439  -6.140  -2.641  0.00  0.00    +0.155 HD
ENDROOT
BRANCH   1  17
ATOM     17  C   UNL     1       2.351  -2.978   0.332  0.00  0.00    +0.173 C 
BRANCH  17  18
ATOM     18  S   UNL     1       1.327  -1.488   0.262  0.00  0.00    -0.075 S 
BRANCH  18  20
ATOM     19  N   UNL     1       2.394   1.085   0.016  0.00  0.00    -0.187 N 
ATOM     20  C   UNL     1       2.582  -0.261   0.112  0.00  0.00    +0.214 A 
ATOM     21  N   UNL     1       3.881  -0.470   0.071  0.00  0.00    -0.101 NA
ATOM     22  N   UNL     1       4.513   0.642  -0.042  0.00  0.00    -0.022 NA
ATOM     23  N   UNL     1       3.686   1.629  -0.089  0.00  0.00    -0.038 NA
BRANCH  19  29
ATOM     24  C   UNL     1      -0.386   4.766   1.724  0.00  0.00    +0.044 C 
ATOM     25  C   UNL     1      -0.199   3.564   0.834  0.00  0.00    -0.046 A 
ATOM     26  C   UNL     1      -1.232   3.143   0.015  0.00  0.00    +0.004 A 
ATOM     27  C   UNL     1      -1.062   2.045  -0.807  0.00  0.00    +0.002 A 
ATOM     28  C   UNL     1       0.136   1.357  -0.805  0.00  0.00    +0.028 A 
ATOM     29  C   UNL     1       1.174   1.777   0.016  0.00  0.00    +0.073 A 
ATOM     30  C   UNL     1       1.003   2.884   0.837  0.00  0.00    -0.022 A 
ATOM     31  C   UNL     1       2.127   3.343   1.729  0.00  0.00    +0.046 C 
ENDBRANCH  19  29
ENDBRANCH  18  20
ENDBRANCH  17  18
ENDBRANCH   1  17
TORSDOF 4
