REMARK  Name = ZINC20806382
REMARK  10 active torsions:
REMARK  status: ('A' for Active; 'I' for Inactive)
REMARK    1  A    between atoms: C_1  and  C_2
REMARK    2  A    between atoms: C_5  and  C_8
REMARK    3  A    between atoms: C_8  and  N_9
REMARK    4  A    between atoms: C_10  and  C_12
REMARK    5  A    between atoms: C_12  and  S_13
REMARK    6  A    between atoms: S_13  and  C_14
REMARK    7  A    between atoms: N_18  and  N_19
REMARK    8  A    between atoms: N_20  and  N_21
REMARK    9  A    between atoms: C_22  and  C_23
REMARK   10  A    between atoms: C_27  and  O_29
REMARK                            x       y       z     vdW  Elec       q    Type
REMARK                         _______ _______ _______ _____ _____    ______ ____
ROOT
ATOM      1  C   UNL     1      -3.953   9.647   0.085  0.00  0.00    +0.210 A 
ATOM      2  N   UNL     1      -4.590   8.500   0.086  0.00  0.00    -0.119 NA
ATOM      3  N   UNL     1      -3.636   7.475   0.067  0.00  0.00    -0.109 NA
ATOM      4  C   UNL     1      -2.447   8.028   0.063  0.00  0.00    +0.254 A 
ATOM      5  N   UNL     1      -2.612   9.385   0.071  0.00  0.00    -0.211 N 
ATOM      6  N   UNL     1      -1.234   7.354   0.049  0.00  0.00    -0.204 N 
ATOM      7  H   UNL     1      -0.291   7.920   0.042  0.00  0.00    +0.177 HD
ENDROOT
BRANCH   5   8
ATOM      8  N   UNL     1      -1.613  10.316   0.066  0.00  0.00    -0.294 N 
ATOM      9  H   UNL     1      -0.561   9.993   0.055  0.00  0.00    +0.163 HD
ATOM     10  H   UNL     1      -1.859  11.388   0.073  0.00  0.00    +0.163 HD
ENDBRANCH   5   8
BRANCH   6  11
ATOM     11  N   UNL     1      -1.211   5.953   0.042  0.00  0.00    -0.188 NA
ATOM     12  C   UNL     1      -0.076   5.323   0.029  0.00  0.00    +0.138 C 
BRANCH  12  13
ATOM     13  C   UNL     1      -0.051   3.849   0.022  0.00  0.00    -0.002 A 
ATOM     14  C   UNL     1      -1.248   3.127   0.030  0.00  0.00    +0.010 A 
ATOM     15  C   UNL     1      -1.221   1.748   0.017  0.00  0.00    +0.004 A 
ATOM     16  C   UNL     1      -0.013   1.076   0.008  0.00  0.00    +0.045 A 
ATOM     17  C   UNL     1       1.182   1.784   0.000  0.00  0.00    +0.117 A 
ATOM     18  C   UNL     1       1.167   3.168   0.007  0.00  0.00    +0.054 A 
BRANCH  17  19
ATOM     19  O   UNL     1       2.366   1.117  -0.014  0.00  0.00    -0.507 OA
ATOM     20  H   UNL     1       3.313   1.677  -0.020  0.00  0.00    +0.292 HD
ENDBRANCH  17  19
ENDBRANCH  12  13
ENDBRANCH   6  11
BRANCH   1  21
ATOM     21  S   UNL     1      -4.696  11.245   0.098  0.00  0.00    -0.075 S 
BRANCH  21  22
ATOM     22  C   UNL     1      -6.477  10.900   0.113  0.00  0.00    +0.173 C 
BRANCH  22  24
ATOM     23  N   UNL     1      -8.587  12.190   0.138  0.00  0.00    -0.311 N 
ATOM     24  C   UNL     1      -7.240  12.200   0.126  0.00  0.00    +0.224 C 
ATOM     25  O   UNL     1      -6.641  13.255   0.124  0.00  0.00    -0.275 OA
ATOM     26  H   UNL     1      -9.130  11.234   0.140  0.00  0.00    +0.149 HD
BRANCH  23  27
ATOM     27  C   UNL     1      -9.329  13.454   0.150  0.00  0.00    +0.139 C 
BRANCH  27  32
ATOM     28  C   UNL     1     -15.002  12.358   0.200  0.00  0.00    +0.044 C 
ATOM     29  C   UNL     1     -13.523  12.644   0.187  0.00  0.00    -0.050 A 
ATOM     30  C   UNL     1     -12.833  12.769   1.378  0.00  0.00    +0.003 A 
ATOM     31  C   UNL     1     -11.476  13.032   1.366  0.00  0.00    +0.005 A 
ATOM     32  C   UNL     1     -10.808  13.168   0.163  0.00  0.00    -0.030 A 
ATOM     33  C   UNL     1     -11.499  13.047  -1.028  0.00  0.00    +0.005 A 
ATOM     34  C   UNL     1     -12.856  12.780  -1.016  0.00  0.00    +0.003 A 
ENDBRANCH  27  32
ENDBRANCH  23  27
ENDBRANCH  22  24
ENDBRANCH  21  22
ENDBRANCH   1  21
TORSDOF 9
