REMARK  Name = ZINC01939635
REMARK  10 active torsions:
REMARK  status: ('A' for Active; 'I' for Inactive)
REMARK    1  A    between atoms: C_1  and  C_2
REMARK    2  A    between atoms: C_2  and  C_3
REMARK    3  A    between atoms: C_3  and  C_5
REMARK    4  A    between atoms: C_3  and  O_6
REMARK    5  A    between atoms: O_6  and  C_7
REMARK    6  A    between atoms: C_7  and  C_9
REMARK    7  A    between atoms: C_9  and  C_11
REMARK    8  A    between atoms: C_9  and  N_12
REMARK    9  A    between atoms: C_19  and  C_22
REMARK   10  A    between atoms: C_25  and  C_28
REMARK                            x       y       z     vdW  Elec       q    Type
REMARK                         _______ _______ _______ _____ _____    ______ ____
ROOT
ATOM      1  N   UNL     1      -0.698   1.558   1.213  0.00  0.00    -0.285 N 
ATOM      2  C   UNL     1      -0.826   2.893   1.426  0.00  0.00    +0.204 A 
ATOM      3  N   UNL     1      -1.436   3.352   2.486  0.00  0.00    -0.230 NA
ATOM      4  C   UNL     1      -1.942   2.526   3.398  0.00  0.00    +0.116 A 
ATOM      5  C   UNL     1      -1.853   1.131   3.266  0.00  0.00    +0.080 A 
ATOM      6  C   UNL     1      -1.184   0.661   2.091  0.00  0.00    +0.263 A 
ATOM      7  O   UNL     1      -1.058  -0.535   1.887  0.00  0.00    -0.267 OA
ATOM      8  C   UNL     1      -2.458   0.367   4.351  0.00  0.00    +0.004 A 
ATOM      9  C   UNL     1      -3.043   1.039   5.372  0.00  0.00    +0.056 A 
ATOM     10  S   UNL     1      -2.810   2.749   4.929  0.00  0.00    -0.076 S 
ENDROOT
BRANCH   8  11
ATOM     11  C   UNL     1      -2.434  -1.115   4.336  0.00  0.00    -0.017 A 
ATOM     12  C   UNL     1      -2.851  -1.810   3.202  0.00  0.00    +0.009 A 
ATOM     13  C   UNL     1      -2.821  -3.190   3.193  0.00  0.00    +0.004 A 
ATOM     14  C   UNL     1      -2.389  -3.883   4.310  0.00  0.00    -0.050 A 
ATOM     15  C   UNL     1      -1.980  -3.198   5.440  0.00  0.00    +0.004 A 
ATOM     16  C   UNL     1      -2.000  -1.818   5.459  0.00  0.00    +0.009 A 
ATOM     17  C   UNL     1      -2.365  -5.389   4.295  0.00  0.00    +0.044 C 
ENDBRANCH   8  11
BRANCH   1  18
ATOM     18  C   UNL     1      -0.013   1.086   0.008  0.00  0.00    +0.197 C 
ATOM     19  C   UNL     1      -0.753   1.593  -1.232  0.00  0.00    +0.043 C 
BRANCH  18  20
ATOM     20  C   UNL     1       1.401   1.607  -0.003  0.00  0.00    +0.330 C 
ATOM     21  O   UNL     1       1.796   2.303   0.903  0.00  0.00    -0.248 OA
BRANCH  20  22
ATOM     22  O   UNL     1       2.222   1.300  -1.019  0.00  0.00    -0.460 OA
BRANCH  22  23
ATOM     23  C   UNL     1       3.570   1.837  -0.963  0.00  0.00    +0.173 C 
ATOM     24  C   UNL     1       4.483   0.850  -0.233  0.00  0.00    +0.052 C 
BRANCH  23  26
ATOM     25  C   UNL     1       3.253   3.136  -3.074  0.00  0.00    +0.007 C 
ATOM     26  C   UNL     1       4.091   2.057  -2.385  0.00  0.00    +0.041 C 
ENDBRANCH  23  26
ENDBRANCH  22  23
ENDBRANCH  20  22
ENDBRANCH  18  20
ENDBRANCH   1  18
TORSDOF 6
