REMARK  Name = ZINC39866049
REMARK  9 active torsions:
REMARK  status: ('A' for Active; 'I' for Inactive)
REMARK    1  A    between atoms: C_1  and  O_2
REMARK    2  A    between atoms: O_2  and  C_3
REMARK    3  A    between atoms: C_5  and  C_12
REMARK    4  A    between atoms: C_7  and  O_10
REMARK    5  A    between atoms: C_8  and  O_9
REMARK    6  A    between atoms: O_10  and  C_11
REMARK    7  A    between atoms: N_16  and  C_31
REMARK    8  A    between atoms: N_18  and  C_19
REMARK    9  A    between atoms: C_21  and  C_24
REMARK                            x       y       z     vdW  Elec       q    Type
REMARK                         _______ _______ _______ _____ _____    ______ ____
ROOT
ATOM      1  C   UNL     1       2.203   0.283  -4.308  0.00  0.00    +0.028 C 
ATOM      2  C   UNL     1       2.952  -0.289  -5.285  0.00  0.00    +0.078 C 
ATOM      3  C   UNL     1       3.764   0.350  -6.338  0.00  0.00    +0.259 C 
ATOM      4  O   UNL     1       3.842   1.561  -6.433  0.00  0.00    -0.269 OA
ATOM      5  N   UNL     1       4.403  -0.452  -7.173  0.00  0.00    -0.243 N 
ATOM      6  C   UNL     1       4.302  -1.819  -7.049  0.00  0.00    +0.171 C 
ATOM      7  N   UNL     1       4.866  -2.752  -7.788  0.00  0.00    -0.199 NA
ATOM      8  S   UNL     1       3.227  -2.019  -5.638  0.00  0.00    -0.049 S 
ENDROOT
BRANCH   1  11
ATOM      9  C   UNL     1       1.572  -2.608  -2.001  0.00  0.00    +0.166 A 
ATOM     10  C   UNL     1       2.129  -1.828  -2.997  0.00  0.00    +0.057 A 
ATOM     11  C   UNL     1       1.615  -0.550  -3.251  0.00  0.00    -0.017 A 
ATOM     12  C   UNL     1       0.539  -0.069  -2.495  0.00  0.00    +0.057 A 
ATOM     13  C   UNL     1      -0.011  -0.856  -1.502  0.00  0.00    +0.166 A 
ATOM     14  C   UNL     1       0.499  -2.128  -1.255  0.00  0.00    +0.201 A 
BRANCH   9  16
ATOM     15  C   UNL     1       3.172  -4.279  -2.556  0.00  0.00    +0.277 C 
ATOM     16  O   UNL     1       2.070  -3.849  -1.754  0.00  0.00    -0.491 OA
ENDBRANCH   9  16
BRANCH  14  17
ATOM     17  O   UNL     1      -0.049  -2.901  -0.281  0.00  0.00    -0.501 OA
ATOM     18  H   UNL     1       0.355  -2.782   0.590  0.00  0.00    +0.292 HD
ENDBRANCH  14  17
BRANCH  13  19
ATOM     19  O   UNL     1      -1.056  -0.389  -0.766  0.00  0.00    -0.491 OA
ATOM     20  C   UNL     1      -1.533   0.922  -1.076  0.00  0.00    +0.277 C 
ENDBRANCH  13  19
ENDBRANCH   1  11
BRANCH   5  21
ATOM     21  C   UNL     1       5.226   0.121  -8.241  0.00  0.00    +0.084 C 
ATOM     22  C   UNL     1       6.410   0.870  -7.627  0.00  0.00    +0.023 C 
ATOM     23  C   UNL     1       7.270   1.467  -8.742  0.00  0.00    +0.002 C 
ATOM     24  C   UNL     1       6.427   2.438  -9.571  0.00  0.00    +0.000 C 
ATOM     25  C   UNL     1       5.242   1.690 -10.185  0.00  0.00    +0.002 C 
ATOM     26  C   UNL     1       4.383   1.092  -9.070  0.00  0.00    +0.023 C 
ENDBRANCH   5  21
BRANCH   7  27
ATOM     27  C   UNL     1       5.530  -2.411  -8.922  0.00  0.00    +0.195 A 
ATOM     28  N   UNL     1       6.830  -2.223  -9.110  0.00  0.00    -0.221 NA
ATOM     29  C   UNL     1       7.308  -1.890 -10.299  0.00  0.00    +0.080 A 
ATOM     30  C   UNL     1       6.447  -1.737 -11.351  0.00  0.00    +0.077 A 
ATOM     31  S   UNL     1       4.885  -2.102 -10.561  0.00  0.00    -0.056 S 
BRANCH  29  32
ATOM     32  C   UNL     1       8.764  -1.685 -10.488  0.00  0.00    +0.001 A 
ATOM     33  C   UNL     1       9.264  -1.328 -11.740  0.00  0.00    +0.010 A 
ATOM     34  C   UNL     1      10.620  -1.138 -11.911  0.00  0.00    +0.001 A 
ATOM     35  C   UNL     1      11.483  -1.301 -10.842  0.00  0.00    +0.000 A 
ATOM     36  C   UNL     1      10.994  -1.655  -9.598  0.00  0.00    +0.001 A 
ATOM     37  C   UNL     1       9.639  -1.842  -9.414  0.00  0.00    +0.010 A 
ENDBRANCH  29  32
ENDBRANCH   7  27
TORSDOF 7
