REMARK  Name = ZINC36303553
REMARK  17 active torsions:
REMARK  status: ('A' for Active; 'I' for Inactive)
REMARK    1  A    between atoms: C_1  and  C_2
REMARK    2  A    between atoms: C_3  and  C_21
REMARK    3  A    between atoms: C_4  and  O_13
REMARK    4  A    between atoms: N_5  and  C_7
REMARK    5  A    between atoms: O_13  and  C_14
REMARK    6  A    between atoms: C_21  and  N_22
REMARK    7  A    between atoms: N_22  and  C_23
REMARK    8  A    between atoms: N_22  and  C_30
REMARK    9  A    between atoms: C_23  and  C_24
REMARK   10  A    between atoms: C_30  and  C_31
REMARK   11  A    between atoms: C_31  and  C_33
REMARK   12  A    between atoms: C_31  and  O_39
REMARK   13  A    between atoms: C_33  and  O_34
REMARK   14  A    between atoms: O_34  and  C_35
REMARK   15  A    between atoms: C_35  and  C_36
REMARK   16  A    between atoms: C_35  and  C_37
REMARK   17  A    between atoms: C_35  and  C_38
REMARK                            x       y       z     vdW  Elec       q    Type
REMARK                         _______ _______ _______ _____ _____    ______ ____
ROOT
ATOM      1  C   UNL     1       0.416  -3.720  -2.027  0.00  0.00    +0.068 C 
ATOM      2  C   UNL     1      -0.688  -2.947  -2.702  0.00  0.00    +0.065 A 
ATOM      3  C   UNL     1      -0.823  -1.555  -2.712  0.00  0.00    +0.021 A 
ATOM      4  C   UNL     1      -1.940  -1.250  -3.424  0.00  0.00    +0.225 A 
ATOM      5  N   UNL     1      -2.488  -2.420  -3.847  0.00  0.00    -0.200 N 
ATOM      6  N   UNL     1      -1.678  -3.464  -3.383  0.00  0.00    -0.168 NA
ENDROOT
BRANCH   5   7
ATOM      7  C   UNL     1      -3.653  -2.557  -4.614  0.00  0.00    +0.069 A 
ATOM      8  C   UNL     1      -4.771  -1.786  -4.325  0.00  0.00    +0.028 A 
ATOM      9  C   UNL     1      -5.917  -1.923  -5.084  0.00  0.00    +0.002 A 
ATOM     10  C   UNL     1      -5.952  -2.827  -6.130  0.00  0.00    +0.000 A 
ATOM     11  C   UNL     1      -4.841  -3.596  -6.420  0.00  0.00    +0.002 A 
ATOM     12  C   UNL     1      -3.690  -3.460  -5.669  0.00  0.00    +0.028 A 
ENDBRANCH   5   7
BRANCH   4  13
ATOM     13  O   UNL     1      -2.422  -0.004  -3.667  0.00  0.00    -0.436 OA
BRANCH  13  14
ATOM     14  C   UNL     1      -3.241   0.556  -2.738  0.00  0.00    +0.149 A 
ATOM     15  C   UNL     1      -3.476  -0.095  -1.536  0.00  0.00    +0.048 A 
ATOM     16  C   UNL     1      -4.309   0.476  -0.594  0.00  0.00    +0.004 A 
ATOM     17  C   UNL     1      -4.910   1.695  -0.847  0.00  0.00    +0.002 A 
ATOM     18  C   UNL     1      -4.678   2.347  -2.045  0.00  0.00    +0.024 A 
ATOM     19  C   UNL     1      -3.841   1.783  -2.989  0.00  0.00    +0.083 A 
ATOM     20 CL   UNL     1      -3.544   2.605  -4.489  0.00  0.00    -0.080 Cl
ENDBRANCH  13  14
ENDBRANCH   4  13
BRANCH   3  21
ATOM     21  C   UNL     1       0.105  -0.569  -2.050  0.00  0.00    -0.036 C 
BRANCH  21  22
ATOM     22  N   UNL     1       1.244  -0.298  -2.937  0.00  0.00    +0.386 N 
ATOM     23  H   UNL     1       1.665  -1.170  -3.221  0.00  0.00    -0.081 HD
BRANCH  22  24
ATOM     24  C   UNL     1       2.238   0.515  -2.223  0.00  0.00    -0.046 C 
BRANCH  24  25
ATOM     25  C   UNL     1       1.654   1.901  -1.940  0.00  0.00    +0.102 C 
ATOM     26  C   UNL     1       2.728   2.798  -1.288  0.00  0.00    +0.032 C 
ATOM     27  C   UNL     1       1.905   3.581  -0.229  0.00  0.00    +0.030 C 
ATOM     28  C   UNL     1       0.868   2.508   0.190  0.00  0.00    +0.160 C 
ATOM     29  O   UNL     1       0.563   1.789  -1.018  0.00  0.00    -0.378 OA
ENDBRANCH  24  25
ENDBRANCH  22  24
BRANCH  22  30
ATOM     30  C   UNL     1       0.778   0.430  -4.125  0.00  0.00    -0.044 C 
BRANCH  30  31
ATOM     31  C   UNL     1       1.930   0.572  -5.121  0.00  0.00    +0.124 C 
BRANCH  31  32
ATOM     32  O   UNL     1       2.895   1.492  -4.606  0.00  0.00    -0.391 OA
ATOM     33  H   UNL     1       2.545   2.379  -4.446  0.00  0.00    +0.210 HD
ENDBRANCH  31  32
BRANCH  31  34
ATOM     34  C   UNL     1       1.390   1.093  -6.455  0.00  0.00    +0.189 C 
BRANCH  34  35
ATOM     35  O   UNL     1       2.444   1.115  -7.419  0.00  0.00    -0.372 OA
BRANCH  35  36
ATOM     36  C   UNL     1       2.043   1.588  -8.707  0.00  0.00    +0.061 C 
ATOM     37  C   UNL     1       1.515   3.019  -8.583  0.00  0.00    +0.041 C 
ATOM     38  C   UNL     1       3.245   1.569  -9.654  0.00  0.00    +0.041 C 
ATOM     39  C   UNL     1       0.942   0.684  -9.263  0.00  0.00    +0.041 C 
ENDBRANCH  35  36
ENDBRANCH  34  35
ENDBRANCH  31  34
ENDBRANCH  30  31
ENDBRANCH  22  30
ENDBRANCH  21  22
ENDBRANCH   3  21
TORSDOF 13
