REMARK  Name = ZINC44658341
REMARK  7 active torsions:
REMARK  status: ('A' for Active; 'I' for Inactive)
REMARK    1  A    between atoms: C_1  and  C_2
REMARK    2  A    between atoms: C_2  and  C_4
REMARK    3  A    between atoms: C_2  and  S_11
REMARK    4  A    between atoms: N_9  and  C_10
REMARK    5  A    between atoms: S_11  and  C_12
REMARK    6  A    between atoms: C_16  and  C_25
REMARK    7  A    between atoms: N_17  and  C_18
REMARK                            x       y       z     vdW  Elec       q    Type
REMARK                         _______ _______ _______ _____ _____    ______ ____
ROOT
ATOM      1  C   UNL     1       2.171   0.090  -1.080  0.00  0.00    +0.242 C 
ATOM      2  N   UNL     1       2.447   1.526  -0.906  0.00  0.00    -0.237 N 
ATOM      3  N   UNL     1       3.431   1.624   0.086  0.00  0.00    -0.169 NA
ATOM      4  C   UNL     1       3.780   0.444   0.527  0.00  0.00    +0.151 C 
ATOM      5  N   UNL     1       3.069  -0.574  -0.122  0.00  0.00    -0.254 N 
ATOM      6  H   UNL     1       2.030   2.260  -1.384  0.00  0.00    +0.171 HD
ENDROOT
BRANCH   4   7
ATOM      7  C   UNL     1       4.744   0.224   1.522  0.00  0.00    +0.022 C 
ATOM      8  C   UNL     1       5.557   1.179   2.134  0.00  0.00    +0.006 A 
ATOM      9  C   UNL     1       5.675   2.576   1.971  0.00  0.00    +0.010 A 
ATOM     10  C   UNL     1       6.573   3.267   2.719  0.00  0.00    +0.001 A 
ATOM     11  C   UNL     1       7.391   2.630   3.654  0.00  0.00    +0.002 A 
ATOM     12  C   UNL     1       7.331   1.291   3.863  0.00  0.00    +0.026 A 
ATOM     13  C   UNL     1       6.417   0.502   3.118  0.00  0.00    +0.043 A 
ATOM     14  N   UNL     1       6.170  -0.793   3.133  0.00  0.00    -0.380 N 
ATOM     15  C   UNL     1       5.115  -1.096   2.161  0.00  0.00    +0.152 C 
ATOM     16  H   UNL     1       6.613  -1.443   3.701  0.00  0.00    +0.160 HD
ENDBRANCH   4   7
BRANCH   5  17
ATOM     17  C   UNL     1       3.187  -1.949   0.097  0.00  0.00    +0.038 A 
ATOM     18  C   UNL     1       2.452  -2.559   1.106  0.00  0.00    +0.025 A 
ATOM     19  C   UNL     1       2.571  -3.918   1.320  0.00  0.00    +0.022 A 
ATOM     20  C   UNL     1       3.421  -4.673   0.531  0.00  0.00    +0.041 A 
ATOM     21  C   UNL     1       4.155  -4.068  -0.474  0.00  0.00    +0.022 A 
ATOM     22  C   UNL     1       4.036  -2.710  -0.697  0.00  0.00    +0.025 A 
ATOM     23 CL   UNL     1       3.568  -6.381   0.803  0.00  0.00    -0.084 Cl
ENDBRANCH   5  17
BRANCH   1  24
ATOM     24  S   UNL     1       0.439  -0.275  -0.685  0.00  0.00    -0.105 S 
BRANCH  24  26
ATOM     25  C   UNL     1       0.417   1.845   1.044  0.00  0.00    +0.029 C 
ATOM     26  C   UNL     1       0.241   0.326   1.016  0.00  0.00    +0.133 C 
BRANCH  26  27
ATOM     27  C   UNL     1      -1.135  -0.030   1.517  0.00  0.00    +0.233 C 
ATOM     28  O   UNL     1      -2.019  -0.289   0.729  0.00  0.00    -0.274 OA
ATOM     29  N   UNL     1      -1.383  -0.059   2.841  0.00  0.00    -0.239 N 
ATOM     30  C   UNL     1      -2.614  -0.377   3.290  0.00  0.00    +0.306 C 
ATOM     31  O   UNL     1      -3.500  -0.637   2.500  0.00  0.00    -0.252 OA
ATOM     32  N   UNL     1      -2.862  -0.407   4.614  0.00  0.00    -0.302 N 
ATOM     33  C   UNL     1      -4.199  -0.752   5.101  0.00  0.00    +0.129 C 
ATOM     34  H   UNL     1      -0.676   0.148   3.472  0.00  0.00    +0.159 HD
ATOM     35  H   UNL     1      -2.155  -0.199   5.245  0.00  0.00    +0.150 HD
ENDBRANCH  26  27
ENDBRANCH  24  26
ENDBRANCH   1  24
TORSDOF 5
