REMARK  Name = ZINC09614128
REMARK  4 active torsions:
REMARK  status: ('A' for Active; 'I' for Inactive)
REMARK    1  A    between atoms: C_9  and  C_12
REMARK    2  A    between atoms: C_15  and  C_17
REMARK    3  A    between atoms: N_20  and  C_23
REMARK    4  A    between atoms: C_26  and  C_28
REMARK                            x       y       z     vdW  Elec       q    Type
REMARK                         _______ _______ _______ _____ _____    ______ ____
ROOT
ATOM      1  C   UNL     1      -3.792  -1.528  -0.921  0.00  0.00    +0.078 C 
ATOM      2  C   UNL     1      -3.944  -0.227  -0.128  0.00  0.00    +0.032 C 
ATOM      3  C   UNL     1      -2.653   0.588  -0.242  0.00  0.00    +0.107 C 
ATOM      4  N   UNL     1      -1.529  -0.198   0.282  0.00  0.00    -0.315 N 
ATOM      5  C   UNL     1      -1.335  -1.430  -0.494  0.00  0.00    +0.107 C 
ATOM      6  C   UNL     1      -2.586  -2.305  -0.388  0.00  0.00    +0.032 C 
ENDROOT
BRANCH   1  17
ATOM      7  C   UNL     1      -8.466  -4.738  -0.369  0.00  0.00    +0.002 A 
ATOM      8  C   UNL     1      -8.890  -5.479  -1.456  0.00  0.00    +0.004 A 
ATOM      9  C   UNL     1      -8.142  -5.505  -2.618  0.00  0.00    +0.047 A 
ATOM     10  C   UNL     1      -6.958  -4.786  -2.697  0.00  0.00    +0.143 A 
ATOM     11  C   UNL     1      -6.535  -4.038  -1.602  0.00  0.00    +0.078 A 
ATOM     12  C   UNL     1      -7.289  -4.016  -0.440  0.00  0.00    +0.027 A 
ATOM     13  N   UNL     1      -5.339  -3.303  -1.680  0.00  0.00    -0.264 N 
ATOM     14  C   UNL     1      -4.429  -3.593  -2.802  0.00  0.00    +0.168 C 
ATOM     15  C   UNL     1      -5.282  -3.770  -4.062  0.00  0.00    +0.276 C 
ATOM     16  O   UNL     1      -6.224  -4.823  -3.840  0.00  0.00    -0.476 OA
ATOM     17  C   UNL     1      -5.038  -2.362  -0.764  0.00  0.00    +0.223 C 
ATOM     18  O   UNL     1      -5.769  -2.186   0.188  0.00  0.00    -0.275 OA
BRANCH  15  19
ATOM     19  C   UNL     1      -4.398  -4.121  -5.230  0.00  0.00    +0.253 C 
ATOM     20  O   UNL     1      -4.496  -5.208  -5.760  0.00  0.00    -0.272 OA
ATOM     21  N   UNL     1      -3.498  -3.228  -5.686  0.00  0.00    -0.326 N 
ATOM     22  H   UNL     1      -3.420  -2.359  -5.263  0.00  0.00    +0.145 HD
ATOM     23  H   UNL     1      -2.929  -3.454  -6.439  0.00  0.00    +0.145 HD
ENDBRANCH  15  19
ENDBRANCH   1  17
BRANCH   4  24
ATOM     24  C   UNL     1      -0.364   0.559   0.315  0.00  0.00    +0.117 A 
ATOM     25  C   UNL     1       0.349   0.679   1.505  0.00  0.00    +0.079 A 
ATOM     26  C   UNL     1       1.507   1.437   1.523  0.00  0.00    +0.037 A 
ATOM     27  C   UNL     1       1.915   2.051   0.346  0.00  0.00    +0.072 A 
ATOM     28  C   UNL     1       1.159   1.889  -0.798  0.00  0.00    +0.096 A 
ATOM     29 CL   UNL     1      -0.208  -0.111   2.947  0.00  0.00    -0.080 Cl
ATOM     30  N   UNL     1       0.017   1.153  -0.853  0.00  0.00    -0.348 N 
ATOM     31  H   UNL     1      -0.525   1.051  -1.719  0.00  0.00    +0.167 HD
BRANCH  27  32
ATOM     32  C   UNL     1       3.169   2.886   0.318  0.00  0.00    +0.419 C 
ATOM     33  F   UNL     1       4.262   2.074  -0.004  0.00  0.00    -0.166 F 
ATOM     34  F   UNL     1       3.037   3.894  -0.643  0.00  0.00    -0.166 F 
ATOM     35  F   UNL     1       3.372   3.464   1.575  0.00  0.00    -0.166 F 
ENDBRANCH  27  32
ENDBRANCH   4  24
TORSDOF 4
