REMARK  Name = ZINC67390251
REMARK  8 active torsions:
REMARK  status: ('A' for Active; 'I' for Inactive)
REMARK    1  A    between atoms: C_1  and  C_2
REMARK    2  A    between atoms: C_2  and  C_3
REMARK    3  A    between atoms: C_2  and  C_4
REMARK    4  A    between atoms: C_2  and  N_11
REMARK    5  A    between atoms: N_14  and  C_15
REMARK    6  A    between atoms: N_18  and  C_21
REMARK    7  A    between atoms: C_21  and  C_22
REMARK    8  A    between atoms: N_24  and  C_25
REMARK                            x       y       z     vdW  Elec       q    Type
REMARK                         _______ _______ _______ _____ _____    ______ ____
ROOT
ATOM      1  N   UNL     1       0.556  -0.272  -1.327  0.00  0.00    -0.290 N 
ATOM      2  C   UNL     1       1.849   0.006  -1.587  0.00  0.00    +0.300 C 
ATOM      3  O   UNL     1       2.556   0.479  -0.719  0.00  0.00    -0.253 OA
ATOM      4  N   UNL     1       2.358  -0.241  -2.811  0.00  0.00    -0.297 N 
ATOM      5  H   UNL     1      -0.008  -0.650  -2.021  0.00  0.00    +0.151 HD
ATOM      6  H   UNL     1       1.794  -0.618  -3.504  0.00  0.00    +0.151 HD
ENDROOT
BRANCH   4   7
ATOM      7  C   UNL     1       3.764   0.061  -3.093  0.00  0.00    +0.071 C 
ATOM      8  C   UNL     1       3.899   1.530  -3.505  0.00  0.00    +0.004 C 
ATOM      9  C   UNL     1       5.356   1.818  -3.875  0.00  0.00    -0.076 C 
ATOM     10  N   UNL     1       5.760   0.956  -4.992  0.00  0.00    +0.385 N 
ATOM     11  C   UNL     1       5.701  -0.452  -4.581  0.00  0.00    -0.076 C 
ATOM     12  C   UNL     1       4.258  -0.827  -4.239  0.00  0.00    +0.004 C 
ATOM     13  H   UNL     1       5.138   1.104  -5.772  0.00  0.00    -0.081 HD
BRANCH  10  14
ATOM     14  C   UNL     1       7.133   1.291  -5.394  0.00  0.00    +0.019 C 
BRANCH  14  15
ATOM     15  C   UNL     1       7.506   0.494  -6.618  0.00  0.00    +0.196 C 
ATOM     16  O   UNL     1       6.707  -0.277  -7.106  0.00  0.00    -0.278 OA
ATOM     17  N   UNL     1       8.727   0.637  -7.169  0.00  0.00    -0.320 N 
ATOM     18  C   UNL     1       9.090  -0.137  -8.358  0.00  0.00    +0.128 C 
ATOM     19  H   UNL     1       9.366   1.254  -6.778  0.00  0.00    +0.148 HD
ENDBRANCH  14  15
ENDBRANCH  10  14
ENDBRANCH   4   7
BRANCH   1  21
ATOM     20  C   UNL     1       0.155   1.483   0.328  0.00  0.00    +0.036 C 
ATOM     21  C   UNL     1       0.002  -0.004   0.002  0.00  0.00    +0.056 C 
ATOM     22  C   UNL     1       0.753  -0.835   1.044  0.00  0.00    +0.036 C 
BRANCH  21  23
ATOM     23  C   UNL     1      -1.458  -0.375   0.022  0.00  0.00    -0.025 A 
ATOM     24  C   UNL     1      -2.073  -0.700   1.217  0.00  0.00    +0.007 A 
ATOM     25  C   UNL     1      -3.412  -1.040   1.236  0.00  0.00    +0.020 A 
ATOM     26  C   UNL     1      -4.138  -1.055   0.058  0.00  0.00    +0.041 A 
ATOM     27  C   UNL     1      -3.523  -0.729  -1.138  0.00  0.00    +0.020 A 
ATOM     28  C   UNL     1      -2.185  -0.384  -1.154  0.00  0.00    +0.007 A 
ATOM     29 CL   UNL     1      -5.821  -1.482   0.081  0.00  0.00    -0.084 Cl
ENDBRANCH  21  23
ENDBRANCH   1  21
TORSDOF 5
