REMARK  Name = ZINC40322042
REMARK  7 active torsions:
REMARK  status: ('A' for Active; 'I' for Inactive)
REMARK    1  A    between atoms: C_6  and  C_7
REMARK    2  A    between atoms: C_7  and  C_9
REMARK    3  A    between atoms: C_7  and  N_28
REMARK    4  A    between atoms: C_9  and  N_10
REMARK    5  A    between atoms: C_11  and  C_13
REMARK    6  A    between atoms: C_16  and  S_18
REMARK    7  A    between atoms: S_18  and  C_21
REMARK                            x       y       z     vdW  Elec       q    Type
REMARK                         _______ _______ _______ _____ _____    ______ ____
ROOT
ATOM      1  N   UNL     1      -2.825  -2.148   1.350  0.00  0.00    -0.310 N 
ATOM      2  C   UNL     1      -3.320  -2.703   2.474  0.00  0.00    +0.279 C 
ATOM      3  O   UNL     1      -2.719  -2.587   3.525  0.00  0.00    -0.267 OA
ATOM      4  H   UNL     1      -3.304  -2.240   0.511  0.00  0.00    +0.149 HD
ENDROOT
BRANCH   2   5
ATOM      5  C   UNL     1      -4.583  -3.447   2.429  0.00  0.00    +0.192 A 
ATOM      6  C   UNL     1      -5.196  -4.052   3.488  0.00  0.00    +0.056 A 
ATOM      7  C   UNL     1      -6.370  -4.641   2.993  0.00  0.00    +0.070 A 
ATOM      8  C   UNL     1      -6.421  -4.373   1.670  0.00  0.00    +0.246 A 
ATOM      9  O   UNL     1      -5.345  -3.650   1.334  0.00  0.00    -0.433 OA
BRANCH   8  10
ATOM     10  S   UNL     1      -7.697  -4.887   0.568  0.00  0.00    +0.058 S 
ATOM     11  O   UNL     1      -7.126  -4.906  -0.733  0.00  0.00    -0.161 OA
ATOM     12  O   UNL     1      -8.301  -6.033   1.152  0.00  0.00    -0.161 OA
BRANCH  10  13
ATOM     13  C   UNL     1      -8.921  -3.620   0.562  0.00  0.00    +0.097 A 
ATOM     14  C   UNL     1      -9.963  -3.662   1.469  0.00  0.00    +0.029 A 
ATOM     15  C   UNL     1     -10.924  -2.668   1.465  0.00  0.00    +0.022 A 
ATOM     16  C   UNL     1     -10.843  -1.632   0.552  0.00  0.00    +0.041 A 
ATOM     17  C   UNL     1      -9.800  -1.590  -0.356  0.00  0.00    +0.022 A 
ATOM     18  C   UNL     1      -8.837  -2.581  -0.347  0.00  0.00    +0.029 A 
ATOM     19 CL   UNL     1     -12.050  -0.384   0.546  0.00  0.00    -0.084 Cl
ENDBRANCH  10  13
ENDBRANCH   8  10
ENDBRANCH   2   5
BRANCH   1  20
ATOM     20  C   UNL     1      -1.563  -1.404   1.395  0.00  0.00    +0.094 C 
BRANCH  20  21
ATOM     21  C   UNL     1      -1.297  -0.769   0.029  0.00  0.00    -0.020 C 
BRANCH  21  27
ATOM     22  C   UNL     1      -3.416  -0.036  -1.084  0.00  0.00    +0.003 A 
ATOM     23  C   UNL     1      -4.383   0.916  -1.345  0.00  0.00    +0.020 A 
ATOM     24  C   UNL     1      -4.286   2.174  -0.779  0.00  0.00    +0.041 A 
ATOM     25  C   UNL     1      -3.220   2.479   0.048  0.00  0.00    +0.020 A 
ATOM     26  C   UNL     1      -2.253   1.527   0.309  0.00  0.00    +0.003 A 
ATOM     27  C   UNL     1      -2.351   0.270  -0.257  0.00  0.00    -0.059 A 
ATOM     28 CL   UNL     1      -5.501   3.370  -1.108  0.00  0.00    -0.084 Cl
ENDBRANCH  21  27
BRANCH  21  29
ATOM     29  N   UNL     1       0.028  -0.133   0.034  0.00  0.00    +0.385 N 
ATOM     30  C   UNL     1       1.086  -1.156   0.237  0.00  0.00    -0.078 C 
ATOM     31  C   UNL     1       2.354  -0.471  -0.332  0.00  0.00    -0.020 C 
ATOM     32  C   UNL     1       1.810   0.301  -1.556  0.00  0.00    -0.020 C 
ATOM     33  C   UNL     1       0.305   0.478  -1.284  0.00  0.00    -0.078 C 
ATOM     34  H   UNL     1       0.075   0.567   0.759  0.00  0.00    -0.081 HD
ENDBRANCH  21  29
ENDBRANCH  20  21
ENDBRANCH   1  20
TORSDOF 7
