REMARK  Name = ZINC08895028
REMARK  10 active torsions:
REMARK  status: ('A' for Active; 'I' for Inactive)
REMARK    1  A    between atoms: C_1  and  C_2
REMARK    2  A    between atoms: C_2  and  C_3
REMARK    3  A    between atoms: C_7  and  C_32
REMARK    4  A    between atoms: C_8  and  N_9
REMARK    5  A    between atoms: C_10  and  C_12
REMARK    6  A    between atoms: C_12  and  C_14
REMARK    7  A    between atoms: C_12  and  N_15
REMARK    8  A    between atoms: C_22  and  C_25
REMARK    9  A    between atoms: C_28  and  C_31
REMARK   10  A    between atoms: C_32  and  C_33
REMARK                            x       y       z     vdW  Elec       q    Type
REMARK                         _______ _______ _______ _____ _____    ______ ____
ROOT
ATOM      1  N   UNL     1       0.610   4.915  -2.799  0.00  0.00    -0.287 N 
ATOM      2  C   UNL     1       0.259   5.567  -1.661  0.00  0.00    +0.204 A 
ATOM      3  N   UNL     1       1.121   5.755  -0.698  0.00  0.00    -0.230 NA
ATOM      4  C   UNL     1       2.371   5.313  -0.800  0.00  0.00    +0.116 A 
ATOM      5  C   UNL     1       2.825   4.628  -1.939  0.00  0.00    +0.080 A 
ATOM      6  C   UNL     1       1.856   4.439  -2.976  0.00  0.00    +0.263 A 
ATOM      7  O   UNL     1       2.155   3.856  -4.004  0.00  0.00    -0.267 OA
ATOM      8  C   UNL     1       4.221   4.211  -1.894  0.00  0.00    +0.004 A 
ATOM      9  C   UNL     1       4.954   4.506  -0.793  0.00  0.00    +0.056 A 
ATOM     10  S   UNL     1       3.797   5.368   0.254  0.00  0.00    -0.076 S 
ENDROOT
BRANCH   8  11
ATOM     11  C   UNL     1       4.828   3.479  -3.031  0.00  0.00    -0.017 A 
ATOM     12  C   UNL     1       4.191   2.359  -3.562  0.00  0.00    +0.009 A 
ATOM     13  C   UNL     1       4.759   1.684  -4.624  0.00  0.00    +0.004 A 
ATOM     14  C   UNL     1       5.962   2.112  -5.155  0.00  0.00    -0.050 A 
ATOM     15  C   UNL     1       6.601   3.220  -4.629  0.00  0.00    +0.004 A 
ATOM     16  C   UNL     1       6.041   3.906  -3.571  0.00  0.00    +0.009 A 
ATOM     17  C   UNL     1       6.579   1.368  -6.311  0.00  0.00    +0.044 C 
ENDBRANCH   8  11
BRANCH   1  18
ATOM     18  C   UNL     1      -0.390   4.721  -3.852  0.00  0.00    +0.174 C 
ATOM     19  C   UNL     1      -0.893   6.082  -4.335  0.00  0.00    +0.041 C 
BRANCH  18  21
ATOM     20  N   UNL     1      -2.591   3.620  -4.102  0.00  0.00    -0.283 N 
ATOM     21  C   UNL     1      -1.546   3.923  -3.307  0.00  0.00    +0.240 C 
ATOM     22  O   UNL     1      -1.536   3.553  -2.152  0.00  0.00    -0.273 OA
ATOM     23  H   UNL     1      -2.645   3.996  -4.995  0.00  0.00    +0.155 HD
BRANCH  20  29
ATOM     24  C   UNL     1      -3.302   1.439  -3.347  0.00  0.00    -0.026 A 
ATOM     25  C   UNL     1      -4.296   0.598  -2.886  0.00  0.00    +0.005 A 
ATOM     26  C   UNL     1      -5.586   1.071  -2.728  0.00  0.00    +0.001 A 
ATOM     27  C   UNL     1      -5.884   2.389  -3.026  0.00  0.00    +0.005 A 
ATOM     28  C   UNL     1      -4.893   3.236  -3.481  0.00  0.00    -0.026 A 
ATOM     29  C   UNL     1      -3.597   2.764  -3.641  0.00  0.00    +0.040 A 
BRANCH  24  31
ATOM     30  C   UNL     1      -1.803  -0.498  -2.962  0.00  0.00    +0.009 C 
ATOM     31  C   UNL     1      -1.898   0.921  -3.524  0.00  0.00    +0.033 C 
ENDBRANCH  24  31
BRANCH  28  32
ATOM     32  C   UNL     1      -5.218   4.672  -3.805  0.00  0.00    +0.033 C 
ATOM     33  C   UNL     1      -5.511   4.803  -5.301  0.00  0.00    +0.009 C 
ENDBRANCH  28  32
ENDBRANCH  20  29
ENDBRANCH  18  21
ENDBRANCH   1  18
TORSDOF 6
