REMARK  Name = ZINC06812265
REMARK  9 active torsions:
REMARK  status: ('A' for Active; 'I' for Inactive)
REMARK    1  A    between atoms: C_1  and  C_2
REMARK    2  A    between atoms: C_2  and  C_3
REMARK    3  A    between atoms: C_3  and  C_4
REMARK    4  A    between atoms: C_10  and  C_26
REMARK    5  A    between atoms: C_12  and  C_15
REMARK    6  A    between atoms: N_17  and  C_18
REMARK    7  A    between atoms: C_23  and  O_24
REMARK    8  A    between atoms: O_24  and  C_25
REMARK    9  A    between atoms: C_29  and  C_32
REMARK                            x       y       z     vdW  Elec       q    Type
REMARK                         _______ _______ _______ _____ _____    ______ ____
ROOT
ATOM      1  C   UNL     1      -9.019   0.907  -0.106  0.00  0.00    +0.151 A 
ATOM      2  N   UNL     1      -9.216   1.347   1.107  0.00  0.00    -0.132 NA
ATOM      3  N   UNL     1      -8.140   1.222   1.804  0.00  0.00    -0.121 NA
ATOM      4  C   UNL     1      -7.203   0.694   1.066  0.00  0.00    +0.209 A 
ATOM      5  N   UNL     1      -7.724   0.480  -0.178  0.00  0.00    -0.225 N 
ATOM      6  N   UNL     1      -7.082  -0.040  -1.256  0.00  0.00    -0.272 N 
ATOM      7  C   UNL     1      -5.906  -0.840  -0.911  0.00  0.00    +0.140 C 
ATOM      8  C   UNL     1      -4.885   0.010  -0.143  0.00  0.00    +0.166 C 
ATOM      9  S   UNL     1      -5.545   0.299   1.526  0.00  0.00    -0.069 S 
ATOM     10  H   UNL     1      -7.718  -0.563  -1.838  0.00  0.00    +0.167 HD
ENDROOT
BRANCH   7  11
ATOM     11  C   UNL     1      -5.270  -1.361  -2.174  0.00  0.00    -0.024 A 
ATOM     12  C   UNL     1      -5.170  -0.545  -3.285  0.00  0.00    +0.006 A 
ATOM     13  C   UNL     1      -4.583  -1.022  -4.442  0.00  0.00    +0.004 A 
ATOM     14  C   UNL     1      -4.105  -2.318  -4.492  0.00  0.00    -0.050 A 
ATOM     15  C   UNL     1      -4.210  -3.136  -3.382  0.00  0.00    +0.004 A 
ATOM     16  C   UNL     1      -4.793  -2.658  -2.224  0.00  0.00    +0.006 A 
ATOM     17  C   UNL     1      -3.470  -2.840  -5.755  0.00  0.00    +0.044 C 
ENDBRANCH   7  11
BRANCH   8  18
ATOM     18  C   UNL     1      -3.573  -0.727  -0.052  0.00  0.00    +0.233 C 
ATOM     19  O   UNL     1      -3.557  -1.940  -0.059  0.00  0.00    -0.274 OA
ATOM     20  N   UNL     1      -2.418  -0.038   0.037  0.00  0.00    -0.282 N 
ATOM     21  H   UNL     1      -2.435   0.929   0.107  0.00  0.00    +0.155 HD
BRANCH  20  22
ATOM     22  C   UNL     1      -1.194  -0.720   0.027  0.00  0.00    +0.076 A 
ATOM     23  C   UNL     1      -1.088  -1.968   0.623  0.00  0.00    +0.027 A 
ATOM     24  C   UNL     1       0.122  -2.635   0.617  0.00  0.00    +0.002 A 
ATOM     25  C   UNL     1       1.228  -2.064   0.014  0.00  0.00    +0.004 A 
ATOM     26  C   UNL     1       1.128  -0.823  -0.587  0.00  0.00    +0.047 A 
ATOM     27  C   UNL     1      -0.081  -0.147  -0.586  0.00  0.00    +0.141 A 
BRANCH  27  28
ATOM     28  O   UNL     1      -0.181   1.074  -1.175  0.00  0.00    -0.493 OA
ATOM     29  C   UNL     1       1.003   1.601  -1.779  0.00  0.00    +0.277 C 
ENDBRANCH  27  28
ENDBRANCH  20  22
ENDBRANCH   8  18
BRANCH   1  30
ATOM     30  C   UNL     1     -10.033   0.878  -1.221  0.00  0.00    +0.078 C 
BRANCH  30  32
ATOM     31  C   UNL     1     -11.817  -0.481  -2.320  0.00  0.00    +0.004 C 
ATOM     32  C   UNL     1     -10.788  -0.452  -1.188  0.00  0.00    +0.004 C 
ENDBRANCH  30  32
ENDBRANCH   1  30
TORSDOF 6
