REMARK  Name = ZINC03840697
REMARK  7 active torsions:
REMARK  status: ('A' for Active; 'I' for Inactive)
REMARK    1  A    between atoms: C_1  and  C_2
REMARK    2  A    between atoms: C_7  and  C_9
REMARK    3  A    between atoms: C_16  and  C_37
REMARK    4  A    between atoms: C_19  and  O_36
REMARK    5  A    between atoms: C_21  and  C_25
REMARK    6  A    between atoms: C_25  and  C_27
REMARK    7  A    between atoms: C_25  and  C_28
REMARK                            x       y       z     vdW  Elec       q    Type
REMARK                         _______ _______ _______ _____ _____    ______ ____
ROOT
ATOM      1  C   UNL     1      -0.312   1.663   0.552  0.00  0.00    +0.014 C 
ATOM      2  C   UNL     1      -0.190   0.162   0.283  0.00  0.00    +0.042 C 
ATOM      3  C   UNL     1      -1.564  -0.486   0.387  0.00  0.00    +0.056 A 
ATOM      4  C   UNL     1      -1.698  -1.694   1.000  0.00  0.00    +0.014 A 
ATOM      5  S   UNL     1      -3.438  -2.013   0.863  0.00  0.00    -0.070 S 
ATOM      6  C   UNL     1      -3.855  -0.503  -0.003  0.00  0.00    +0.128 A 
ATOM      7  N   UNL     1      -2.668   0.072  -0.099  0.00  0.00    -0.242 NA
ATOM      8  C   UNL     1      -0.633  -2.522   1.627  0.00  0.00    +0.051 C 
ATOM      9  C   UNL     1       0.744  -1.991   1.182  0.00  0.00    -0.022 C 
ATOM     10  C   UNL     1       0.754  -0.467   1.316  0.00  0.00    +0.033 C 
ATOM     11  C   UNL     1       2.161   0.077   1.044  0.00  0.00    +0.123 C 
ATOM     12  C   UNL     1       3.167  -0.546   2.009  0.00  0.00    +0.029 C 
ATOM     13  C   UNL     1       3.178  -2.063   1.798  0.00  0.00    +0.007 C 
ATOM     14  C   UNL     1       1.790  -2.612   2.114  0.00  0.00    +0.008 C 
ATOM     15  C   UNL     1       1.022  -2.405  -0.265  0.00  0.00    +0.012 C 
ENDROOT
BRANCH   6  16
ATOM     16  C   UNL     1      -5.170  -0.029  -0.482  0.00  0.00    +0.113 A 
ATOM     17  C   UNL     1      -6.358  -0.678  -0.341  0.00  0.00    +0.114 A 
ATOM     18  N   UNL     1      -7.308   0.111  -0.925  0.00  0.00    -0.350 N 
ATOM     19  H   UNL     1      -8.257  -0.083  -0.985  0.00  0.00    +0.166 HD
ATOM     20  C   UNL     1      -6.681   1.214  -1.404  0.00  0.00    +0.197 A 
ATOM     21  N   UNL     1      -5.409   1.130  -1.133  0.00  0.00    -0.234 NA
ENDBRANCH   6  16
BRANCH  12  22
ATOM     22  C   UNL     1       4.561   0.023   1.734  0.00  0.00    +0.078 C 
ATOM     23  C   UNL     1       5.026  -0.416   0.343  0.00  0.00    +0.017 C 
BRANCH  22  24
ATOM     24  C   UNL     1       5.527  -0.490   2.771  0.00  0.00    +0.219 C 
ATOM     25  O   UNL     1       6.213  -1.461   2.533  0.00  0.00    -0.275 OA
ATOM     26  N   UNL     1       5.627   0.132   3.963  0.00  0.00    -0.300 N 
ATOM     27  C   UNL     1       4.711   1.226   4.287  0.00  0.00    +0.118 C 
ATOM     28  C   UNL     1       3.805   0.805   5.450  0.00  0.00    +0.088 C 
ATOM     29  S   UNL     1       4.850   0.340   6.863  0.00  0.00    -0.158 S 
ATOM     30  C   UNL     1       5.976  -0.899   6.155  0.00  0.00    +0.088 C 
ATOM     31  C   UNL     1       6.647  -0.300   4.919  0.00  0.00    +0.118 C 
ENDBRANCH  22  24
ENDBRANCH  12  22
BRANCH  11  32
ATOM     32  O   UNL     1       2.161   1.496   1.218  0.00  0.00    -0.391 OA
ATOM     33  H   UNL     1       2.995   1.921   0.976  0.00  0.00    +0.210 HD
ENDBRANCH  11  32
TORSDOF 4
