REMARK  Name = ZINC32776473
REMARK  8 active torsions:
REMARK  status: ('A' for Active; 'I' for Inactive)
REMARK    1  A    between atoms: C_1  and  C_2
REMARK    2  A    between atoms: C_2  and  N_3
REMARK    3  A    between atoms: C_13  and  C_18
REMARK    4  A    between atoms: C_18  and  O_20
REMARK    5  A    between atoms: O_20  and  C_21
REMARK    6  A    between atoms: C_21  and  C_22
REMARK    7  A    between atoms: C_24  and  O_25
REMARK    8  A    between atoms: C_34  and  C_36
REMARK                            x       y       z     vdW  Elec       q    Type
REMARK                         _______ _______ _______ _____ _____    ______ ____
ROOT
ATOM      1  C   UNL     1      -1.088   5.401  -2.007  0.00  0.00    +0.351 C 
ATOM      2  O   UNL     1      -0.017   4.897  -2.247  0.00  0.00    -0.246 OA
ENDROOT
BRANCH   1  13
ATOM      3  N   UNL     1      -2.867   5.277  -0.359  0.00  0.00    -0.267 N 
ATOM      4  C   UNL     1      -3.154   4.030   0.075  0.00  0.00    +0.250 C 
ATOM      5  O   UNL     1      -4.312   3.696   0.235  0.00  0.00    -0.270 OA
ATOM      6  C   UNL     1      -2.069   3.071   0.354  0.00  0.00    +0.058 A 
ATOM      7  C   UNL     1      -2.297   1.703   0.465  0.00  0.00    +0.015 A 
ATOM      8  C   UNL     1      -1.244   0.860   0.753  0.00  0.00    +0.001 A 
ATOM      9  C   UNL     1       0.037   1.359   0.922  0.00  0.00    +0.002 A 
ATOM     10  C   UNL     1       0.282   2.717   0.804  0.00  0.00    +0.024 A 
ATOM     11  C   UNL     1      -0.760   3.570   0.516  0.00  0.00    +0.051 A 
ATOM     12  N   UNL     1      -0.605   4.947   0.340  0.00  0.00    -0.239 N 
ATOM     13  C   UNL     1      -1.483   5.690  -0.582  0.00  0.00    +0.210 C 
ATOM     14  C   UNL     1      -1.285   7.178  -0.279  0.00  0.00    +0.067 C 
ATOM     15  C   UNL     1      -0.097   7.204   0.701  0.00  0.00    +0.101 C 
ATOM     16  C   UNL     1       0.268   5.759   0.939  0.00  0.00    +0.222 C 
ATOM     17  O   UNL     1       1.223   5.387   1.588  0.00  0.00    -0.275 OA
BRANCH   3  19
ATOM     18  C   UNL     1      -4.362   6.894   0.708  0.00  0.00    +0.024 C 
ATOM     19  C   UNL     1      -3.955   6.226  -0.608  0.00  0.00    +0.107 C 
ENDBRANCH   3  19
ENDBRANCH   1  13
BRANCH   1  20
ATOM     20  O   UNL     1      -1.927   5.703  -3.011  0.00  0.00    -0.457 OA
BRANCH  20  21
ATOM     21  C   UNL     1      -1.481   5.397  -4.358  0.00  0.00    +0.268 C 
BRANCH  21  22
ATOM     22  C   UNL     1      -2.546   5.802  -5.344  0.00  0.00    +0.007 A 
ATOM     23  C   UNL     1      -3.712   6.357  -4.923  0.00  0.00    +0.095 A 
ATOM     24  C   UNL     1      -4.692   6.732  -5.866  0.00  0.00    +0.285 A 
ATOM     25  O   UNL     1      -4.510   6.548  -7.183  0.00  0.00    -0.425 OA
ATOM     26  C   UNL     1      -3.376   5.997  -7.667  0.00  0.00    +0.141 A 
ATOM     27  C   UNL     1      -2.354   5.604  -6.782  0.00  0.00    +0.024 A 
ATOM     28  C   UNL     1      -1.177   5.032  -7.280  0.00  0.00    +0.014 A 
ATOM     29  C   UNL     1      -1.024   4.858  -8.625  0.00  0.00    +0.024 A 
ATOM     30  C   UNL     1      -2.032   5.246  -9.507  0.00  0.00    +0.037 A 
ATOM     31  C   UNL     1      -3.204   5.814  -9.030  0.00  0.00    +0.070 A 
ATOM     32  N   UNL     1      -1.860   5.062 -10.879  0.00  0.00    -0.286 N 
ATOM     33  C   UNL     1      -2.912   4.725 -11.651  0.00  0.00    +0.214 C 
ATOM     34  O   UNL     1      -4.023   4.665 -11.169  0.00  0.00    -0.276 OA
ATOM     35  C   UNL     1      -2.707   4.421 -13.113  0.00  0.00    +0.109 C 
ATOM     36  H   UNL     1      -0.865   5.191 -11.331  0.00  0.00    +0.155 HD
BRANCH  24  37
ATOM     37  O   UNL     1      -5.731   7.231  -5.475  0.00  0.00    -0.480 OA
ATOM     38  H   UNL     1      -6.505   7.529  -6.198  0.00  0.00    +0.295 HD
ENDBRANCH  24  37
ENDBRANCH  21  22
ENDBRANCH  20  21
ENDBRANCH   1  20
TORSDOF 6
