REMARK  Name = ZINC09558766
REMARK  10 active torsions:
REMARK  status: ('A' for Active; 'I' for Inactive)
REMARK    1  A    between atoms: C_1  and  C_2
REMARK    2  A    between atoms: C_5  and  C_38
REMARK    3  A    between atoms: C_6  and  N_8
REMARK    4  A    between atoms: C_21  and  S_22
REMARK    5  A    between atoms: S_22  and  C_23
REMARK    6  A    between atoms: C_23  and  C_25
REMARK    7  A    between atoms: C_23  and  C_26
REMARK    8  A    between atoms: N_28  and  C_29
REMARK    9  A    between atoms: C_29  and  C_31
REMARK   10  A    between atoms: C_29  and  C_32
REMARK                            x       y       z     vdW  Elec       q    Type
REMARK                         _______ _______ _______ _____ _____    ______ ____
ROOT
ATOM      1  N   UNL     1       3.593   3.505  -0.014  0.00  0.00    -0.245 N 
ATOM      2  C   UNL     1       3.652   2.158  -0.023  0.00  0.00    +0.268 A 
ATOM      3  O   UNL     1       4.726   1.587  -0.037  0.00  0.00    -0.267 OA
ATOM      4  C   UNL     1       2.396   1.387  -0.014  0.00  0.00    +0.064 A 
ATOM      5  C   UNL     1       2.401  -0.007  -0.022  0.00  0.00    +0.015 A 
ATOM      6  C   UNL     1       1.205  -0.693  -0.014  0.00  0.00    +0.001 A 
ATOM      7  C   UNL     1       0.002  -0.004   0.002  0.00  0.00    +0.002 A 
ATOM      8  C   UNL     1      -0.017   1.377   0.010  0.00  0.00    +0.027 A 
ATOM      9  C   UNL     1       1.176   2.084   0.002  0.00  0.00    +0.064 A 
ATOM     10  N   UNL     1       1.190   3.473   0.009  0.00  0.00    -0.255 N 
ATOM     11  C   UNL     1       2.373   4.165   0.001  0.00  0.00    +0.245 A 
ATOM     12  N   UNL     1       2.068   5.440   0.010  0.00  0.00    -0.109 NA
ATOM     13  N   UNL     1       0.791   5.589   0.023  0.00  0.00    -0.120 NA
ATOM     14  C   UNL     1       0.201   4.418   0.023  0.00  0.00    +0.198 A 
ENDROOT
BRANCH   1  20
ATOM     15  C   UNL     1       7.203   5.741   2.465  0.00  0.00    +0.044 C 
ATOM     16  C   UNL     1       6.550   5.346   1.166  0.00  0.00    -0.048 A 
ATOM     17  C   UNL     1       7.124   5.717  -0.037  0.00  0.00    +0.004 A 
ATOM     18  C   UNL     1       6.528   5.357  -1.231  0.00  0.00    +0.005 A 
ATOM     19  C   UNL     1       5.360   4.618  -1.227  0.00  0.00    -0.026 A 
ATOM     20  C   UNL     1       4.779   4.248  -0.021  0.00  0.00    +0.056 A 
ATOM     21  C   UNL     1       5.380   4.612   1.177  0.00  0.00    +0.030 A 
ATOM     22  C   UNL     1       4.715   4.220  -2.529  0.00  0.00    +0.046 C 
ENDBRANCH   1  20
BRANCH  14  23
ATOM     23  S   UNL     1      -1.536   4.119   0.039  0.00  0.00    -0.073 S 
BRANCH  23  24
ATOM     24  C   UNL     1      -2.267   5.779   0.054  0.00  0.00    +0.137 C 
ATOM     25  C   UNL     1      -1.927   6.498  -1.253  0.00  0.00    +0.029 C 
BRANCH  24  26
ATOM     26  C   UNL     1      -3.763   5.668   0.193  0.00  0.00    +0.227 C 
ATOM     27  O   UNL     1      -4.322   4.628  -0.086  0.00  0.00    -0.275 OA
ATOM     28  N   UNL     1      -4.480   6.724   0.626  0.00  0.00    -0.308 N 
ATOM     29  H   UNL     1      -4.033   7.555   0.849  0.00  0.00    +0.149 HD
BRANCH  28  30
ATOM     30  C   UNL     1      -5.935   6.615   0.760  0.00  0.00    +0.100 C 
ATOM     31  C   UNL     1      -6.595   6.907  -0.589  0.00  0.00    +0.033 C 
BRANCH  30  32
ATOM     32  C   UNL     1      -6.421   7.610   1.783  0.00  0.00    -0.027 A 
ATOM     33  C   UNL     1      -5.868   8.876   1.832  0.00  0.00    +0.005 A 
ATOM     34  C   UNL     1      -6.317   9.790   2.767  0.00  0.00    +0.000 A 
ATOM     35  C   UNL     1      -7.311   9.435   3.659  0.00  0.00    +0.000 A 
ATOM     36  C   UNL     1      -7.860   8.167   3.613  0.00  0.00    +0.000 A 
ATOM     37  C   UNL     1      -7.415   7.255   2.675  0.00  0.00    +0.005 A 
ENDBRANCH  30  32
ENDBRANCH  28  30
ENDBRANCH  24  26
ENDBRANCH  23  24
ENDBRANCH  14  23
TORSDOF 6
