REMARK  Name = ZINC40919853
REMARK  14 active torsions:
REMARK  status: ('A' for Active; 'I' for Inactive)
REMARK    1  A    between atoms: C_1  and  C_2
REMARK    2  A    between atoms: C_2  and  C_3
REMARK    3  A    between atoms: C_3  and  O_4
REMARK    4  A    between atoms: O_4  and  C_5
REMARK    5  A    between atoms: C_5  and  C_7
REMARK    6  A    between atoms: C_8  and  C_35
REMARK    7  A    between atoms: C_15  and  C_17
REMARK    8  A    between atoms: C_20  and  O_26
REMARK    9  A    between atoms: C_21  and  O_23
REMARK   10  A    between atoms: O_23  and  C_24
REMARK   11  A    between atoms: C_24  and  C_25
REMARK   12  A    between atoms: O_26  and  C_27
REMARK   13  A    between atoms: C_27  and  C_28
REMARK   14  A    between atoms: C_33  and  C_34
REMARK                            x       y       z     vdW  Elec       q    Type
REMARK                         _______ _______ _______ _____ _____    ______ ____
ROOT
ATOM      1  C   UNL     1      -0.380  -4.469  -0.929  0.00  0.00    -0.015 A 
ATOM      2  C   UNL     1      -1.285  -4.758  -1.933  0.00  0.00    +0.010 A 
ATOM      3  C   UNL     1      -2.631  -4.507  -1.748  0.00  0.00    +0.050 A 
ATOM      4  C   UNL     1      -3.077  -3.965  -0.553  0.00  0.00    +0.162 A 
ATOM      5  C   UNL     1      -2.167  -3.675   0.459  0.00  0.00    +0.162 A 
ATOM      6  C   UNL     1      -0.819  -3.933   0.268  0.00  0.00    +0.055 A 
ENDROOT
BRANCH   1  15
ATOM      7  C   UNL     1       1.587  -3.945  -2.311  0.00  0.00    +0.082 C 
ATOM      8  C   UNL     1       1.909  -4.499  -3.490  0.00  0.00    +0.020 C 
ATOM      9  N   UNL     1       1.813  -5.849  -3.717  0.00  0.00    -0.286 N 
ATOM     10  C   UNL     1       1.616  -6.668  -2.615  0.00  0.00    +0.240 A 
ATOM     11  N   UNL     1       1.696  -7.962  -2.487  0.00  0.00    -0.092 NA
ATOM     12  N   UNL     1       1.437  -8.309  -1.273  0.00  0.00    -0.021 NA
ATOM     13  N   UNL     1       1.175  -7.266  -0.553  0.00  0.00    -0.042 NA
ATOM     14  N   UNL     1       1.278  -6.164  -1.399  0.00  0.00    -0.201 N 
ATOM     15  C   UNL     1       1.087  -4.744  -1.136  0.00  0.00    +0.181 C 
ATOM     16  C   UNL     1       2.394  -3.607  -4.604  0.00  0.00    +0.061 C 
ATOM     17  H   UNL     1       1.879  -6.216  -4.612  0.00  0.00    +0.155 HD
BRANCH   7  18
ATOM     18  C   UNL     1       1.729  -2.547  -2.163  0.00  0.00    +0.339 C 
ATOM     19  O   UNL     1       2.713  -2.091  -1.612  0.00  0.00    -0.245 OA
BRANCH  18  20
ATOM     20  O   UNL     1       0.772  -1.719  -2.632  0.00  0.00    -0.461 OA
BRANCH  20  21
ATOM     21  C   UNL     1       0.981  -0.317  -2.447  0.00  0.00    +0.232 C 
BRANCH  21  23
ATOM     22  C   UNL     1       0.024   1.957  -2.842  0.00  0.00    +0.007 C 
ATOM     23  C   UNL     1      -0.199   0.456  -3.039  0.00  0.00    +0.038 C 
ENDBRANCH  21  23
ENDBRANCH  20  21
ENDBRANCH  18  20
ENDBRANCH   7  18
ENDBRANCH   1  15
BRANCH   5  24
ATOM     24  O   UNL     1      -2.599  -3.143   1.633  0.00  0.00    -0.489 OA
BRANCH  24  25
ATOM     25  C   UNL     1      -1.608  -2.871   2.626  0.00  0.00    +0.226 C 
ATOM     26  C   UNL     1      -2.279  -2.281   3.868  0.00  0.00    +0.048 C 
ENDBRANCH  24  25
ENDBRANCH   5  24
BRANCH   4  27
ATOM     27  O   UNL     1      -4.402  -3.718  -0.369  0.00  0.00    -0.484 OA
BRANCH  27  28
ATOM     28  C   UNL     1      -5.278  -4.040  -1.450  0.00  0.00    +0.265 C 
BRANCH  28  29
ATOM     29  C   UNL     1      -6.695  -3.700  -1.067  0.00  0.00    -0.007 A 
ATOM     30  C   UNL     1      -6.964  -3.156   0.175  0.00  0.00    +0.007 A 
ATOM     31  C   UNL     1      -8.263  -2.844   0.527  0.00  0.00    +0.000 A 
ATOM     32  C   UNL     1      -9.295  -3.075  -0.364  0.00  0.00    +0.000 A 
ATOM     33  C   UNL     1      -9.027  -3.618  -1.606  0.00  0.00    +0.004 A 
ATOM     34  C   UNL     1      -7.726  -3.926  -1.960  0.00  0.00    -0.044 A 
ATOM     35  C   UNL     1      -7.433  -4.513  -3.316  0.00  0.00    +0.044 C 
ENDBRANCH  28  29
ENDBRANCH  27  28
ENDBRANCH   4  27
TORSDOF 10
