REMARK  Name = ZINC15968094
REMARK  7 active torsions:
REMARK  status: ('A' for Active; 'I' for Inactive)
REMARK    1  A    between atoms: C_1  and  C_2
REMARK    2  A    between atoms: C_4  and  C_39
REMARK    3  A    between atoms: C_13  and  C_16
REMARK    4  A    between atoms: C_16  and  C_17
REMARK    5  A    between atoms: C_17  and  C_18
REMARK    6  A    between atoms: N_23  and  C_26
REMARK    7  A    between atoms: C_26  and  C_27
REMARK                            x       y       z     vdW  Elec       q    Type
REMARK                         _______ _______ _______ _____ _____    ______ ____
ROOT
ATOM      1  C   UNL     1      -0.018   1.503   0.010  0.00  0.00    +0.044 C 
ATOM      2  C   UNL     1       0.002  -0.004   0.002  0.00  0.00    -0.050 A 
ATOM      3  C   UNL     1       0.006  -0.691  -1.199  0.00  0.00    +0.008 A 
ATOM      4  C   UNL     1       0.025  -2.070  -1.212  0.00  0.00    -0.029 A 
ATOM      5  C   UNL     1       0.041  -2.782  -0.015  0.00  0.00    +0.042 A 
ATOM      6  C   UNL     1       0.036  -2.081   1.187  0.00  0.00    +0.004 A 
ATOM      7  C   UNL     1       0.023  -0.704   1.195  0.00  0.00    +0.011 A 
ATOM      8  C   UNL     1       0.055  -3.122   2.269  0.00  0.00    +0.136 C 
ATOM      9  C   UNL     1      -1.169  -3.004   3.186  0.00  0.00    +0.122 C 
ATOM     10  C   UNL     1      -0.655  -2.220   4.426  0.00  0.00    +0.107 C 
ATOM     11  C   UNL     1       0.825  -1.915   4.116  0.00  0.00    +0.068 C 
ATOM     12  N   UNL     1       1.232  -2.974   3.145  0.00  0.00    -0.295 NA
ATOM     13  C   UNL     1      -0.749  -3.233   5.543  0.00  0.00    +0.227 C 
ATOM     14  O   UNL     1      -0.432  -3.035   6.697  0.00  0.00    -0.275 OA
ATOM     15  N   UNL     1      -1.236  -4.383   5.062  0.00  0.00    -0.237 N 
ATOM     16  C   UNL     1      -1.520  -4.367   3.739  0.00  0.00    +0.229 C 
ATOM     17  O   UNL     1      -1.979  -5.287   3.096  0.00  0.00    -0.275 OA
ATOM     18  C   UNL     1       0.072  -4.440   1.545  0.00  0.00    +0.243 C 
ATOM     19  O   UNL     1       0.091  -5.543   2.048  0.00  0.00    -0.273 OA
ATOM     20  N   UNL     1       0.061  -4.157   0.228  0.00  0.00    -0.283 N 
ATOM     21  C   UNL     1       0.028  -2.808  -2.526  0.00  0.00    +0.045 C 
ATOM     22  H   UNL     1       1.448  -3.842   3.611  0.00  0.00    +0.123 HD
ATOM     23  H   UNL     1       0.067  -4.830  -0.471  0.00  0.00    +0.155 HD
ENDROOT
BRANCH  11  24
ATOM     24  C   UNL     1       1.669  -2.025   5.388  0.00  0.00    +0.031 C 
BRANCH  24  25
ATOM     25  C   UNL     1       3.106  -1.599   5.085  0.00  0.00    +0.126 C 
BRANCH  25  26
ATOM     26  C   UNL     1       3.937  -1.707   6.338  0.00  0.00    +0.356 C 
ATOM     27  O   UNL     1       3.426  -2.091   7.377  0.00  0.00    -0.246 OA
ATOM     28  O   UNL     1       5.120  -1.412   6.313  0.00  0.00    -0.246 OA
ENDBRANCH  25  26
ENDBRANCH  24  25
ENDBRANCH  11  24
BRANCH  15  29
ATOM     29  C   UNL     1      -1.452  -5.565   5.900  0.00  0.00    +0.151 C 
BRANCH  29  30
ATOM     30  C   UNL     1      -2.846  -5.529   6.470  0.00  0.00    -0.026 A 
ATOM     31  C   UNL     1      -3.080  -4.906   7.681  0.00  0.00    +0.009 A 
ATOM     32  C   UNL     1      -4.358  -4.870   8.208  0.00  0.00    +0.050 A 
ATOM     33  C   UNL     1      -5.407  -5.460   7.522  0.00  0.00    +0.166 A 
ATOM     34  C   UNL     1      -5.171  -6.088   6.302  0.00  0.00    +0.167 A 
ATOM     35  C   UNL     1      -3.889  -6.115   5.777  0.00  0.00    +0.054 A 
ATOM     36  O   UNL     1      -6.352  -6.586   5.831  0.00  0.00    -0.453 OA
ATOM     37  C   UNL     1      -7.237  -6.613   6.967  0.00  0.00    +0.466 C 
ATOM     38  O   UNL     1      -6.736  -5.564   7.816  0.00  0.00    -0.453 OA
ENDBRANCH  29  30
ENDBRANCH  15  29
TORSDOF 5
