REMARK  Name = ZINC06162109
REMARK  16 active torsions:
REMARK  status: ('A' for Active; 'I' for Inactive)
REMARK    1  A    between atoms: C_1  and  C_2
REMARK    2  A    between atoms: C_2  and  C_3
REMARK    3  A    between atoms: C_3  and  C_4
REMARK    4  A    between atoms: C_4  and  O_5
REMARK    5  A    between atoms: O_5  and  C_6
REMARK    6  A    between atoms: C_11  and  C_12
REMARK    7  A    between atoms: C_17  and  C_22
REMARK    8  A    between atoms: C_25  and  O_30
REMARK    9  A    between atoms: C_26  and  O_28
REMARK   10  A    between atoms: O_28  and  C_29
REMARK   11  A    between atoms: O_30  and  C_31
REMARK   12  A    between atoms: C_33  and  C_40
REMARK   13  A    between atoms: C_34  and  C_35
REMARK   14  A    between atoms: C_35  and  O_37
REMARK   15  A    between atoms: O_37  and  C_38
REMARK   16  A    between atoms: C_38  and  C_39
REMARK                            x       y       z     vdW  Elec       q    Type
REMARK                         _______ _______ _______ _____ _____    ______ ____
ROOT
ATOM      1  C   UNL     1       1.307   0.046   7.207  0.00  0.00    +0.096 C 
ATOM      2  C   UNL     1       2.434   0.856   7.796  0.00  0.00    +0.024 C 
ATOM      3  C   UNL     1       2.871   0.620   9.051  0.00  0.00    +0.016 C 
ATOM      4  C   UNL     1       4.001   1.424   9.645  0.00  0.00    +0.059 C 
ATOM      5  C   UNL     1       3.997   2.834   9.051  0.00  0.00    +0.032 C 
ATOM      6  C   UNL     1       4.131   2.722   7.529  0.00  0.00    +0.088 C 
ATOM      7  C   UNL     1       3.014   1.861   7.003  0.00  0.00    +0.162 C 
ATOM      8  O   UNL     1       2.607   2.039   5.872  0.00  0.00    -0.292 OA
ATOM      9  N   UNL     1       2.296  -0.361   9.813  0.00  0.00    -0.321 N 
ATOM     10  C   UNL     1       1.579  -1.367   9.228  0.00  0.00    +0.016 C 
ATOM     11  C   UNL     1       1.091  -1.220   7.984  0.00  0.00    +0.065 C 
ATOM     12  C   UNL     1       1.334  -2.649   9.981  0.00  0.00    +0.061 C 
ATOM     13  H   UNL     1       2.409  -0.345  10.907  0.00  0.00    +0.152 HD
ENDROOT
BRANCH   1  19
ATOM     14  C   UNL     1      -0.600   1.190   6.049  0.00  0.00    +0.125 A 
ATOM     15  C   UNL     1      -1.767   1.940   6.078  0.00  0.00    +0.046 A 
ATOM     16  C   UNL     1      -2.284   2.366   7.286  0.00  0.00    +0.004 A 
ATOM     17  C   UNL     1      -1.638   2.046   8.466  0.00  0.00    +0.001 A 
ATOM     18  C   UNL     1      -0.475   1.299   8.440  0.00  0.00    +0.008 A 
ATOM     19  C   UNL     1       0.042   0.865   7.235  0.00  0.00    +0.006 A 
BRANCH  14  20
ATOM     20  O   UNL     1      -0.090   0.770   4.861  0.00  0.00    -0.492 OA
BRANCH  20  21
ATOM     21  C   UNL     1      -0.808   1.137   3.681  0.00  0.00    +0.229 C 
BRANCH  21  22
ATOM     22  C   UNL     1      -0.087   0.578   2.452  0.00  0.00    +0.041 C 
BRANCH  22  24
ATOM     23  C   UNL     1      -0.135   0.413  -0.040  0.00  0.00    +0.004 C 
ATOM     24  C   UNL     1      -0.856   0.971   1.189  0.00  0.00    -0.000 C 
ENDBRANCH  22  24
ENDBRANCH  21  22
ENDBRANCH  20  21
ENDBRANCH  14  20
ENDBRANCH   1  19
BRANCH   5  25
ATOM     25  C   UNL     1       5.157   3.620   9.605  0.00  0.00    -0.040 A 
ATOM     26  C   UNL     1       6.451   3.174   9.405  0.00  0.00    +0.008 A 
ATOM     27  C   UNL     1       7.519   3.895   9.906  0.00  0.00    +0.049 A 
ATOM     28  C   UNL     1       7.294   5.061  10.620  0.00  0.00    +0.161 A 
ATOM     29  C   UNL     1       5.992   5.506  10.827  0.00  0.00    +0.162 A 
ATOM     30  C   UNL     1       4.926   4.782  10.317  0.00  0.00    +0.053 A 
BRANCH  29  31
ATOM     31  O   UNL     1       5.766   6.650  11.527  0.00  0.00    -0.491 OA
ATOM     32  C   UNL     1       4.405   7.047  11.700  0.00  0.00    +0.277 C 
ENDBRANCH  29  31
BRANCH  28  33
ATOM     33  O   UNL     1       8.344   5.767  11.119  0.00  0.00    -0.491 OA
ATOM     34  C   UNL     1       9.652   5.250  10.868  0.00  0.00    +0.277 C 
ENDBRANCH  28  33
ENDBRANCH   5  25
BRANCH  11  35
ATOM     35  C   UNL     1       0.358  -2.278   7.396  0.00  0.00    +0.338 C 
ATOM     36  O   UNL     1       0.265  -3.346   7.972  0.00  0.00    -0.245 OA
BRANCH  35  37
ATOM     37  O   UNL     1      -0.236  -2.103   6.198  0.00  0.00    -0.462 OA
BRANCH  37  38
ATOM     38  C   UNL     1      -0.959  -3.213   5.664  0.00  0.00    +0.229 C 
ATOM     39  C   UNL     1      -1.558  -2.829   4.310  0.00  0.00    +0.048 C 
ENDBRANCH  37  38
ENDBRANCH  35  37
ENDBRANCH  11  35
TORSDOF 11
