REMARK  Name = ZINC58960867
REMARK  11 active torsions:
REMARK  status: ('A' for Active; 'I' for Inactive)
REMARK    1  A    between atoms: C_1  and  C_2
REMARK    2  A    between atoms: C_2  and  C_3
REMARK    3  A    between atoms: C_4  and  C_34
REMARK    4  A    between atoms: C_6  and  N_10
REMARK    5  A    between atoms: C_7  and  C_8
REMARK    6  A    between atoms: C_11  and  C_13
REMARK    7  A    between atoms: C_13  and  C_15
REMARK    8  A    between atoms: C_13  and  S_16
REMARK    9  A    between atoms: S_16  and  C_17
REMARK   10  A    between atoms: C_19  and  C_27
REMARK   11  A    between atoms: C_21  and  C_23
REMARK                            x       y       z     vdW  Elec       q    Type
REMARK                         _______ _______ _______ _____ _____    ______ ____
ROOT
ATOM      1  S   UNL     1       6.053  -2.049  -6.081  0.00  0.00    -0.074 S 
ENDROOT
BRANCH   1   2
ATOM      2  C   UNL     1       7.785  -2.318  -6.262  0.00  0.00    +0.190 A 
ATOM      3  N   UNL     1       8.327  -2.246  -7.468  0.00  0.00    -0.222 NA
ATOM      4  C   UNL     1       9.632  -2.444  -7.638  0.00  0.00    +0.076 A 
ATOM      5  C   UNL     1      10.424  -2.730  -6.523  0.00  0.00    +0.060 A 
ATOM      6  C   UNL     1       9.817  -2.795  -5.282  0.00  0.00    +0.148 A 
ATOM      7  N   UNL     1       8.514  -2.582  -5.186  0.00  0.00    -0.218 NA
BRANCH   4   8
ATOM      8  C   UNL     1      10.236  -2.364  -8.990  0.00  0.00    +0.001 A 
ATOM      9  C   UNL     1      11.603  -2.579  -9.159  0.00  0.00    +0.011 A 
ATOM     10  C   UNL     1      12.160  -2.503 -10.419  0.00  0.00    +0.020 A 
ATOM     11  C   UNL     1      11.364  -2.214 -11.514  0.00  0.00    +0.041 A 
ATOM     12  C   UNL     1      10.006  -2.000 -11.352  0.00  0.00    +0.020 A 
ATOM     13  C   UNL     1       9.438  -2.079 -10.097  0.00  0.00    +0.011 A 
ATOM     14 CL   UNL     1      12.072  -2.119 -13.097  0.00  0.00    -0.084 Cl
ENDBRANCH   4   8
BRANCH   6  15
ATOM     15  C   UNL     1      10.630  -3.100  -4.050  0.00  0.00    +0.434 C 
ATOM     16  F   UNL     1      11.101  -1.906  -3.494  0.00  0.00    -0.164 F 
ATOM     17  F   UNL     1       9.830  -3.766  -3.116  0.00  0.00    -0.164 F 
ATOM     18  F   UNL     1      11.715  -3.912  -4.398  0.00  0.00    -0.164 F 
ENDBRANCH   6  15
ENDBRANCH   1   2
BRANCH   1  19
ATOM     19  C   UNL     1       5.764  -2.233  -4.300  0.00  0.00    +0.137 C 
ATOM     20  C   UNL     1       6.060  -3.674  -3.881  0.00  0.00    +0.029 C 
BRANCH  19  22
ATOM     21  N   UNL     1       3.986  -1.480  -2.755  0.00  0.00    -0.278 N 
ATOM     22  C   UNL     1       4.327  -1.904  -3.987  0.00  0.00    +0.231 C 
ATOM     23  O   UNL     1       3.478  -2.021  -4.845  0.00  0.00    -0.274 OA
ATOM     24  H   UNL     1       4.665  -1.386  -2.068  0.00  0.00    +0.155 HD
BRANCH  21  28
ATOM     25  C   UNL     1       0.707  -0.490  -1.238  0.00  0.00    -0.018 A 
ATOM     26  C   UNL     1       0.050  -0.726  -2.389  0.00  0.00    -0.007 A 
ATOM     27  S   UNL     1       1.337  -1.266  -3.492  0.00  0.00    -0.077 S 
ATOM     28  C   UNL     1       2.662  -1.177  -2.467  0.00  0.00    +0.090 A 
ATOM     29  C   UNL     1       2.132  -0.726  -1.268  0.00  0.00    +0.084 A 
ATOM     30  C   UNL     1      -1.422  -0.571  -2.674  0.00  0.00    +0.052 C 
BRANCH  25  32
ATOM     31  C   UNL     1      -0.019   1.526   0.010  0.00  0.00    +0.009 C 
ATOM     32  C   UNL     1       0.002  -0.004   0.002  0.00  0.00    +0.034 C 
ENDBRANCH  25  32
BRANCH  29  33
ATOM     33  C   UNL     1       2.955  -0.510  -0.115  0.00  0.00    +0.102 C 
ATOM     34  N   UNL     1       3.607  -0.339   0.799  0.00  0.00    -0.191 NA
ENDBRANCH  29  33
ENDBRANCH  21  28
ENDBRANCH  19  22
ENDBRANCH   1  19
TORSDOF 8
