REMARK  Name = ZINC36498359
REMARK  11 active torsions:
REMARK  status: ('A' for Active; 'I' for Inactive)
REMARK    1  A    between atoms: C_1  and  C_2
REMARK    2  A    between atoms: C_2  and  C_3
REMARK    3  A    between atoms: C_2  and  C_4
REMARK    4  A    between atoms: C_2  and  N_5
REMARK    5  A    between atoms: C_6  and  C_8
REMARK    6  A    between atoms: C_8  and  C_10
REMARK    7  A    between atoms: C_8  and  N_20
REMARK    8  A    between atoms: C_13  and  C_16
REMARK    9  A    between atoms: N_20  and  C_21
REMARK   10  A    between atoms: C_21  and  C_22
REMARK   11  A    between atoms: C_27  and  C_29
REMARK                            x       y       z     vdW  Elec       q    Type
REMARK                         _______ _______ _______ _____ _____    ______ ____
ROOT
ATOM      1  C   UNL     1       2.833  -0.271  -2.782  0.00  0.00    +0.193 C 
ENDROOT
BRANCH   1   2
ATOM      2  C   UNL     1       3.202   0.568  -3.978  0.00  0.00    -0.018 A 
ATOM      3  C   UNL     1       4.307   1.397  -3.926  0.00  0.00    +0.006 A 
ATOM      4  C   UNL     1       4.645   2.167  -5.024  0.00  0.00    +0.013 A 
ATOM      5  C   UNL     1       3.879   2.108  -6.173  0.00  0.00    +0.055 A 
ATOM      6  C   UNL     1       2.775   1.278  -6.225  0.00  0.00    +0.013 A 
ATOM      7  C   UNL     1       2.439   0.505  -5.129  0.00  0.00    +0.006 A 
BRANCH   5   8
ATOM      8  C   UNL     1       4.247   2.948  -7.368  0.00  0.00    +0.417 C 
ATOM      9  F   UNL     1       5.119   2.229  -8.193  0.00  0.00    -0.166 F 
ATOM     10  F   UNL     1       3.090   3.274  -8.084  0.00  0.00    -0.166 F 
ATOM     11  F   UNL     1       4.875   4.122  -6.938  0.00  0.00    -0.166 F 
ENDBRANCH   5   8
ENDBRANCH   1   2
BRANCH   1  13
ATOM     12  N   UNL     1       1.183   1.195  -1.666  0.00  0.00    -0.309 N 
ATOM     13  C   UNL     1       2.405   0.627  -1.651  0.00  0.00    +0.239 C 
ATOM     14  O   UNL     1       3.161   0.840  -0.726  0.00  0.00    -0.273 OA
ATOM     15  H   UNL     1       0.579   1.025  -2.406  0.00  0.00    +0.149 HD
BRANCH  12  17
ATOM     16  C   UNL     1       1.725   3.257  -0.468  0.00  0.00    +0.031 C 
ATOM     17  C   UNL     1       0.767   2.068  -0.566  0.00  0.00    +0.026 C 
ATOM     18  C   UNL     1       0.793   1.283   0.747  0.00  0.00    +0.031 C 
ATOM     19  C   UNL     1      -0.652   2.577  -0.828  0.00  0.00    +0.031 C 
ENDBRANCH  12  17
ENDBRANCH   1  13
BRANCH   1  20
ATOM     20  N   UNL     1       3.993  -1.063  -2.365  0.00  0.00    -0.272 N 
ATOM     21  C   UNL     1       4.234  -2.259  -2.939  0.00  0.00    +0.283 C 
ATOM     22  O   UNL     1       5.093  -2.990  -2.483  0.00  0.00    -0.267 OA
BRANCH  21  23
ATOM     23  C   UNL     1       3.461  -2.678  -4.112  0.00  0.00    +0.189 A 
ATOM     24  C   UNL     1       3.584  -3.868  -4.771  0.00  0.00    +0.054 A 
ATOM     25  C   UNL     1       2.656  -3.844  -5.824  0.00  0.00    +0.042 A 
ATOM     26  C   UNL     1       2.015  -2.656  -5.762  0.00  0.00    +0.196 A 
ATOM     27  O   UNL     1       2.499  -1.958  -4.727  0.00  0.00    -0.458 OA
ENDBRANCH  21  23
BRANCH  20  28
ATOM     28  C   UNL     1       4.890  -0.556  -1.325  0.00  0.00    +0.183 C 
BRANCH  28  29
ATOM     29  C   UNL     1       4.523  -1.173   0.000  0.00  0.00    +0.122 A 
ATOM     30  C   UNL     1       5.025  -2.316   0.501  0.00  0.00    +0.046 A 
ATOM     31  C   UNL     1       4.407  -2.518   1.757  0.00  0.00    +0.041 A 
ATOM     32  C   UNL     1       3.565  -1.487   1.948  0.00  0.00    +0.195 A 
ATOM     33  O   UNL     1       3.644  -0.672   0.883  0.00  0.00    -0.466 OA
ENDBRANCH  28  29
ENDBRANCH  20  28
ENDBRANCH   1  20
TORSDOF 8
