REMARK  Name = ZINC39665978
REMARK  8 active torsions:
REMARK  status: ('A' for Active; 'I' for Inactive)
REMARK    1  A    between atoms: C_1  and  C_2
REMARK    2  A    between atoms: C_5  and  O_8
REMARK    3  A    between atoms: O_8  and  C_9
REMARK    4  A    between atoms: C_9  and  C_11
REMARK    5  A    between atoms: C_9  and  C_12
REMARK    6  A    between atoms: C_12  and  N_13
REMARK    7  A    between atoms: C_14  and  C_16
REMARK    8  A    between atoms: C_27  and  C_29
REMARK                            x       y       z     vdW  Elec       q    Type
REMARK                         _______ _______ _______ _____ _____    ______ ____
ROOT
ATOM      1  C   UNL     1       5.044  -6.666  -0.171  0.00  0.00    +0.100 C 
ATOM      2  C   UNL     1       5.768  -6.039   1.041  0.00  0.00    +0.121 C 
ATOM      3  N   UNL     1       6.337  -7.193   1.776  0.00  0.00    -0.296 N 
ATOM      4  C   UNL     1       6.815  -8.108   0.712  0.00  0.00    +0.115 C 
ATOM      5  C   UNL     1       5.736  -8.023  -0.386  0.00  0.00    -0.004 C 
ATOM      6  C   UNL     1       6.382  -8.073  -1.767  0.00  0.00    -0.010 C 
ATOM      7  C   UNL     1       7.013  -9.451  -1.981  0.00  0.00    -0.082 C 
ATOM      8  N   UNL     1       5.980 -10.488  -1.864  0.00  0.00    +0.379 N 
ATOM      9  C   UNL     1       5.429 -10.494  -0.504  0.00  0.00    -0.082 C 
ATOM     10  C   UNL     1       4.731  -9.159  -0.228  0.00  0.00    -0.010 C 
ATOM     11  C   UNL     1       6.405  -7.371   3.110  0.00  0.00    +0.247 C 
ATOM     12  O   UNL     1       6.014  -6.498   3.860  0.00  0.00    -0.270 OA
ATOM     13  H   UNL     1       5.241 -10.300  -2.525  0.00  0.00    -0.086 HD
ATOM     14  H   UNL     1       6.386 -11.389  -2.065  0.00  0.00    -0.086 HD
ENDROOT
BRANCH  11  15
ATOM     15  C   UNL     1       6.956  -8.628   3.661  0.00  0.00    +0.038 A 
ATOM     16  C   UNL     1       7.916  -9.345   2.946  0.00  0.00    +0.013 A 
ATOM     17  C   UNL     1       8.426 -10.517   3.466  0.00  0.00    +0.002 A 
ATOM     18  C   UNL     1       7.987 -10.982   4.693  0.00  0.00    +0.015 A 
ATOM     19  C   UNL     1       7.035 -10.276   5.407  0.00  0.00    +0.019 A 
ATOM     20  C   UNL     1       6.522  -9.098   4.901  0.00  0.00    +0.028 A 
ATOM     21 BR   UNL     1       6.441 -10.921   7.082  0.00  0.00    -0.050 Br
ENDBRANCH  11  15
BRANCH   1  23
ATOM     22  N   UNL     1       2.688  -6.961  -0.867  0.00  0.00    -0.312 N 
ATOM     23  C   UNL     1       3.582  -6.866   0.137  0.00  0.00    +0.218 C 
ATOM     24  O   UNL     1       3.210  -6.941   1.289  0.00  0.00    -0.275 OA
ATOM     25  H   UNL     1       2.986  -6.901  -1.788  0.00  0.00    +0.149 HD
BRANCH  22  26
ATOM     26  C   UNL     1       1.268  -7.155  -0.567  0.00  0.00    +0.148 C 
BRANCH  26  27
ATOM     27  C   UNL     1       0.476  -7.230  -1.875  0.00  0.00    +0.187 C 
ATOM     28  C   UNL     1      -1.019  -7.307  -1.562  0.00  0.00    +0.053 C 
BRANCH  27  29
ATOM     29  O   UNL     1       0.871  -8.393  -2.605  0.00  0.00    -0.488 OA
BRANCH  29  34
ATOM     30  C   UNL     1       0.441  -8.160  -8.216  0.00  0.00    +0.044 C 
ATOM     31  C   UNL     1       0.555  -8.222  -6.714  0.00  0.00    -0.050 A 
ATOM     32  C   UNL     1       0.090  -7.174  -5.942  0.00  0.00    +0.007 A 
ATOM     33  C   UNL     1       0.194  -7.229  -4.566  0.00  0.00    +0.046 A 
ATOM     34  C   UNL     1       0.767  -8.337  -3.958  0.00  0.00    +0.121 A 
ATOM     35  C   UNL     1       1.233  -9.388  -4.735  0.00  0.00    +0.046 A 
ATOM     36  C   UNL     1       1.121  -9.330  -6.111  0.00  0.00    +0.007 A 
ENDBRANCH  29  34
ENDBRANCH  27  29
ENDBRANCH  26  27
ENDBRANCH  22  26
ENDBRANCH   1  23
TORSDOF 6
