REMARK  Name = ZINC35512726
REMARK  4 active torsions:
REMARK  status: ('A' for Active; 'I' for Inactive)
REMARK    1  A    between atoms: C_1  and  O_2
REMARK    2  A    between atoms: O_2  and  C_3
REMARK    3  A    between atoms: C_5  and  C_10
REMARK    4  A    between atoms: C_8  and  O_9
REMARK                            x       y       z     vdW  Elec       q    Type
REMARK                         _______ _______ _______ _____ _____    ______ ____
ROOT
ATOM      1  C   UNL     1      -4.871   0.257   0.037  0.00  0.00    +0.152 C 
ATOM      2  C   UNL     1      -5.441   0.302   1.417  0.00  0.00    +0.072 A 
ATOM      3  C   UNL     1      -4.892   0.824   2.672  0.00  0.00    +0.199 A 
ATOM      4  O   UNL     1      -3.875   1.493   2.729  0.00  0.00    -0.287 OA
ATOM      5  C   UNL     1      -5.694   0.461   3.868  0.00  0.00    +0.065 A 
ATOM      6  C   UNL     1      -5.202   0.710   5.150  0.00  0.00    +0.030 A 
ATOM      7  C   UNL     1      -5.957   0.361   6.248  0.00  0.00    +0.019 A 
ATOM      8  C   UNL     1      -7.201  -0.234   6.077  0.00  0.00    +0.019 A 
ATOM      9  C   UNL     1      -7.696  -0.482   4.817  0.00  0.00    +0.048 A 
ATOM     10  C   UNL     1      -6.952  -0.137   3.690  0.00  0.00    +0.140 A 
ATOM     11  O   UNL     1      -7.467  -0.383   2.463  0.00  0.00    -0.450 OA
ATOM     12  C   UNL     1      -6.680  -0.272   1.375  0.00  0.00    +0.199 A 
ATOM     13  C   UNL     1      -6.942  -0.705  -0.008  0.00  0.00    +0.289 C 
ATOM     14  O   UNL     1      -7.957  -1.257  -0.384  0.00  0.00    -0.266 OA
ATOM     15  N   UNL     1      -5.891  -0.398  -0.798  0.00  0.00    -0.232 N 
ATOM     16  C   UNL     1      -5.789  -0.654  -2.158  0.00  0.00    +0.168 A 
ATOM     17  N   UNL     1      -4.789  -0.382  -2.969  0.00  0.00    -0.233 NA
ATOM     18  C   UNL     1      -4.846  -0.693  -4.250  0.00  0.00    +0.120 A 
ATOM     19  C   UNL     1      -5.976  -1.303  -4.687  0.00  0.00    +0.068 A 
ATOM     20  S   UNL     1      -6.912  -1.396  -3.170  0.00  0.00    -0.060 S 
ATOM     21 BR   UNL     1      -5.301   0.694   7.990  0.00  0.00    -0.050 Br
ENDROOT
BRANCH   1  24
ATOM     22  C   UNL     1      -1.201  -0.638   0.010  0.00  0.00    +0.162 A 
ATOM     23  C   UNL     1      -2.374   0.099   0.019  0.00  0.00    +0.055 A 
ATOM     24  C   UNL     1      -3.596  -0.546   0.027  0.00  0.00    -0.018 A 
ATOM     25  C   UNL     1      -3.652  -1.928   0.026  0.00  0.00    +0.009 A 
ATOM     26  C   UNL     1      -2.485  -2.669   0.017  0.00  0.00    +0.049 A 
ATOM     27  C   UNL     1      -1.257  -2.028   0.003  0.00  0.00    +0.158 A 
BRANCH  22  29
ATOM     28  C   UNL     1      -0.017   1.425   0.010  0.00  0.00    +0.277 C 
ATOM     29  O   UNL     1       0.002  -0.004   0.002  0.00  0.00    -0.491 OA
ENDBRANCH  22  29
BRANCH  27  30
ATOM     30  O   UNL     1      -0.108  -2.756  -0.012  0.00  0.00    -0.503 OA
ATOM     31  H   UNL     1       0.232  -2.972   0.867  0.00  0.00    +0.292 HD
ENDBRANCH  27  30
ENDBRANCH   1  24
TORSDOF 3
