REMARK  Name = ZINC38733488
REMARK  4 active torsions:
REMARK  status: ('A' for Active; 'I' for Inactive)
REMARK    1  A    between atoms: C_13  and  C_15
REMARK    2  A    between atoms: C_21  and  C_23
REMARK    3  A    between atoms: C_28  and  C_31
REMARK    4  A    between atoms: C_28  and  O_38
REMARK                            x       y       z     vdW  Elec       q    Type
REMARK                         _______ _______ _______ _____ _____    ______ ____
ROOT
ATOM      1  C   UNL     1      -0.035  -6.653   1.159  0.00  0.00    +0.091 C 
ATOM      2  C   UNL     1      -0.792  -6.401  -0.147  0.00  0.00    +0.040 C 
ATOM      3  C   UNL     1      -1.931  -7.370  -0.279  0.00  0.00    -0.030 C 
ATOM      4  C   UNL     1      -2.035  -8.464   0.405  0.00  0.00    -0.030 C 
ATOM      5  C   UNL     1      -1.038  -8.912   1.433  0.00  0.00    +0.040 C 
ATOM      6  C   UNL     1       0.278  -8.152   1.262  0.00  0.00    +0.091 C 
ENDROOT
BRANCH   1  19
ATOM      7  C   UNL     1       0.276   0.847   4.228  0.00  0.00    +0.005 A 
ATOM      8  C   UNL     1       1.487   1.526   4.231  0.00  0.00    +0.018 A 
ATOM      9  C   UNL     1       2.643   0.848   3.901  0.00  0.00    +0.084 A 
ATOM     10  N   UNL     1       2.609  -0.432   3.582  0.00  0.00    -0.350 N 
ATOM     11  C   UNL     1       1.474  -1.114   3.567  0.00  0.00    +0.099 A 
ATOM     12  C   UNL     1       0.271  -0.494   3.890  0.00  0.00    +0.042 A 
ATOM     13  N   UNL     1       1.485  -2.462   3.225  0.00  0.00    -0.314 N 
ATOM     14  C   UNL     1       0.256  -3.264   3.309  0.00  0.00    +0.125 C 
ATOM     15  C   UNL     1       0.000  -3.912   1.943  0.00  0.00    +0.126 C 
ATOM     16  N   UNL     1       1.240  -4.560   1.490  0.00  0.00    -0.298 N 
ATOM     17  C   UNL     1       2.468  -3.757   1.407  0.00  0.00    +0.126 C 
ATOM     18  C   UNL     1       2.723  -3.107   2.767  0.00  0.00    +0.125 C 
ATOM     19  C   UNL     1       1.250  -5.866   1.159  0.00  0.00    +0.220 C 
ATOM     20  O   UNL     1       2.293  -6.408   0.861  0.00  0.00    -0.275 OA
ATOM     21  H   UNL     1       3.436  -0.885   3.354  0.00  0.00    +0.166 HD
ENDBRANCH   1  19
BRANCH   6  22
ATOM     22  C   UNL     1       1.171  -8.402   2.450  0.00  0.00    +0.220 C 
ATOM     23  O   UNL     1       1.169  -7.628   3.384  0.00  0.00    -0.275 OA
ATOM     24  N   UNL     1       1.971  -9.486   2.475  0.00  0.00    -0.301 N 
ATOM     25  C   UNL     1       2.071 -10.370   1.306  0.00  0.00    +0.111 C 
ATOM     26  C   UNL     1       1.780 -11.808   1.748  0.00  0.00    +0.058 C 
ATOM     27  C   UNL     1       2.716 -12.181   2.901  0.00  0.00    +0.094 C 
ATOM     28  C   UNL     1       2.462 -11.250   4.088  0.00  0.00    +0.058 C 
ATOM     29  C   UNL     1       2.765  -9.803   3.670  0.00  0.00    +0.111 C 
BRANCH  27  30
ATOM     30  C   UNL     1       2.456 -13.607   3.316  0.00  0.00    -0.016 A 
ATOM     31  C   UNL     1       1.193 -14.150   3.168  0.00  0.00    +0.008 A 
ATOM     32  C   UNL     1       0.954 -15.457   3.549  0.00  0.00    +0.020 A 
ATOM     33  C   UNL     1       1.979 -16.221   4.079  0.00  0.00    +0.041 A 
ATOM     34  C   UNL     1       3.242 -15.677   4.226  0.00  0.00    +0.020 A 
ATOM     35  C   UNL     1       3.481 -14.371   3.840  0.00  0.00    +0.008 A 
ATOM     36 CL   UNL     1       1.679 -17.863   4.558  0.00  0.00    -0.084 Cl
ENDBRANCH  27  30
BRANCH  27  37
ATOM     37  O   UNL     1       4.073 -12.050   2.473  0.00  0.00    -0.384 OA
ATOM     38  H   UNL     1       4.723 -12.272   3.154  0.00  0.00    +0.211 HD
ENDBRANCH  27  37
ENDBRANCH   6  22
TORSDOF 4
