REMARK  Name = ZINC59057313
REMARK  11 active torsions:
REMARK  status: ('A' for Active; 'I' for Inactive)
REMARK    1  A    between atoms: C_1  and  C_2
REMARK    2  A    between atoms: C_5  and  C_36
REMARK    3  A    between atoms: N_8  and  C_10
REMARK    4  A    between atoms: C_10  and  C_11
REMARK    5  A    between atoms: C_14  and  C_17
REMARK    6  A    between atoms: C_17  and  N_18
REMARK    7  A    between atoms: C_19  and  C_21
REMARK    8  A    between atoms: C_21  and  C_23
REMARK    9  A    between atoms: C_21  and  N_24
REMARK   10  A    between atoms: C_25  and  C_27
REMARK   11  A    between atoms: C_31  and  N_33
REMARK                            x       y       z     vdW  Elec       q    Type
REMARK                         _______ _______ _______ _____ _____    ______ ____
ROOT
ATOM      1  N   UNL     1       6.092   2.991   2.490  0.00  0.00    -0.310 N 
ATOM      2  C   UNL     1       7.220   3.699   2.287  0.00  0.00    +0.233 C 
ATOM      3  O   UNL     1       8.137   3.621   3.078  0.00  0.00    -0.274 OA
ATOM      4  H   UNL     1       5.359   3.054   1.858  0.00  0.00    +0.149 HD
ENDROOT
BRANCH   2   5
ATOM      5  C   UNL     1       7.343   4.590   1.077  0.00  0.00    +0.156 C 
ATOM      6  C   UNL     1       6.241   5.650   1.110  0.00  0.00    +0.038 C 
BRANCH   5   7
ATOM      7  N   UNL     1       8.653   5.246   1.085  0.00  0.00    -0.300 N 
ATOM      8  C   UNL     1       9.203   5.667  -0.071  0.00  0.00    +0.245 C 
ATOM      9  O   UNL     1       8.612   5.502  -1.121  0.00  0.00    -0.270 OA
ATOM     10  H   UNL     1       9.125   5.377   1.922  0.00  0.00    +0.150 HD
BRANCH   8  11
ATOM     11  C   UNL     1      10.525   6.329  -0.064  0.00  0.00    +0.039 A 
ATOM     12  C   UNL     1      11.209   6.514   1.139  0.00  0.00    +0.013 A 
ATOM     13  C   UNL     1      12.442   7.133   1.139  0.00  0.00    +0.003 A 
ATOM     14  C   UNL     1      13.001   7.569  -0.049  0.00  0.00    +0.033 A 
ATOM     15  C   UNL     1      12.328   7.389  -1.244  0.00  0.00    +0.127 A 
ATOM     16  C   UNL     1      11.096   6.766  -1.259  0.00  0.00    +0.045 A 
BRANCH  15  17
ATOM     17  N   UNL     1      12.933   7.859  -2.511  0.00  0.00    +0.056 N 
ATOM     18  O   UNL     1      14.014   8.400  -2.500  0.00  0.00    -0.126 OA
ATOM     19  O   UNL     1      12.346   7.703  -3.556  0.00  0.00    -0.126 OA
ENDBRANCH  15  17
ENDBRANCH   8  11
ENDBRANCH   5   7
ENDBRANCH   2   5
BRANCH   1  20
ATOM     20  C   UNL     1       5.973   2.125   3.666  0.00  0.00    +0.139 C 
BRANCH  20  24
ATOM     21  C   UNL     1       2.154   0.211   3.646  0.00  0.00    -0.064 A 
ATOM     22  C   UNL     1       3.232  -0.391   3.024  0.00  0.00    +0.002 A 
ATOM     23  C   UNL     1       4.468   0.229   3.031  0.00  0.00    +0.005 A 
ATOM     24  C   UNL     1       4.625   1.450   3.658  0.00  0.00    -0.030 A 
ATOM     25  C   UNL     1       3.547   2.053   4.279  0.00  0.00    +0.005 A 
ATOM     26  C   UNL     1       2.310   1.435   4.269  0.00  0.00    +0.002 A 
BRANCH  21  27
ATOM     27  C   UNL     1       0.807  -0.464   3.639  0.00  0.00    -0.043 C 
BRANCH  27  33
ATOM     28  C   UNL     1      -0.019   1.526   0.010  0.00  0.00    +0.005 C 
ATOM     29  C   UNL     1       0.002  -0.004   0.002  0.00  0.00    -0.031 C 
ATOM     30  C   UNL     1      -1.434  -0.535   0.015  0.00  0.00    +0.003 C 
ATOM     31  C   UNL     1      -2.117  -0.099   1.315  0.00  0.00    -0.031 C 
ATOM     32  C   UNL     1      -1.302  -0.604   2.507  0.00  0.00    -0.075 C 
ATOM     33  N   UNL     1       0.052  -0.040   2.452  0.00  0.00    +0.383 N 
ATOM     34  C   UNL     1       0.740  -0.512   1.242  0.00  0.00    -0.075 C 
ATOM     35  C   UNL     1      -3.528  -0.689   1.373  0.00  0.00    +0.005 C 
ATOM     36  H   UNL     1      -0.004   0.967   2.434  0.00  0.00    -0.081 HD
ENDBRANCH  27  33
ENDBRANCH  21  27
ENDBRANCH  20  24
ENDBRANCH   1  20
TORSDOF 8
