REMARK  Name = ZINC43632442
REMARK  7 active torsions:
REMARK  status: ('A' for Active; 'I' for Inactive)
REMARK    1  A    between atoms: C_1  and  O_2
REMARK    2  A    between atoms: O_2  and  C_3
REMARK    3  A    between atoms: C_3  and  C_5
REMARK    4  A    between atoms: C_6  and  N_27
REMARK    5  A    between atoms: C_10  and  C_14
REMARK    6  A    between atoms: C_14  and  N_15
REMARK    7  A    between atoms: C_28  and  C_30
REMARK                            x       y       z     vdW  Elec       q    Type
REMARK                         _______ _______ _______ _____ _____    ______ ____
ROOT
ATOM      1  C   UNL     1      -1.383  -2.215  -0.640  0.00  0.00    +0.120 A 
ATOM      2  C   UNL     1      -2.356  -2.860   0.092  0.00  0.00    +0.064 A 
ATOM      3  C   UNL     1      -2.017  -4.124   0.727  0.00  0.00    +0.030 A 
ATOM      4  C   UNL     1      -2.838  -4.963   1.522  0.00  0.00    +0.014 A 
ATOM      5  C   UNL     1      -2.308  -6.125   2.030  0.00  0.00    +0.022 A 
ATOM      6  C   UNL     1      -0.990  -6.470   1.767  0.00  0.00    +0.026 A 
ATOM      7  N   UNL     1      -0.230  -5.687   1.028  0.00  0.00    -0.246 NA
ATOM      8  C   UNL     1      -0.690  -4.564   0.519  0.00  0.00    +0.111 A 
ATOM      9  S   UNL     1       0.025  -3.299  -0.501  0.00  0.00    -0.060 S 
ENDROOT
BRANCH   2  10
ATOM     10  N   UNL     1      -3.629  -2.317   0.220  0.00  0.00    -0.280 N 
ATOM     11  C   UNL     1      -4.714  -3.109   0.110  0.00  0.00    +0.251 C 
ATOM     12  O   UNL     1      -4.579  -4.312  -0.006  0.00  0.00    -0.270 OA
ATOM     13  H   UNL     1      -3.737  -1.368   0.390  0.00  0.00    +0.155 HD
BRANCH  11  14
ATOM     14  C   UNL     1      -6.063  -2.517   0.129  0.00  0.00    +0.075 A 
ATOM     15  C   UNL     1      -7.347  -3.227   0.027  0.00  0.00    +0.054 A 
ATOM     16  C   UNL     1      -8.297  -2.282   0.090  0.00  0.00    +0.195 A 
ATOM     17  O   UNL     1      -7.714  -1.080   0.221  0.00  0.00    -0.470 OA
ATOM     18  C   UNL     1      -6.383  -1.197   0.252  0.00  0.00    +0.207 A 
ENDBRANCH  11  14
ENDBRANCH   2  10
BRANCH   1  19
ATOM     19  C   UNL     1      -1.481  -0.987  -1.341  0.00  0.00    +0.348 C 
ATOM     20  O   UNL     1      -2.553  -0.416  -1.421  0.00  0.00    -0.244 OA
BRANCH  19  22
ATOM     21  C   UNL     1      -0.557   0.789  -2.608  0.00  0.00    +0.280 C 
ATOM     22  O   UNL     1      -0.386  -0.451  -1.919  0.00  0.00    -0.464 OA
ENDBRANCH  19  22
ENDBRANCH   1  19
BRANCH   6  23
ATOM     23  C   UNL     1      -0.424  -7.748   2.330  0.00  0.00    -0.022 C 
BRANCH  23  24
ATOM     24  N   UNL     1      -0.537  -8.817   1.329  0.00  0.00    +0.384 N 
ATOM     25  C   UNL     1      -1.954  -9.088   1.064  0.00  0.00    -0.078 C 
ATOM     26  C   UNL     1      -2.084 -10.151  -0.030  0.00  0.00    -0.015 C 
ATOM     27  C   UNL     1      -1.392 -11.433   0.436  0.00  0.00    -0.011 C 
ATOM     28  C   UNL     1      -1.446 -12.491  -0.666  0.00  0.00    +0.004 C 
ATOM     29  C   UNL     1      -0.752 -13.765  -0.176  0.00  0.00    +0.000 C 
ATOM     30  C   UNL     1       0.705 -13.457   0.172  0.00  0.00    +0.000 C 
ATOM     31  C   UNL     1       0.760 -12.387   1.265  0.00  0.00    +0.002 C 
ATOM     32  C   UNL     1       0.071 -11.117   0.763  0.00  0.00    -0.025 C 
ATOM     33  C   UNL     1       0.122 -10.028   1.834  0.00  0.00    -0.075 C 
ATOM     34  H   UNL     1      -0.088  -8.523   0.474  0.00  0.00    -0.081 HD
ENDBRANCH  23  24
ENDBRANCH   6  23
TORSDOF 6
