REMARK  Name = ZINC11974876
REMARK  11 active torsions:
REMARK  status: ('A' for Active; 'I' for Inactive)
REMARK    1  A    between atoms: C_1  and  C_2
REMARK    2  A    between atoms: C_6  and  C_7
REMARK    3  A    between atoms: C_7  and  N_66
REMARK    4  A    between atoms: C_9  and  N_30
REMARK    5  A    between atoms: C_12  and  C_14
REMARK    6  A    between atoms: N_16  and  C_17
REMARK    7  A    between atoms: C_17  and  C_18
REMARK    8  A    between atoms: C_17  and  C_24
REMARK    9  A    between atoms: C_32  and  C_35
REMARK   10  A    between atoms: C_35  and  O_37
REMARK   11  A    between atoms: O_37  and  C_38
REMARK                            x       y       z     vdW  Elec       q    Type
REMARK                         _______ _______ _______ _____ _____    ______ ____
ROOT
ATOM      1  C   UNL     1      -6.783   2.025   3.843  0.00  0.00    -0.050 C 
ATOM      2  C   UNL     1      -5.675   2.237   4.896  0.00  0.00    +0.091 C 
ATOM      3  C   UNL     1      -5.728   0.985   5.795  0.00  0.00    +0.019 C 
ATOM      4  C   UNL     1      -6.865   0.119   5.205  0.00  0.00    +0.022 C 
ATOM      5  N   UNL     1      -7.700   1.091   4.492  0.00  0.00    +0.392 N 
ATOM      6  H   UNL     1      -8.300   1.594   5.156  0.00  0.00    -0.080 HD
ENDROOT
BRANCH   2   7
ATOM      7  N   UNL     1      -4.367   2.342   4.245  0.00  0.00    -0.250 N 
ATOM      8  C   UNL     1      -3.982   1.723   3.111  0.00  0.00    +0.145 A 
ATOM      9  C   UNL     1      -2.691   2.100   2.872  0.00  0.00    +0.189 A 
ATOM     10  N   UNL     1      -2.307   2.943   3.847  0.00  0.00    -0.123 NA
ATOM     11  N   UNL     1      -3.276   3.109   4.678  0.00  0.00    -0.065 NA
BRANCH   9  12
ATOM     12  C   UNL     1      -1.861   1.662   1.736  0.00  0.00    +0.361 C 
ATOM     13  O   UNL     1      -2.316   0.894   0.911  0.00  0.00    -0.243 OA
BRANCH  12  14
ATOM     14  O   UNL     1      -0.597   2.113   1.611  0.00  0.00    -0.463 OA
ATOM     15  C   UNL     1       0.162   1.639   0.467  0.00  0.00    +0.280 C 
ENDBRANCH  12  14
ENDBRANCH   9  12
ENDBRANCH   2   7
BRANCH   4  16
ATOM     16  C   UNL     1      -7.634  -0.563   6.307  0.00  0.00    +0.200 C 
ATOM     17  O   UNL     1      -8.800  -0.285   6.494  0.00  0.00    -0.278 OA
ATOM     18  N   UNL     1      -7.026  -1.480   7.086  0.00  0.00    -0.306 N 
ATOM     19  H   UNL     1      -6.094  -1.701   6.936  0.00  0.00    +0.150 HD
BRANCH  18  20
ATOM     20  C   UNL     1      -7.774  -2.142   8.158  0.00  0.00    +0.133 C 
BRANCH  20  21
ATOM     21  C   UNL     1      -7.145  -3.478   8.458  0.00  0.00    -0.023 A 
ATOM     22  C   UNL     1      -5.769  -3.607   8.466  0.00  0.00    +0.006 A 
ATOM     23  C   UNL     1      -5.191  -4.832   8.746  0.00  0.00    +0.000 A 
ATOM     24  C   UNL     1      -5.990  -5.929   9.008  0.00  0.00    +0.000 A 
ATOM     25  C   UNL     1      -7.367  -5.801   8.995  0.00  0.00    +0.000 A 
ATOM     26  C   UNL     1      -7.944  -4.575   8.719  0.00  0.00    +0.006 A 
ENDBRANCH  20  21
BRANCH  20  27
ATOM     27  C   UNL     1      -7.745  -1.283   9.396  0.00  0.00    -0.023 A 
ATOM     28  C   UNL     1      -6.583  -0.623   9.751  0.00  0.00    +0.006 A 
ATOM     29  C   UNL     1      -6.557   0.168  10.885  0.00  0.00    +0.000 A 
ATOM     30  C   UNL     1      -7.690   0.292  11.667  0.00  0.00    +0.000 A 
ATOM     31  C   UNL     1      -8.850  -0.372  11.314  0.00  0.00    +0.000 A 
ATOM     32  C   UNL     1      -8.877  -1.160  10.178  0.00  0.00    +0.006 A 
ENDBRANCH  20  27
ENDBRANCH  18  20
ENDBRANCH   4  16
BRANCH   5  33
ATOM     33  C   UNL     1      -8.560   0.400   3.480  0.00  0.00    -0.034 C 
BRANCH  33  39
ATOM     34  C   UNL     1     -11.306   0.940   4.746  0.00  0.00    +0.044 C 
ATOM     35  C   UNL     1     -10.838   1.621   3.486  0.00  0.00    -0.042 A 
ATOM     36  C   UNL     1     -11.649   2.536   2.841  0.00  0.00    +0.011 A 
ATOM     37  C   UNL     1     -11.198   3.131   1.709  0.00  0.00    +0.045 A 
ATOM     38  S   UNL     1      -9.578   2.401   1.529  0.00  0.00    -0.103 S 
ATOM     39  C   UNL     1      -9.616   1.346   2.969  0.00  0.00    -0.024 A 
ENDBRANCH  33  39
ENDBRANCH   5  33
TORSDOF 9
