REMARK  Name = ZINC63386208
REMARK  9 active torsions:
REMARK  status: ('A' for Active; 'I' for Inactive)
REMARK    1  A    between atoms: C_1  and  O_2
REMARK    2  A    between atoms: O_2  and  C_3
REMARK    3  A    between atoms: C_7  and  C_9
REMARK    4  A    between atoms: N_17  and  C_18
REMARK    5  A    between atoms: C_18  and  C_19
REMARK    6  A    between atoms: C_19  and  C_20
REMARK    7  A    between atoms: C_23  and  O_29
REMARK    8  A    between atoms: O_29  and  C_30
REMARK    9  A    between atoms: C_33  and  C_34
REMARK                            x       y       z     vdW  Elec       q    Type
REMARK                         _______ _______ _______ _____ _____    ______ ____
ROOT
ATOM      1  C   UNL     1       1.325  -4.106  -2.289  0.00  0.00    +0.118 C 
ATOM      2  C   UNL     1       0.215  -4.644  -3.188  0.00  0.00    +0.098 C 
ATOM      3  C   UNL     1       0.919  -4.228  -4.547  0.00  0.00    +0.186 C 
ATOM      4  C   UNL     1       2.267  -4.718  -4.352  0.00  0.00    +0.239 C 
ATOM      5  O   UNL     1       3.001  -5.172  -5.204  0.00  0.00    -0.273 OA
ATOM      6  N   UNL     1       2.554  -4.557  -3.010  0.00  0.00    -0.292 N 
ATOM      7  N   UNL     1      -0.173  -4.427  -5.422  0.00  0.00    -0.256 N 
ATOM      8  N   UNL     1      -1.251  -3.817  -4.702  0.00  0.00    -0.187 NA
ATOM      9  C   UNL     1      -1.064  -3.897  -3.378  0.00  0.00    +0.108 C 
ATOM     10  H   UNL     1      -0.188  -4.864  -6.288  0.00  0.00    +0.169 HD
ENDROOT
BRANCH   1  15
ATOM     11  C   UNL     1       0.539  -0.607  -1.096  0.00  0.00    +0.120 A 
ATOM     12  C   UNL     1       1.173   0.161  -2.062  0.00  0.00    +0.045 A 
ATOM     13  C   UNL     1       1.853  -0.454  -3.096  0.00  0.00    +0.004 A 
ATOM     14  C   UNL     1       1.902  -1.834  -3.168  0.00  0.00    +0.006 A 
ATOM     15  C   UNL     1       1.271  -2.602  -2.207  0.00  0.00    -0.023 A 
ATOM     16  C   UNL     1       0.594  -1.992  -1.168  0.00  0.00    +0.051 A 
BRANCH  11  18
ATOM     17  C   UNL     1      -0.144   1.424  -0.068  0.00  0.00    +0.277 C 
ATOM     18  O   UNL     1      -0.129  -0.004  -0.078  0.00  0.00    -0.495 OA
ENDBRANCH  11  18
ENDBRANCH   1  15
BRANCH   9  19
ATOM     19  C   UNL     1      -1.929  -3.360  -2.322  0.00  0.00    +0.151 A 
ATOM     20  C   UNL     1      -3.099  -2.684  -2.510  0.00  0.00    +0.051 A 
ATOM     21  C   UNL     1      -3.589  -2.359  -1.230  0.00  0.00    +0.042 A 
ATOM     22  C   UNL     1      -2.708  -2.846  -0.333  0.00  0.00    +0.196 A 
ATOM     23  O   UNL     1      -1.709  -3.454  -0.995  0.00  0.00    -0.462 OA
ENDBRANCH   9  19
BRANCH   6  24
ATOM     24  C   UNL     1       3.859  -4.799  -2.388  0.00  0.00    +0.113 C 
BRANCH  24  25
ATOM     25  C   UNL     1       3.946  -6.258  -1.937  0.00  0.00    +0.052 C 
BRANCH  25  26
ATOM     26  C   UNL     1       5.288  -6.507  -1.298  0.00  0.00    -0.040 C 
ATOM     27  C   UNL     1       5.580  -6.463   0.022  0.00  0.00    +0.002 A 
ATOM     28  C   UNL     1       4.771  -6.183   1.212  0.00  0.00    +0.055 A 
ATOM     29  C   UNL     1       5.351  -6.211   2.436  0.00  0.00    +0.121 A 
ATOM     30  C   UNL     1       6.715  -6.503   2.613  0.00  0.00    +0.047 A 
ATOM     31  C   UNL     1       7.541  -6.774   1.580  0.00  0.00    +0.029 A 
ATOM     32  C   UNL     1       7.017  -6.771   0.210  0.00  0.00    +0.043 A 
ATOM     33  N   UNL     1       7.590  -6.995  -0.947  0.00  0.00    -0.380 N 
ATOM     34  C   UNL     1       6.579  -6.861  -2.002  0.00  0.00    +0.144 C 
ATOM     35  H   UNL     1       8.524  -7.215  -1.083  0.00  0.00    +0.160 HD
BRANCH  29  36
ATOM     36  O   UNL     1       4.589  -5.949   3.530  0.00  0.00    -0.495 OA
ATOM     37  C   UNL     1       5.241  -5.990   4.801  0.00  0.00    +0.277 C 
ENDBRANCH  29  36
ENDBRANCH  25  26
ENDBRANCH  24  25
ENDBRANCH   6  24
TORSDOF 7
