REMARK  Name = ZINC03227199
REMARK  10 active torsions:
REMARK  status: ('A' for Active; 'I' for Inactive)
REMARK    1  A    between atoms: C_1  and  C_2
REMARK    2  A    between atoms: C_2  and  C_3
REMARK    3  A    between atoms: C_3  and  N_4
REMARK    4  A    between atoms: C_13  and  S_14
REMARK    5  A    between atoms: S_14  and  C_15
REMARK    6  A    between atoms: C_15  and  C_16
REMARK    7  A    between atoms: N_18  and  C_19
REMARK    8  A    between atoms: C_20  and  C_27
REMARK    9  A    between atoms: C_27  and  O_29
REMARK   10  A    between atoms: O_29  and  C_30
REMARK                            x       y       z     vdW  Elec       q    Type
REMARK                         _______ _______ _______ _____ _____    ______ ____
ROOT
ATOM      1  S   UNL     1       0.950   3.699   1.020  0.00  0.00    -0.078 S 
ENDROOT
BRANCH   1  11
ATOM      2  N   UNL     1      -0.698   1.558   1.213  0.00  0.00    -0.287 N 
ATOM      3  C   UNL     1      -1.671   0.804   1.758  0.00  0.00    +0.263 A 
ATOM      4  O   UNL     1      -1.982  -0.262   1.254  0.00  0.00    -0.267 OA
ATOM      5  C   UNL     1      -2.336   1.272   2.935  0.00  0.00    +0.076 A 
ATOM      6  C   UNL     1      -3.411   0.622   3.688  0.00  0.00    -0.023 A 
ATOM      7  C   UNL     1      -3.875   1.270   4.775  0.00  0.00    -0.004 A 
ATOM      8  S   UNL     1      -2.924   2.763   4.862  0.00  0.00    -0.073 S 
ATOM      9  C   UNL     1      -1.902   2.512   3.433  0.00  0.00    +0.117 A 
ATOM     10  N   UNL     1      -0.934   3.207   2.848  0.00  0.00    -0.216 NA
ATOM     11  C   UNL     1      -0.335   2.752   1.766  0.00  0.00    +0.173 A 
ATOM     12  C   UNL     1      -4.961   0.821   5.705  0.00  0.00    +0.043 C 
ATOM     13  C   UNL     1      -5.734  -0.322   5.032  0.00  0.00    +0.005 C 
ATOM     14  C   UNL     1      -4.728  -1.333   4.473  0.00  0.00    +0.005 C 
ATOM     15  C   UNL     1      -3.993  -0.728   3.277  0.00  0.00    +0.037 C 
BRANCH   2  16
ATOM     16  C   UNL     1      -0.013   1.086   0.008  0.00  0.00    +0.127 C 
BRANCH  16  18
ATOM     17  C   UNL     1      -0.037   1.099  -2.490  0.00  0.00    +0.005 C 
ATOM     18  C   UNL     1      -0.753   1.593  -1.232  0.00  0.00    +0.018 C 
ENDBRANCH  16  18
ENDBRANCH   2  16
ENDBRANCH   1  11
BRANCH   1  19
ATOM     19  C   UNL     1       0.989   5.117   2.145  0.00  0.00    +0.173 C 
BRANCH  19  20
ATOM     20  C   UNL     1       2.046   6.090   1.691  0.00  0.00    +0.228 C 
ATOM     21  O   UNL     1       2.708   5.849   0.704  0.00  0.00    -0.275 OA
ATOM     22  N   UNL     1       2.256   7.228   2.381  0.00  0.00    -0.279 N 
ATOM     23  H   UNL     1       1.726   7.421   3.171  0.00  0.00    +0.155 HD
BRANCH  22  24
ATOM     24  C   UNL     1       3.228   8.123   1.964  0.00  0.00    +0.086 A 
ATOM     25  C   UNL     1       3.584   9.335   2.532  0.00  0.00    +0.091 A 
ATOM     26  C   UNL     1       4.658  10.094   1.891  0.00  0.00    -0.021 A 
ATOM     27  C   UNL     1       5.184   9.523   0.793  0.00  0.00    -0.004 A 
ATOM     28  S   UNL     1       4.288   8.001   0.601  0.00  0.00    -0.077 S 
ATOM     29  C   UNL     1       6.278  10.361   0.190  0.00  0.00    +0.043 C 
ATOM     30  C   UNL     1       6.673  11.350   1.309  0.00  0.00    +0.010 C 
ATOM     31  C   UNL     1       5.373  11.424   2.135  0.00  0.00    +0.037 C 
BRANCH  25  32
ATOM     32  C   UNL     1       2.913   9.837   3.733  0.00  0.00    +0.342 C 
ATOM     33  O   UNL     1       3.345   9.555   4.834  0.00  0.00    -0.245 OA
BRANCH  32  34
ATOM     34  O   UNL     1       1.815  10.612   3.618  0.00  0.00    -0.464 OA
ATOM     35  C   UNL     1       1.202  11.073   4.851  0.00  0.00    +0.280 C 
ENDBRANCH  32  34
ENDBRANCH  25  32
ENDBRANCH  22  24
ENDBRANCH  19  20
ENDBRANCH   1  19
TORSDOF 8
