REMARK  Name = ZINC09470070
REMARK  13 active torsions:
REMARK  status: ('A' for Active; 'I' for Inactive)
REMARK    1  A    between atoms: C_1  and  C_2
REMARK    2  A    between atoms: C_2  and  C_3
REMARK    3  A    between atoms: C_2  and  C_4
REMARK    4  A    between atoms: C_4  and  C_5
REMARK    5  A    between atoms: C_5  and  O_6
REMARK    6  A    between atoms: O_6  and  C_7
REMARK    7  A    between atoms: C_11  and  C_13
REMARK    8  A    between atoms: C_15  and  C_16
REMARK    9  A    between atoms: C_16  and  C_17
REMARK   10  A    between atoms: N_32  and  C_33
REMARK   11  A    between atoms: C_33  and  C_34
REMARK   12  A    between atoms: C_34  and  O_35
REMARK   13  A    between atoms: O_35  and  C_36
REMARK                            x       y       z     vdW  Elec       q    Type
REMARK                         _______ _______ _______ _____ _____    ______ ____
ROOT
ATOM      1  C   UNL     1       0.776  -0.945   8.486  0.00  0.00    +0.145 C 
ATOM      2  C   UNL     1       0.051  -2.122   9.096  0.00  0.00    +0.076 C 
ATOM      3  C   UNL     1      -0.348  -1.737  10.331  0.00  0.00    +0.249 C 
ATOM      4  O   UNL     1      -1.034  -2.506  11.208  0.00  0.00    -0.282 OA
ATOM      5  C   UNL     1       0.084  -0.344  10.569  0.00  0.00    +0.288 C 
ATOM      6  O   UNL     1      -0.123   0.286  11.586  0.00  0.00    -0.266 OA
ATOM      7  N   UNL     1       0.742   0.123   9.492  0.00  0.00    -0.281 N 
ENDROOT
BRANCH   1  12
ATOM      8  C   UNL     1       0.015  -0.286   4.844  0.00  0.00    +0.121 A 
ATOM      9  C   UNL     1      -1.226   0.329   4.929  0.00  0.00    +0.045 A 
ATOM     10  C   UNL     1      -1.812   0.529   6.164  0.00  0.00    +0.004 A 
ATOM     11  C   UNL     1      -1.164   0.117   7.314  0.00  0.00    +0.006 A 
ATOM     12  C   UNL     1       0.072  -0.497   7.231  0.00  0.00    -0.019 A 
ATOM     13  C   UNL     1       0.660  -0.704   5.998  0.00  0.00    +0.051 A 
BRANCH   8  14
ATOM     14  O   UNL     1       0.593  -0.485   3.630  0.00  0.00    -0.492 OA
BRANCH  14  15
ATOM     15  C   UNL     1      -0.129  -0.029   2.485  0.00  0.00    +0.229 C 
BRANCH  15  16
ATOM     16  C   UNL     1       0.674  -0.337   1.219  0.00  0.00    +0.044 C 
BRANCH  16  18
ATOM     17  C   UNL     1      -0.215   1.676   0.037  0.00  0.00    +0.007 C 
ATOM     18  C   UNL     1      -0.099   0.151  -0.007  0.00  0.00    -0.014 C 
ATOM     19  C   UNL     1       0.644  -0.267  -1.278  0.00  0.00    +0.007 C 
ENDBRANCH  16  18
ENDBRANCH  15  16
ENDBRANCH  14  15
ENDBRANCH   8  14
ENDBRANCH   1  12
BRANCH   2  20
ATOM     20  C   UNL     1      -0.177  -3.428   8.471  0.00  0.00    +0.195 C 
ATOM     21  O   UNL     1      -1.309  -3.782   8.196  0.00  0.00    -0.287 OA
BRANCH  20  22
ATOM     22  C   UNL     1       0.966  -4.314   8.175  0.00  0.00    +0.026 A 
ATOM     23  C   UNL     1       2.252  -3.966   8.600  0.00  0.00    +0.015 A 
ATOM     24  C   UNL     1       3.316  -4.794   8.322  0.00  0.00    +0.050 A 
ATOM     25  C   UNL     1       3.118  -5.978   7.620  0.00  0.00    +0.162 A 
ATOM     26  C   UNL     1       1.839  -6.332   7.196  0.00  0.00    +0.163 A 
ATOM     27  C   UNL     1       0.765  -5.507   7.475  0.00  0.00    +0.061 A 
ATOM     28  O   UNL     1       1.628  -7.492   6.515  0.00  0.00    -0.485 OA
ATOM     29  C   UNL     1       2.778  -8.115   5.934  0.00  0.00    +0.270 C 
ATOM     30  C   UNL     1       3.897  -8.131   6.984  0.00  0.00    +0.270 C 
ATOM     31  O   UNL     1       4.184  -6.778   7.354  0.00  0.00    -0.485 OA
ENDBRANCH  20  22
ENDBRANCH   2  20
BRANCH   7  32
ATOM     32  C   UNL     1       1.322   1.461   9.349  0.00  0.00    +0.137 C 
BRANCH  32  33
ATOM     33  C   UNL     1       0.281   2.407   8.748  0.00  0.00    +0.178 C 
BRANCH  33  34
ATOM     34  O   UNL     1      -0.806   2.562   9.663  0.00  0.00    -0.381 OA
ATOM     35  C   UNL     1      -1.839   3.431   9.195  0.00  0.00    +0.194 C 
ENDBRANCH  33  34
ENDBRANCH  32  33
ENDBRANCH   7  32
TORSDOF 10
