REMARK  Name = ZINC20931724
REMARK  8 active torsions:
REMARK  status: ('A' for Active; 'I' for Inactive)
REMARK    1  A    between atoms: C_1  and  C_2
REMARK    2  A    between atoms: C_3  and  N_9
REMARK    3  A    between atoms: N_9  and  C_10
REMARK    4  A    between atoms: C_10  and  N_12
REMARK    5  A    between atoms: N_12  and  N_13
REMARK    6  A    between atoms: C_14  and  C_15
REMARK    7  A    between atoms: C_19  and  O_22
REMARK    8  A    between atoms: C_20  and  O_21
REMARK                            x       y       z     vdW  Elec       q    Type
REMARK                         _______ _______ _______ _____ _____    ______ ____
ROOT
ATOM      1  N   UNL     1       0.181   0.030  -4.739  0.00  0.00    -0.218 N 
ATOM      2  H   UNL     1       0.257  -0.449  -5.580  0.00  0.00    +0.176 HD
ENDROOT
BRANCH   1   3
ATOM      3  C   UNL     1       0.095  -0.654  -3.581  0.00  0.00    +0.154 C 
ATOM      4  S   UNL     1       0.120  -2.365  -3.592  0.00  0.00    -0.017 S 
BRANCH   3   5
ATOM      5  N   UNL     1      -0.010   0.011  -2.413  0.00  0.00    -0.295 N 
ATOM      6  H   UNL     1      -0.104   0.976  -2.411  0.00  0.00    +0.154 HD
BRANCH   5   9
ATOM      7  C   UNL     1      -1.912   0.706  -0.414  0.00  0.00    +0.047 C 
ATOM      8  C   UNL     1      -0.895  -0.385  -0.201  0.00  0.00    -0.011 A 
ATOM      9  C   UNL     1       0.016  -0.692  -1.204  0.00  0.00    +0.037 A 
ATOM     10  C   UNL     1       0.952  -1.698  -1.004  0.00  0.00    +0.023 A 
ATOM     11  C   UNL     1       0.976  -2.391   0.191  0.00  0.00    +0.003 A 
ATOM     12  C   UNL     1       0.068  -2.084   1.188  0.00  0.00    +0.020 A 
ATOM     13  C   UNL     1      -0.863  -1.078   0.994  0.00  0.00    +0.046 A 
ATOM     14 CL   UNL     1      -1.996  -0.691   2.252  0.00  0.00    -0.083 Cl
ENDBRANCH   5   9
ENDBRANCH   3   5
ENDBRANCH   1   3
BRANCH   1  15
ATOM     15  N   UNL     1       0.161   1.430  -4.729  0.00  0.00    -0.188 NA
ATOM     16  C   UNL     1       0.244   2.088  -5.845  0.00  0.00    +0.142 C 
BRANCH  16  17
ATOM     17  C   UNL     1       0.223   3.562  -5.835  0.00  0.00    +0.040 A 
ATOM     18  C   UNL     1       0.306   4.274  -7.035  0.00  0.00    +0.013 A 
ATOM     19  C   UNL     1       0.285   5.652  -7.021  0.00  0.00    +0.004 A 
ATOM     20  C   UNL     1       0.183   6.338  -5.823  0.00  0.00    +0.049 A 
ATOM     21  C   UNL     1       0.100   5.645  -4.625  0.00  0.00    +0.159 A 
ATOM     22  C   UNL     1       0.113   4.256  -4.624  0.00  0.00    +0.167 A 
BRANCH  22  23
ATOM     23  O   UNL     1       0.026   3.573  -3.452  0.00  0.00    -0.503 OA
ATOM     24  H   UNL     1       0.881   3.388  -3.040  0.00  0.00    +0.292 HD
ENDBRANCH  22  23
BRANCH  21  25
ATOM     25  O   UNL     1       0.001   6.326  -3.452  0.00  0.00    -0.503 OA
ATOM     26  H   UNL     1      -0.908   6.510  -3.180  0.00  0.00    +0.292 HD
ENDBRANCH  21  25
ENDBRANCH  16  17
ENDBRANCH   1  15
TORSDOF 7
