REMARK  Name = ZINC11726320
REMARK  13 active torsions:
REMARK  status: ('A' for Active; 'I' for Inactive)
REMARK    1  A    between atoms: C_1  and  C_2
REMARK    2  A    between atoms: C_2  and  C_3
REMARK    3  A    between atoms: C_3  and  C_4
REMARK    4  A    between atoms: C_4  and  N_5
REMARK    5  A    between atoms: N_5  and  C_6
REMARK    6  A    between atoms: N_5  and  S_7
REMARK    7  A    between atoms: S_7  and  C_10
REMARK    8  A    between atoms: C_13  and  C_16
REMARK    9  A    between atoms: N_18  and  C_19
REMARK   10  A    between atoms: C_20  and  C_30
REMARK   11  A    between atoms: C_27  and  C_28
REMARK   12  A    between atoms: C_27  and  C_29
REMARK   13  A    between atoms: C_27  and  N_62
REMARK                            x       y       z     vdW  Elec       q    Type
REMARK                         _______ _______ _______ _____ _____    ______ ____
ROOT
ATOM      1  C   UNL     1      -3.119   3.066   4.885  0.00  0.00    +0.249 C 
ATOM      2  O   UNL     1      -3.928   2.303   5.378  0.00  0.00    -0.270 OA
ATOM      3  N   UNL     1      -2.918   4.281   5.433  0.00  0.00    -0.275 N 
ATOM      4  H   UNL     1      -2.273   4.889   5.040  0.00  0.00    +0.156 HD
ENDROOT
BRANCH   3   5
ATOM      5  C   UNL     1      -3.635   4.661   6.558  0.00  0.00    +0.090 A 
ATOM      6  C   UNL     1      -3.564   5.856   7.261  0.00  0.00    +0.083 A 
ATOM      7  C   UNL     1      -4.434   6.007   8.412  0.00  0.00    -0.022 A 
ATOM      8  C   UNL     1      -5.222   4.942   8.684  0.00  0.00    -0.021 A 
ATOM      9  S   UNL     1      -4.829   3.758   7.430  0.00  0.00    -0.079 S 
ATOM     10  C   UNL     1      -6.201   4.825   9.810  0.00  0.00    -0.035 C 
ATOM     11  C   UNL     1      -5.795   7.197  10.101  0.00  0.00    -0.073 C 
ATOM     12  C   UNL     1      -4.495   7.248   9.294  0.00  0.00    +0.019 C 
ATOM     13  N   UNL     1      -5.892   5.894  10.791  0.00  0.00    +0.384 N 
ATOM     14  H   UNL     1      -4.992   5.686  11.240  0.00  0.00    -0.081 HD
BRANCH  13  15
ATOM     15  C   UNL     1      -6.944   5.948  11.829  0.00  0.00    -0.074 C 
ATOM     16  C   UNL     1      -8.306   6.238  11.194  0.00  0.00    -0.014 C 
ATOM     17  C   UNL     1      -6.997   4.602  12.555  0.00  0.00    -0.014 C 
ENDBRANCH  13  15
BRANCH   6  18
ATOM     18  C   UNL     1      -2.671   6.902   6.862  0.00  0.00    +0.102 C 
ATOM     19  N   UNL     1      -1.962   7.731   6.546  0.00  0.00    -0.191 NA
ENDBRANCH   6  18
ENDBRANCH   3   5
BRANCH   1  23
ATOM     20  C   UNL     1      -0.927   1.900   1.439  0.00  0.00    +0.106 A 
ATOM     21  C   UNL     1      -0.715   3.146   2.002  0.00  0.00    +0.029 A 
ATOM     22  C   UNL     1      -1.427   3.533   3.118  0.00  0.00    +0.015 A 
ATOM     23  C   UNL     1      -2.356   2.660   3.687  0.00  0.00    +0.037 A 
ATOM     24  C   UNL     1      -2.561   1.402   3.117  0.00  0.00    +0.015 A 
ATOM     25  C   UNL     1      -1.846   1.030   1.998  0.00  0.00    +0.029 A 
BRANCH  20  26
ATOM     26  S   UNL     1      -0.017   1.417   0.010  0.00  0.00    +0.061 S 
ATOM     27  O   UNL     1       0.002  -0.004   0.002  0.00  0.00    -0.153 OA
ATOM     28  O   UNL     1       1.172   2.195   0.003  0.00  0.00    -0.153 OA
BRANCH  26  29
ATOM     29  N   UNL     1      -0.897   1.885  -1.312  0.00  0.00    -0.180 NA
ATOM     30  C   UNL     1      -0.691   3.213  -1.897  0.00  0.00    +0.131 C 
BRANCH  29  31
ATOM     31  C   UNL     1      -1.883   0.973  -1.897  0.00  0.00    +0.109 C 
BRANCH  31  32
ATOM     32  C   UNL     1      -3.267   1.280  -1.323  0.00  0.00    +0.017 C 
BRANCH  32  34
ATOM     33  C   UNL     1      -5.680   0.634  -1.359  0.00  0.00    +0.004 C 
ATOM     34  C   UNL     1      -4.296   0.327  -1.934  0.00  0.00    -0.002 C 
ENDBRANCH  32  34
ENDBRANCH  31  32
ENDBRANCH  29  31
ENDBRANCH  26  29
ENDBRANCH  20  26
ENDBRANCH   1  23
TORSDOF 9
