REMARK  Name = ZINC35642941
REMARK  9 active torsions:
REMARK  status: ('A' for Active; 'I' for Inactive)
REMARK    1  A    between atoms: C_1  and  C_2
REMARK    2  A    between atoms: C_2  and  O_3
REMARK    3  A    between atoms: O_3  and  C_4
REMARK    4  A    between atoms: C_4  and  C_6
REMARK    5  A    between atoms: C_7  and  C_22
REMARK    6  A    between atoms: N_8  and  C_21
REMARK    7  A    between atoms: C_12  and  C_14
REMARK    8  A    between atoms: C_22  and  N_23
REMARK    9  A    between atoms: C_30  and  C_32
REMARK                            x       y       z     vdW  Elec       q    Type
REMARK                         _______ _______ _______ _____ _____    ______ ____
ROOT
ATOM      1  C   UNL     1       3.830  -2.570   1.938  0.00  0.00    +0.076 C 
ATOM      2  C   UNL     1       2.982  -3.587   2.202  0.00  0.00    +0.010 C 
ATOM      3  N   UNL     1       2.422  -3.734   3.439  0.00  0.00    -0.264 N 
ATOM      4  C   UNL     1       2.660  -2.907   4.465  0.00  0.00    +0.307 C 
ATOM      5  O   UNL     1       2.115  -3.120   5.530  0.00  0.00    -0.252 OA
ATOM      6  N   UNL     1       3.484  -1.846   4.355  0.00  0.00    -0.288 N 
ATOM      7  C   UNL     1       4.144  -1.602   3.061  0.00  0.00    +0.144 C 
ATOM      8  C   UNL     1       1.511  -4.861   3.656  0.00  0.00    +0.139 C 
ATOM      9  H   UNL     1       3.641  -1.260   5.111  0.00  0.00    +0.151 HD
ENDROOT
BRANCH   7  10
ATOM     10  C   UNL     1       5.634  -1.616   3.284  0.00  0.00    -0.020 A 
ATOM     11  C   UNL     1       6.214  -2.637   4.014  0.00  0.00    +0.006 A 
ATOM     12  C   UNL     1       7.581  -2.651   4.220  0.00  0.00    +0.003 A 
ATOM     13  C   UNL     1       8.369  -1.645   3.695  0.00  0.00    +0.038 A 
ATOM     14  C   UNL     1       7.790  -0.622   2.964  0.00  0.00    +0.124 A 
ATOM     15  C   UNL     1       6.421  -0.612   2.754  0.00  0.00    +0.044 A 
ATOM     16  F   UNL     1       8.559   0.363   2.451  0.00  0.00    -0.205 F 
ENDBRANCH   7  10
BRANCH   1  17
ATOM     17  C   UNL     1       4.411  -2.416   0.657  0.00  0.00    +0.339 C 
ATOM     18  O   UNL     1       4.255  -3.276  -0.189  0.00  0.00    -0.245 OA
BRANCH  17  19
ATOM     19  O   UNL     1       5.137  -1.314   0.373  0.00  0.00    -0.462 OA
BRANCH  19  21
ATOM     20  C   UNL     1       6.478   0.082  -1.073  0.00  0.00    +0.048 C 
ATOM     21  C   UNL     1       5.694  -1.225  -0.940  0.00  0.00    +0.229 C 
ENDBRANCH  19  21
ENDBRANCH  17  19
ENDBRANCH   1  17
BRANCH   2  22
ATOM     22  C   UNL     1       2.647  -4.574   1.114  0.00  0.00    -0.026 C 
BRANCH  22  23
ATOM     23  N   UNL     1       3.716  -5.577   1.018  0.00  0.00    +0.384 N 
ATOM     24  C   UNL     1       3.510  -6.354  -0.203  0.00  0.00    -0.077 C 
ATOM     25  C   UNL     1       4.847  -6.841  -0.716  0.00  0.00    +0.000 C 
ATOM     26  C   UNL     1       5.124  -8.253  -0.166  0.00  0.00    +0.106 C 
ATOM     27  N   UNL     1       4.693  -8.368   1.242  0.00  0.00    -0.299 N 
ATOM     28  C   UNL     1       4.921  -7.316   2.211  0.00  0.00    +0.089 C 
ATOM     29  C   UNL     1       3.726  -6.334   2.211  0.00  0.00    -0.059 C 
ATOM     30  C   UNL     1       4.065  -9.492   1.640  0.00  0.00    +0.249 C 
ATOM     31  O   UNL     1       3.610  -9.569   2.764  0.00  0.00    -0.270 OA
ATOM     32  H   UNL     1       4.598  -5.094   0.940  0.00  0.00    -0.081 HD
BRANCH  30  33
ATOM     33  C   UNL     1       3.929 -10.630   0.708  0.00  0.00    +0.072 A 
ATOM     34  C   UNL     1       5.046 -11.116   0.025  0.00  0.00    +0.016 A 
ATOM     35  C   UNL     1       4.912 -12.179  -0.842  0.00  0.00    +0.001 A 
ATOM     36  C   UNL     1       3.674 -12.766  -1.039  0.00  0.00    +0.003 A 
ATOM     37  C   UNL     1       2.562 -12.293  -0.368  0.00  0.00    +0.039 A 
ATOM     38  C   UNL     1       2.682 -11.231   0.511  0.00  0.00    +0.135 A 
ATOM     39  F   UNL     1       1.596 -10.772   1.171  0.00  0.00    -0.205 F 
ENDBRANCH  30  33
ENDBRANCH  22  23
ENDBRANCH   2  22
TORSDOF 7
