REMARK  Name = ZINC39711099
REMARK  10 active torsions:
REMARK  status: ('A' for Active; 'I' for Inactive)
REMARK    1  A    between atoms: C_1  and  C_2
REMARK    2  A    between atoms: C_5  and  C_42
REMARK    3  A    between atoms: C_10  and  C_14
REMARK    4  A    between atoms: C_14  and  C_16
REMARK    5  A    between atoms: C_14  and  N_28
REMARK    6  A    between atoms: N_21  and  C_22
REMARK    7  A    between atoms: N_28  and  C_29
REMARK    8  A    between atoms: N_28  and  C_36
REMARK    9  A    between atoms: C_29  and  C_30
REMARK   10  A    between atoms: C_36  and  C_37
REMARK                            x       y       z     vdW  Elec       q    Type
REMARK                         _______ _______ _______ _____ _____    ______ ____
ROOT
ATOM      1  C   UNL     1      -1.106  -0.545   4.551  0.00  0.00    -0.010 C 
ENDROOT
BRANCH   1  11
ATOM      2  C   UNL     1       1.000  -5.218   4.894  0.00  0.00    +0.044 C 
ATOM      3  C   UNL     1       1.978  -4.092   5.105  0.00  0.00    -0.042 A 
ATOM      4  C   UNL     1       3.197  -4.329   5.655  0.00  0.00    +0.004 A 
ATOM      5  C   UNL     1       4.116  -3.299   5.857  0.00  0.00    +0.005 A 
ATOM      6  C   UNL     1       3.856  -2.008   5.522  0.00  0.00    -0.029 A 
ATOM      7  C   UNL     1       2.622  -1.655   4.945  0.00  0.00    +0.043 A 
ATOM      8  N   UNL     1       2.377  -0.386   4.620  0.00  0.00    -0.284 N 
ATOM      9  C   UNL     1       1.241   0.014   4.075  0.00  0.00    +0.223 C 
ATOM     10  O   UNL     1       1.075   1.187   3.800  0.00  0.00    -0.275 OA
ATOM     11  C   UNL     1       0.147  -0.993   3.797  0.00  0.00    +0.088 C 
ATOM     12  C   UNL     1       0.420  -2.438   4.165  0.00  0.00    -0.006 C 
ATOM     13  C   UNL     1       1.635  -2.724   4.715  0.00  0.00    -0.004 A 
ATOM     14  C   UNL     1       4.896  -0.947   5.771  0.00  0.00    +0.045 C 
ATOM     15  H   UNL     1       3.066   0.276   4.791  0.00  0.00    +0.155 HD
ENDBRANCH   1  11
BRANCH   1  16
ATOM     16  C   UNL     1      -2.336  -1.224   3.944  0.00  0.00    +0.183 C 
ATOM     17  N   UNL     1      -2.178  -2.690   3.946  0.00  0.00    -0.229 N 
ATOM     18  N   UNL     1      -2.212  -3.081   2.603  0.00  0.00    -0.064 NA
ATOM     19  N   UNL     1      -2.357  -2.132   1.837  0.00  0.00    -0.061 NA
ATOM     20  N   UNL     1      -2.454  -0.903   2.509  0.00  0.00    -0.213 N 
ATOM     21  H   UNL     1      -2.071  -3.266   4.720  0.00  0.00    +0.172 HD
BRANCH  20  22
ATOM     22  C   UNL     1      -2.634   0.422   1.913  0.00  0.00    +0.096 C 
ATOM     23  C   UNL     1      -4.001   0.493   1.229  0.00  0.00    +0.024 C 
ATOM     24  C   UNL     1      -4.189   1.877   0.606  0.00  0.00    +0.002 C 
ATOM     25  C   UNL     1      -3.089   2.125  -0.428  0.00  0.00    +0.000 C 
ATOM     26  C   UNL     1      -1.722   2.055   0.256  0.00  0.00    +0.002 C 
ATOM     27  C   UNL     1      -1.534   0.670   0.879  0.00  0.00    +0.024 C 
ENDBRANCH  20  22
ENDBRANCH   1  16
BRANCH   1  28
ATOM     28  N   UNL     1      -0.987  -0.923   5.966  0.00  0.00    +0.392 N 
ATOM     29  H   UNL     1      -0.839  -1.919   6.037  0.00  0.00    -0.080 HD
BRANCH  28  30
ATOM     30  C   UNL     1      -2.220  -0.559   6.676  0.00  0.00    -0.040 C 
BRANCH  30  31
ATOM     31  C   UNL     1      -2.500   0.908   6.478  0.00  0.00    -0.046 A 
ATOM     32  C   UNL     1      -1.884   1.855   7.282  0.00  0.00    +0.005 A 
ATOM     33  C   UNL     1      -2.171   3.194   7.064  0.00  0.00    +0.020 A 
ATOM     34  C   UNL     1      -3.055   3.538   6.059  0.00  0.00    +0.111 A 
ATOM     35  N   UNL     1      -3.622   2.610   5.313  0.00  0.00    -0.263 NA
ATOM     36  C   UNL     1      -3.368   1.328   5.488  0.00  0.00    +0.112 A 
ENDBRANCH  30  31
ENDBRANCH  28  30
BRANCH  28  37
ATOM     37  C   UNL     1       0.151  -0.215   6.567  0.00  0.00    -0.002 C 
BRANCH  37  38
ATOM     38  C   UNL     1       0.327  -0.667   7.994  0.00  0.00    +0.089 A 
ATOM     39  C   UNL     1       1.160  -1.637   8.415  0.00  0.00    +0.042 A 
ATOM     40  C   UNL     1       1.004  -1.730   9.817  0.00  0.00    +0.041 A 
ATOM     41  C   UNL     1       0.085  -0.812  10.169  0.00  0.00    +0.195 A 
ATOM     42  O   UNL     1      -0.317  -0.168   9.062  0.00  0.00    -0.470 OA
ENDBRANCH  37  38
ENDBRANCH  28  37
ENDBRANCH   1  28
TORSDOF 8
