REMARK  Name = ZINC39610095
REMARK  8 active torsions:
REMARK  status: ('A' for Active; 'I' for Inactive)
REMARK    1  A    between atoms: C_1  and  C_2
REMARK    2  A    between atoms: C_2  and  C_3
REMARK    3  A    between atoms: C_3  and  C_4
REMARK    4  A    between atoms: C_4  and  C_6
REMARK    5  A    between atoms: C_4  and  C_7
REMARK    6  A    between atoms: C_11  and  C_20
REMARK    7  A    between atoms: N_22  and  C_23
REMARK    8  A    between atoms: C_23  and  C_24
REMARK                            x       y       z     vdW  Elec       q    Type
REMARK                         _______ _______ _______ _____ _____    ______ ____
ROOT
ATOM      1  C   UNL     1       1.315  -2.551  -2.248  0.00  0.00    +0.218 C 
ATOM      2  O   UNL     1       1.689  -1.681  -3.006  0.00  0.00    -0.275 OA
ATOM      3  N   UNL     1       1.443  -3.847  -2.594  0.00  0.00    -0.300 N 
ATOM      4  C   UNL     1       1.043  -5.040  -1.810  0.00  0.00    +0.121 C 
ATOM      5  C   UNL     1       0.461  -6.017  -2.857  0.00  0.00    +0.100 C 
ATOM      6  C   UNL     1       1.105  -5.595  -4.188  0.00  0.00    -0.004 C 
ATOM      7  C   UNL     1       2.010  -4.402  -3.846  0.00  0.00    +0.115 C 
ATOM      8  C   UNL     1       1.934  -6.740  -4.761  0.00  0.00    -0.010 C 
ATOM      9  C   UNL     1       2.516  -6.317  -6.112  0.00  0.00    -0.082 C 
ATOM     10  N   UNL     1       1.425  -5.969  -7.030  0.00  0.00    +0.379 N 
ATOM     11  C   UNL     1       0.691  -4.806  -6.516  0.00  0.00    -0.082 C 
ATOM     12  C   UNL     1       0.031  -5.166  -5.182  0.00  0.00    -0.010 C 
ATOM     13  H   UNL     1       1.808  -5.749  -7.938  0.00  0.00    -0.086 HD
ATOM     14  H   UNL     1       0.795  -6.752  -7.115  0.00  0.00    -0.086 HD
ENDROOT
BRANCH   5  15
ATOM     15  C   UNL     1      -1.038  -5.878  -2.929  0.00  0.00    +0.218 C 
ATOM     16  O   UNL     1      -1.560  -4.809  -2.690  0.00  0.00    -0.275 OA
ATOM     17  N   UNL     1      -1.798  -6.940  -3.259  0.00  0.00    -0.311 N 
ATOM     18  H   UNL     1      -1.380  -7.795  -3.450  0.00  0.00    +0.149 HD
BRANCH  17  19
ATOM     19  C   UNL     1      -3.255  -6.805  -3.329  0.00  0.00    +0.139 C 
BRANCH  19  20
ATOM     20  C   UNL     1      -3.864  -8.128  -3.716  0.00  0.00    -0.027 A 
ATOM     21  C   UNL     1      -4.054  -8.436  -5.050  0.00  0.00    +0.009 A 
ATOM     22  C   UNL     1      -4.612  -9.649  -5.410  0.00  0.00    +0.050 A 
ATOM     23  C   UNL     1      -4.983 -10.559  -4.433  0.00  0.00    +0.166 A 
ATOM     24  C   UNL     1      -4.791 -10.248  -3.089  0.00  0.00    +0.167 A 
ATOM     25  C   UNL     1      -4.226  -9.033  -2.736  0.00  0.00    +0.054 A 
ATOM     26  O   UNL     1      -5.232 -11.295  -2.332  0.00  0.00    -0.453 OA
ATOM     27  C   UNL     1      -6.069 -12.076  -3.206  0.00  0.00    +0.466 C 
ATOM     28  O   UNL     1      -5.544 -11.800  -4.518  0.00  0.00    -0.453 OA
ENDBRANCH  19  20
ENDBRANCH  17  19
ENDBRANCH   5  15
BRANCH   1  29
ATOM     29  C   UNL     1       0.708  -2.181  -0.919  0.00  0.00    +0.072 C 
ATOM     30  C   UNL     1       1.546  -2.784   0.210  0.00  0.00    +0.017 C 
BRANCH  29  31
ATOM     31  C   UNL     1       0.680  -0.658  -0.777  0.00  0.00    +0.012 C 
BRANCH  31  33
ATOM     32  C   UNL     1      -0.076   1.243   0.657  0.00  0.00    +0.004 C 
ATOM     33  C   UNL     1      -0.048  -0.280   0.515  0.00  0.00    -0.003 C 
ENDBRANCH  31  33
ENDBRANCH  29  31
ENDBRANCH   1  29
TORSDOF 6
