REMARK  Name = ZINC49632910
REMARK  7 active torsions:
REMARK  status: ('A' for Active; 'I' for Inactive)
REMARK    1  A    between atoms: C_4  and  C_7
REMARK    2  A    between atoms: C_7  and  N_8
REMARK    3  A    between atoms: N_16  and  C_17
REMARK    4  A    between atoms: C_17  and  C_19
REMARK    5  A    between atoms: C_22  and  C_24
REMARK    6  A    between atoms: C_24  and  O_25
REMARK    7  A    between atoms: O_25  and  C_26
REMARK                            x       y       z     vdW  Elec       q    Type
REMARK                         _______ _______ _______ _____ _____    ______ ____
ROOT
ATOM      1  N   UNL     1       4.153  -0.953   1.342  0.00  0.00    +0.386 N 
ATOM      2  C   UNL     1       5.489  -1.563   1.326  0.00  0.00    -0.072 C 
ATOM      3  C   UNL     1       6.093  -1.550   2.734  0.00  0.00    +0.035 C 
ATOM      4  C   UNL     1       5.080  -2.175   3.686  0.00  0.00    +0.024 A 
ATOM      5  C   UNL     1       3.797  -2.294   3.308  0.00  0.00    -0.004 A 
ATOM      6  S   UNL     1       3.021  -3.058   4.702  0.00  0.00    -0.059 S 
ATOM      7  C   UNL     1       4.374  -3.184   5.696  0.00  0.00    +0.164 A 
ATOM      8  N   UNL     1       5.367  -2.643   4.938  0.00  0.00    -0.339 N 
ATOM      9  N   UNL     1       4.453  -3.689   6.925  0.00  0.00    -0.150 NA
ATOM     10  C   UNL     1       3.204  -1.866   2.007  0.00  0.00    -0.033 C 
ATOM     11  H   UNL     1       6.272  -2.592   5.284  0.00  0.00    +0.167 HD
ATOM     12  H   UNL     1       4.188  -0.079   1.845  0.00  0.00    -0.081 HD
ENDROOT
BRANCH   9  13
ATOM     13  C   UNL     1       5.626  -3.704   7.568  0.00  0.00    +0.305 C 
ATOM     14  O   UNL     1       6.624  -3.255   7.027  0.00  0.00    -0.265 OA
BRANCH  13  15
ATOM     15  C   UNL     1       5.714  -4.263   8.926  0.00  0.00    +0.192 A 
ATOM     16  C   UNL     1       6.840  -4.334   9.691  0.00  0.00    +0.055 A 
ATOM     17  C   UNL     1       6.466  -4.935  10.906  0.00  0.00    +0.049 A 
ATOM     18  C   UNL     1       5.144  -5.199  10.827  0.00  0.00    +0.143 A 
ATOM     19  O   UNL     1       4.693  -4.788   9.634  0.00  0.00    -0.452 OA
BRANCH  18  20
ATOM     20  C   UNL     1       4.312  -5.845  11.905  0.00  0.00    +0.303 C 
BRANCH  20  21
ATOM     21  O   UNL     1       3.776  -4.835  12.762  0.00  0.00    -0.484 OA
BRANCH  21  22
ATOM     22  C   UNL     1       2.996  -5.252  13.794  0.00  0.00    +0.121 A 
ATOM     23  C   UNL     1       2.757  -6.605  13.981  0.00  0.00    +0.045 A 
ATOM     24  C   UNL     1       1.964  -7.026  15.031  0.00  0.00    +0.004 A 
ATOM     25  C   UNL     1       1.409  -6.100  15.895  0.00  0.00    +0.000 A 
ATOM     26  C   UNL     1       1.645  -4.750  15.710  0.00  0.00    +0.004 A 
ATOM     27  C   UNL     1       2.442  -4.324  14.665  0.00  0.00    +0.045 A 
ENDBRANCH  21  22
ENDBRANCH  20  21
ENDBRANCH  18  20
ENDBRANCH  13  15
ENDBRANCH   9  13
BRANCH   1  28
ATOM     28  C   UNL     1       3.711  -0.707  -0.038  0.00  0.00    -0.043 C 
BRANCH  28  32
ATOM     29  C   UNL     1      -0.017   1.378   0.010  0.00  0.00    +0.000 A 
ATOM     30  C   UNL     1       1.171   2.086   0.002  0.00  0.00    +0.000 A 
ATOM     31  C   UNL     1       2.377   1.411  -0.013  0.00  0.00    +0.002 A 
ATOM     32  C   UNL     1       2.396   0.029  -0.020  0.00  0.00    -0.064 A 
ATOM     33  C   UNL     1       1.208  -0.679  -0.012  0.00  0.00    +0.002 A 
ATOM     34  C   UNL     1       0.002  -0.004   0.002  0.00  0.00    +0.000 A 
ENDBRANCH  28  32
ENDBRANCH   1  28
TORSDOF 7
