REMARK  Name = ZINC38926182
REMARK  8 active torsions:
REMARK  status: ('A' for Active; 'I' for Inactive)
REMARK    1  A    between atoms: C_1  and  C_2
REMARK    2  A    between atoms: C_5  and  C_8
REMARK    3  A    between atoms: C_8  and  O_9
REMARK    4  A    between atoms: O_9  and  C_10
REMARK    5  A    between atoms: C_13  and  C_16
REMARK    6  A    between atoms: C_18  and  C_22
REMARK    7  A    between atoms: N_24  and  N_25
REMARK    8  A    between atoms: C_26  and  C_27
REMARK                            x       y       z     vdW  Elec       q    Type
REMARK                         _______ _______ _______ _____ _____    ______ ____
ROOT
ATOM      1  C   UNL     1       2.220 -10.288  -0.067  0.00  0.00    +0.092 C 
ATOM      2  C   UNL     1       3.425 -10.890  -0.067  0.00  0.00    +0.041 C 
ATOM      3  C   UNL     1       3.092 -12.371  -0.077  0.00  0.00    +0.240 C 
ATOM      4  N   UNL     1       1.620 -12.384  -0.083  0.00  0.00    -0.170 NA
ATOM      5  N   UNL     1       1.227 -11.216  -0.071  0.00  0.00    -0.153 NA
ENDROOT
BRANCH   1   9
ATOM      6  C   UNL     1       1.608  -6.079  -0.040  0.00  0.00    +0.121 A 
ATOM      7  C   UNL     1       0.517  -6.937  -0.044  0.00  0.00    +0.046 A 
ATOM      8  C   UNL     1       0.712  -8.303  -0.053  0.00  0.00    +0.013 A 
ATOM      9  C   UNL     1       2.006  -8.820  -0.058  0.00  0.00    +0.002 A 
ATOM     10  C   UNL     1       3.100  -7.955  -0.053  0.00  0.00    +0.013 A 
ATOM     11  C   UNL     1       2.898  -6.591  -0.050  0.00  0.00    +0.046 A 
BRANCH   6  12
ATOM     12  O   UNL     1       1.413  -4.734  -0.032  0.00  0.00    -0.487 OA
BRANCH  12  13
ATOM     13  C   UNL     1       0.059  -4.275  -0.021  0.00  0.00    +0.264 C 
BRANCH  13  18
ATOM     14  C   UNL     1      -0.018   1.503   0.010  0.00  0.00    +0.044 C 
ATOM     15  C   UNL     1       0.002  -0.004   0.002  0.00  0.00    -0.050 A 
ATOM     16  C   UNL     1       0.006  -0.689  -1.199  0.00  0.00    +0.004 A 
ATOM     17  C   UNL     1       0.025  -2.071  -1.206  0.00  0.00    +0.007 A 
ATOM     18  C   UNL     1       0.040  -2.768  -0.013  0.00  0.00    -0.010 A 
ATOM     19  C   UNL     1       0.037  -2.084   1.188  0.00  0.00    +0.007 A 
ATOM     20  C   UNL     1       0.023  -0.702   1.195  0.00  0.00    +0.004 A 
ENDBRANCH  13  18
ENDBRANCH  12  13
ENDBRANCH   6  12
ENDBRANCH   1   9
BRANCH   3  21
ATOM     21  C   UNL     1       3.638 -13.030  -1.318  0.00  0.00    +0.263 C 
ATOM     22  O   UNL     1       2.906 -13.253  -2.258  0.00  0.00    -0.271 OA
ATOM     23  N   UNL     1       4.941 -13.372  -1.382  0.00  0.00    -0.205 N 
ATOM     24  H   UNL     1       5.526 -13.193  -0.629  0.00  0.00    +0.177 HD
BRANCH  23  25
ATOM     25  N   UNL     1       5.448 -13.985  -2.535  0.00  0.00    -0.188 NA
ATOM     26  C   UNL     1       6.713 -14.316  -2.597  0.00  0.00    +0.136 C 
BRANCH  26  27
ATOM     27  C   UNL     1       7.221 -14.930  -3.751  0.00  0.00    +0.000 C 
ATOM     28  C   UNL     1       8.531 -15.348  -3.976  0.00  0.00    +0.004 A 
ATOM     29  C   UNL     1       9.698 -15.299  -3.181  0.00  0.00    +0.010 A 
ATOM     30  C   UNL     1      10.864 -15.792  -3.668  0.00  0.00    +0.001 A 
ATOM     31  C   UNL     1      10.946 -16.353  -4.946  0.00  0.00    +0.002 A 
ATOM     32  C   UNL     1       9.868 -16.433  -5.763  0.00  0.00    +0.026 A 
ATOM     33  C   UNL     1       8.611 -15.937  -5.324  0.00  0.00    +0.043 A 
ATOM     34  N   UNL     1       7.436 -15.898  -5.915  0.00  0.00    -0.380 N 
ATOM     35  C   UNL     1       6.460 -15.282  -5.010  0.00  0.00    +0.150 C 
ATOM     36  H   UNL     1       7.245 -16.227  -6.807  0.00  0.00    +0.160 HD
ENDBRANCH  26  27
ENDBRANCH  23  25
ENDBRANCH   3  21
TORSDOF 7
