REMARK  Name = ZINC37443496
REMARK  8 active torsions:
REMARK  status: ('A' for Active; 'I' for Inactive)
REMARK    1  A    between atoms: C_1  and  C_2
REMARK    2  A    between atoms: C_7  and  N_12
REMARK    3  A    between atoms: C_9  and  C_11
REMARK    4  A    between atoms: C_13  and  C_15
REMARK    5  A    between atoms: C_15  and  C_37
REMARK    6  A    between atoms: N_27  and  C_28
REMARK    7  A    between atoms: C_28  and  C_29
REMARK    8  A    between atoms: C_29  and  C_30
REMARK                            x       y       z     vdW  Elec       q    Type
REMARK                         _______ _______ _______ _____ _____    ______ ____
ROOT
ATOM      1  C   UNL     1       1.363  -0.333   6.074  0.00  0.00    +0.128 C 
ATOM      2  C   UNL     1       2.769   0.266   6.089  0.00  0.00    +0.157 C 
ATOM      3  N   UNL     1       3.587  -0.401   5.072  0.00  0.00    -0.331 N 
ATOM      4  C   UNL     1       4.642   0.069   4.350  0.00  0.00    +0.088 A 
ATOM      5  C   UNL     1       5.481   1.178   4.084  0.00  0.00    +0.067 A 
ATOM      6  C   UNL     1       6.370   0.792   3.153  0.00  0.00    +0.198 A 
ATOM      7  O   UNL     1       6.141  -0.489   2.819  0.00  0.00    -0.461 OA
ATOM      8  C   UNL     1       5.093  -0.962   3.527  0.00  0.00    +0.153 A 
ATOM      9  C   UNL     1       4.277  -2.079   3.760  0.00  0.00    +0.079 A 
ATOM     10  C   UNL     1       3.356  -1.723   4.700  0.00  0.00    +0.109 A 
ATOM     11  C   UNL     1       2.253  -2.489   5.295  0.00  0.00    +0.264 C 
ATOM     12  O   UNL     1       2.136  -3.688   5.118  0.00  0.00    -0.268 OA
ATOM     13  N   UNL     1       1.374  -1.791   6.052  0.00  0.00    -0.280 N 
ATOM     14  C   UNL     1       0.614   0.137   7.322  0.00  0.00    +0.043 C 
ENDROOT
BRANCH   1  16
ATOM     15  N   UNL     1       0.735  -0.503   3.687  0.00  0.00    -0.310 N 
ATOM     16  C   UNL     1       0.634   0.166   4.853  0.00  0.00    +0.238 C 
ATOM     17  O   UNL     1      -0.044   1.170   4.919  0.00  0.00    -0.273 OA
ATOM     18  H   UNL     1       1.276  -1.306   3.634  0.00  0.00    +0.149 HD
BRANCH  15  24
ATOM     19  C   UNL     1      -0.019   1.526   0.010  0.00  0.00    +0.008 C 
ATOM     20  C   UNL     1       0.002  -0.004   0.002  0.00  0.00    -0.009 C 
ATOM     21  C   UNL     1      -1.433  -0.534   0.013  0.00  0.00    +0.003 C 
ATOM     22  C   UNL     1      -2.149  -0.040   1.272  0.00  0.00    +0.002 C 
ATOM     23  C   UNL     1      -1.409  -0.547   2.511  0.00  0.00    +0.022 C 
ATOM     24  C   UNL     1       0.026  -0.018   2.500  0.00  0.00    +0.076 C 
ATOM     25  C   UNL     1       0.742  -0.511   1.242  0.00  0.00    +0.009 C 
ATOM     26  C   UNL     1       2.178   0.019   1.231  0.00  0.00    +0.009 C 
ENDBRANCH  15  24
ENDBRANCH   1  16
BRANCH  13  27
ATOM     27  C   UNL     1       0.406  -2.522   6.874  0.00  0.00    +0.114 C 
BRANCH  27  28
ATOM     28  C   UNL     1      -0.868  -2.768   6.063  0.00  0.00    +0.054 C 
BRANCH  28  29
ATOM     29  C   UNL     1      -1.864  -3.520   6.908  0.00  0.00    -0.046 A 
ATOM     30  C   UNL     1      -1.866  -4.902   6.907  0.00  0.00    +0.005 A 
ATOM     31  C   UNL     1      -2.779  -5.592   7.682  0.00  0.00    +0.020 A 
ATOM     32  C   UNL     1      -3.691  -4.899   8.459  0.00  0.00    +0.041 A 
ATOM     33  C   UNL     1      -3.687  -3.516   8.460  0.00  0.00    +0.020 A 
ATOM     34  C   UNL     1      -2.770  -2.827   7.689  0.00  0.00    +0.005 A 
ATOM     35 CL   UNL     1      -4.838  -5.765   9.432  0.00  0.00    -0.084 Cl
ENDBRANCH  28  29
ENDBRANCH  27  28
ENDBRANCH  13  27
TORSDOF 5
