REMARK  Name = ZINC21450688
REMARK  9 active torsions:
REMARK  status: ('A' for Active; 'I' for Inactive)
REMARK    1  A    between atoms: C_1  and  C_2
REMARK    2  A    between atoms: C_5  and  N_9
REMARK    3  A    between atoms: C_7  and  C_8
REMARK    4  A    between atoms: C_11  and  C_16
REMARK    5  A    between atoms: N_18  and  C_19
REMARK    6  A    between atoms: C_22  and  C_26
REMARK    7  A    between atoms: C_24  and  C_25
REMARK    8  A    between atoms: C_26  and  C_28
REMARK    9  A    between atoms: C_26  and  C_30
REMARK                            x       y       z     vdW  Elec       q    Type
REMARK                         _______ _______ _______ _____ _____    ______ ____
ROOT
ATOM      1  C   UNL     1       5.954   4.363  -0.234  0.00  0.00    +0.222 C 
ATOM      2  O   UNL     1       6.136   3.430  -0.988  0.00  0.00    -0.275 OA
ATOM      3  N   UNL     1       6.939   5.256  -0.017  0.00  0.00    -0.285 N 
ATOM      4  H   UNL     1       6.795   6.068   0.712  0.00  0.00    +0.155 HD
ENDROOT
BRANCH   3   5
ATOM      5  C   UNL     1       8.145   5.152  -0.718  0.00  0.00    +0.038 A 
ATOM      6  C   UNL     1       8.563   3.921  -1.205  0.00  0.00    +0.044 A 
ATOM      7  C   UNL     1       9.752   3.823  -1.902  0.00  0.00    +0.047 A 
ATOM      8  C   UNL     1      10.531   4.949  -2.106  0.00  0.00    -0.008 A 
ATOM      9  C   UNL     1      10.120   6.175  -1.617  0.00  0.00    +0.011 A 
ATOM     10  C   UNL     1       8.929   6.280  -0.924  0.00  0.00    -0.029 A 
ATOM     11  C   UNL     1       8.482   7.617  -0.393  0.00  0.00    +0.045 C 
ATOM     12 CL   UNL     1      10.272   2.285  -2.518  0.00  0.00    -0.083 Cl
BRANCH   8  13
ATOM     13  C   UNL     1      11.830   4.838  -2.862  0.00  0.00    +0.153 C 
BRANCH  13  14
ATOM     14  C   UNL     1      12.951   5.388  -2.018  0.00  0.00    -0.026 A 
ATOM     15  C   UNL     1      13.209   6.746  -2.011  0.00  0.00    +0.006 A 
ATOM     16  C   UNL     1      14.233   7.252  -1.233  0.00  0.00    +0.020 A 
ATOM     17  C   UNL     1      15.008   6.397  -0.469  0.00  0.00    +0.041 A 
ATOM     18  C   UNL     1      14.753   5.037  -0.480  0.00  0.00    +0.020 A 
ATOM     19  C   UNL     1      13.725   4.533  -1.255  0.00  0.00    +0.006 A 
ATOM     20 CL   UNL     1      16.299   7.030   0.502  0.00  0.00    -0.084 Cl
ENDBRANCH  13  14
BRANCH  13  21
ATOM     21  C   UNL     1      11.736   5.606  -4.114  0.00  0.00    +0.075 C 
ATOM     22  N   UNL     1      11.664   6.199  -5.080  0.00  0.00    -0.196 NA
ENDBRANCH  13  21
ENDBRANCH   8  13
ENDBRANCH   3   5
BRANCH   1  25
ATOM     23  N   UNL     1       2.329   4.013  -0.006  0.00  0.00    -0.271 N 
ATOM     24  C   UNL     1       3.655   3.387   0.063  0.00  0.00    +0.127 C 
ATOM     25  C   UNL     1       4.626   4.521   0.461  0.00  0.00    +0.102 C 
ATOM     26  C   UNL     1       3.877   5.772  -0.055  0.00  0.00    +0.110 C 
ATOM     27  C   UNL     1       2.425   5.351  -0.085  0.00  0.00    +0.221 C 
ATOM     28  O   UNL     1       1.483   6.111  -0.165  0.00  0.00    -0.275 OA
BRANCH  23  33
ATOM     29  C   UNL     1      -2.568   1.149   0.021  0.00  0.00    +0.044 C 
ATOM     30  C   UNL     1      -1.267   1.910   0.016  0.00  0.00    -0.047 A 
ATOM     31  C   UNL     1      -0.067   1.224  -0.028  0.00  0.00    +0.005 A 
ATOM     32  C   UNL     1       1.127   1.918  -0.037  0.00  0.00    +0.024 A 
ATOM     33  C   UNL     1       1.121   3.306   0.003  0.00  0.00    +0.037 A 
ATOM     34  C   UNL     1      -0.085   3.992   0.052  0.00  0.00    +0.027 A 
ATOM     35  C   UNL     1      -1.276   3.292   0.061  0.00  0.00    -0.046 A 
ATOM     36  C   UNL     1      -2.586   4.035   0.115  0.00  0.00    +0.044 C 
ENDBRANCH  23  33
ENDBRANCH   1  25
TORSDOF 6
