REMARK  Name = ZINC02652121
REMARK  8 active torsions:
REMARK  status: ('A' for Active; 'I' for Inactive)
REMARK    1  A    between atoms: C_1  and  C_2
REMARK    2  A    between atoms: C_7  and  C_8
REMARK    3  A    between atoms: C_8  and  N_9
REMARK    4  A    between atoms: N_9  and  C_10
REMARK    5  A    between atoms: N_9  and  C_11
REMARK    6  A    between atoms: C_11  and  C_12
REMARK    7  A    between atoms: C_15  and  C_30
REMARK    8  A    between atoms: C_18  and  C_20
REMARK                            x       y       z     vdW  Elec       q    Type
REMARK                         _______ _______ _______ _____ _____    ______ ____
ROOT
ATOM      1  C   UNL     1      -2.703   1.852   4.295  0.00  0.00    +0.216 C 
ATOM      2  O   UNL     1      -3.614   1.577   3.543  0.00  0.00    -0.276 OA
ATOM      3  N   UNL     1      -2.926   2.645   5.361  0.00  0.00    -0.213 N 
ATOM      4  C   UNL     1      -4.206   3.252   5.761  0.00  0.00    +0.151 C 
ATOM      5  C   UNL     1      -3.886   4.033   7.016  0.00  0.00    +0.027 C 
ATOM      6  C   UNL     1      -2.590   3.869   7.266  0.00  0.00    +0.050 C 
ATOM      7  N   UNL     1      -1.988   3.053   6.319  0.00  0.00    -0.261 N 
ATOM      8  H   UNL     1      -1.051   2.803   6.318  0.00  0.00    +0.170 HD
ENDROOT
BRANCH   6   9
ATOM      9  C   UNL     1      -1.880   4.477   8.415  0.00  0.00    -0.002 A 
ATOM     10  C   UNL     1      -2.587   5.281   9.325  0.00  0.00    +0.010 A 
ATOM     11  C   UNL     1      -1.959   5.849  10.387  0.00  0.00    +0.009 A 
ATOM     12  C   UNL     1      -0.583   5.635  10.586  0.00  0.00    -0.018 A 
ATOM     13  C   UNL     1       0.089   6.211  11.678  0.00  0.00    +0.008 A 
ATOM     14  C   UNL     1       1.421   5.986  11.845  0.00  0.00    +0.001 A 
ATOM     15  C   UNL     1       2.132   5.190  10.949  0.00  0.00    +0.001 A 
ATOM     16  C   UNL     1       1.516   4.616   9.880  0.00  0.00    +0.008 A 
ATOM     17  C   UNL     1       0.141   4.826   9.675  0.00  0.00    -0.017 A 
ATOM     18  C   UNL     1      -0.527   4.244   8.587  0.00  0.00    +0.018 A 
ENDBRANCH   6   9
BRANCH   4  19
ATOM     19  C   UNL     1      -5.227   2.182   6.051  0.00  0.00    -0.021 A 
ATOM     20  C   UNL     1      -4.853   1.035   6.726  0.00  0.00    +0.006 A 
ATOM     21  C   UNL     1      -5.789   0.054   6.993  0.00  0.00    +0.000 A 
ATOM     22  C   UNL     1      -7.100   0.220   6.585  0.00  0.00    +0.000 A 
ATOM     23  C   UNL     1      -7.474   1.367   5.911  0.00  0.00    +0.000 A 
ATOM     24  C   UNL     1      -6.538   2.350   5.648  0.00  0.00    +0.006 A 
ENDBRANCH   4  19
BRANCH   1  25
ATOM     25  C   UNL     1      -1.322   1.307   4.036  0.00  0.00    +0.020 C 
BRANCH  25  26
ATOM     26  N   UNL     1      -1.342   0.478   2.824  0.00  0.00    +0.386 N 
ATOM     27  C   UNL     1      -2.188  -0.701   3.050  0.00  0.00    -0.095 C 
ATOM     28  H   UNL     1      -1.712   1.016   2.054  0.00  0.00    -0.081 HD
BRANCH  26  29
ATOM     29  C   UNL     1       0.025   0.045   2.504  0.00  0.00    -0.042 C 
BRANCH  29  36
ATOM     30  C   UNL     1      -0.018   1.503   0.010  0.00  0.00    +0.044 C 
ATOM     31  C   UNL     1       0.002  -0.004   0.002  0.00  0.00    -0.049 A 
ATOM     32  C   UNL     1       0.006  -0.689  -1.199  0.00  0.00    +0.003 A 
ATOM     33  C   UNL     1       0.025  -2.071  -1.207  0.00  0.00    +0.000 A 
ATOM     34  C   UNL     1       0.040  -2.768  -0.013  0.00  0.00    +0.000 A 
ATOM     35  C   UNL     1       0.037  -2.084   1.188  0.00  0.00    +0.002 A 
ATOM     36  C   UNL     1       0.023  -0.702   1.195  0.00  0.00    -0.061 A 
ENDBRANCH  29  36
ENDBRANCH  26  29
ENDBRANCH  25  26
ENDBRANCH   1  25
TORSDOF 6
