REMARK  Name = ZINC06195806
REMARK  10 active torsions:
REMARK  status: ('A' for Active; 'I' for Inactive)
REMARK    1  A    between atoms: C_1  and  C_2
REMARK    2  A    between atoms: C_5  and  C_41
REMARK    3  A    between atoms: C_6  and  N_8
REMARK    4  A    between atoms: C_13  and  C_15
REMARK    5  A    between atoms: C_13  and  C_29
REMARK    6  A    between atoms: C_13  and  N_76
REMARK    7  A    between atoms: C_18  and  C_28
REMARK    8  A    between atoms: C_21  and  C_27
REMARK    9  A    between atoms: N_33  and  C_34
REMARK   10  A    between atoms: C_34  and  C_35
REMARK                            x       y       z     vdW  Elec       q    Type
REMARK                         _______ _______ _______ _____ _____    ______ ____
ROOT
ATOM      1  C   UNL     1       1.133   7.465   0.031  0.00  0.00    +0.039 C 
ENDROOT
BRANCH   1   2
ATOM      2  C   UNL     1       1.105   5.959   0.023  0.00  0.00    +0.011 A 
ATOM      3  C   UNL     1      -0.083   5.305   0.031  0.00  0.00    +0.018 A 
ATOM      4  C   UNL     1      -0.075   3.841   0.023  0.00  0.00    +0.002 A 
ATOM      5  C   UNL     1      -1.269   3.112   0.030  0.00  0.00    -0.041 A 
ATOM      6  C   UNL     1      -1.228   1.746   0.017  0.00  0.00    +0.004 A 
ATOM      7  C   UNL     1      -0.013   1.076   0.008  0.00  0.00    +0.005 A 
ATOM      8  C   UNL     1       1.176   1.774   0.000  0.00  0.00    -0.026 A 
ATOM      9  C   UNL     1       1.159   3.165   0.008  0.00  0.00    +0.052 A 
ATOM     10  N   UNL     1       2.332   3.889   0.000  0.00  0.00    -0.322 N 
ATOM     11  H   UNL     1       3.182   3.421  -0.010  0.00  0.00    +0.169 HD
ATOM     12  C   UNL     1       2.316   5.233   0.007  0.00  0.00    +0.251 A 
ATOM     13  O   UNL     1       3.373   5.840   0.001  0.00  0.00    -0.268 OA
ATOM     14  C   UNL     1       2.488   1.033  -0.017  0.00  0.00    +0.046 C 
ATOM     15  C   UNL     1      -2.594   3.829   0.046  0.00  0.00    +0.044 C 
ENDBRANCH   1   2
BRANCH   1  21
ATOM     16  N   UNL     1       2.416   9.307   3.610  0.00  0.00    -0.333 N 
ATOM     17  C   UNL     1       2.917   9.848   2.339  0.00  0.00    +0.086 C 
ATOM     18  C   UNL     1       1.998   9.402   1.200  0.00  0.00    -0.058 C 
ATOM     19  C   UNL     1       1.446   7.393   2.432  0.00  0.00    -0.058 C 
ATOM     20  C   UNL     1       2.366   7.839   3.571  0.00  0.00    +0.086 C 
ATOM     21  N   UNL     1       1.974   7.925   1.157  0.00  0.00    +0.391 N 
ATOM     22  H   UNL     1       2.931   7.580   1.022  0.00  0.00    -0.080 HD
BRANCH  16  28
ATOM     23  C   UNL     1       6.781   9.580   5.852  0.00  0.00    +0.044 C 
ATOM     24  C   UNL     1       5.309   9.900   5.797  0.00  0.00    -0.049 A 
ATOM     25  C   UNL     1       4.723  10.635   6.812  0.00  0.00    +0.004 A 
ATOM     26  C   UNL     1       3.373  10.930   6.765  0.00  0.00    +0.005 A 
ATOM     27  C   UNL     1       2.605  10.491   5.705  0.00  0.00    -0.029 A 
ATOM     28  C   UNL     1       3.190   9.753   4.684  0.00  0.00    +0.033 A 
ATOM     29  C   UNL     1       4.546   9.454   4.736  0.00  0.00    +0.026 A 
ATOM     30  C   UNL     1       1.134  10.813   5.655  0.00  0.00    +0.045 C 
ENDBRANCH  16  28
ENDBRANCH   1  21
BRANCH   1  31
ATOM     31  C   UNL     1       1.731   7.963  -1.260  0.00  0.00    +0.143 A 
ATOM     32  N   UNL     1       2.998   7.946  -1.594  0.00  0.00    -0.115 NA
ATOM     33  N   UNL     1       3.106   8.457  -2.771  0.00  0.00    -0.023 NA
ATOM     34  N   UNL     1       1.941   8.801  -3.197  0.00  0.00    -0.044 NA
ATOM     35  N   UNL     1       1.066   8.508  -2.296  0.00  0.00    -0.228 N 
BRANCH  35  36
ATOM     36  C   UNL     1      -0.380   8.729  -2.382  0.00  0.00    +0.178 C 
BRANCH  36  37
ATOM     37  C   UNL     1      -0.717  10.116  -1.831  0.00  0.00    +0.140 C 
ATOM     38  C   UNL     1      -2.236  10.392  -1.963  0.00  0.00    +0.035 C 
ATOM     39  C   UNL     1      -2.444  11.440  -0.836  0.00  0.00    +0.031 C 
ATOM     40  C   UNL     1      -1.435  10.974   0.235  0.00  0.00    +0.160 C 
ATOM     41  O   UNL     1      -0.447  10.171  -0.421  0.00  0.00    -0.375 OA
ENDBRANCH  36  37
ENDBRANCH  35  36
ENDBRANCH   1  31
TORSDOF 6
