REMARK  Name = ZINC08719408
REMARK  7 active torsions:
REMARK  status: ('A' for Active; 'I' for Inactive)
REMARK    1  A    between atoms: C_2  and  C_3
REMARK    2  A    between atoms: C_3  and  N_4
REMARK    3  A    between atoms: C_14  and  S_15
REMARK    4  A    between atoms: S_15  and  C_16
REMARK    5  A    between atoms: C_16  and  C_17
REMARK    6  A    between atoms: N_19  and  C_20
REMARK    7  A    between atoms: C_25  and  N_26
REMARK                            x       y       z     vdW  Elec       q    Type
REMARK                         _______ _______ _______ _____ _____    ______ ____
ROOT
ATOM      1  C   UNL     1       1.276   1.990   0.030  0.00  0.00    +0.173 C 
ENDROOT
BRANCH   1   2
ATOM      2  C   UNL     1      -0.017   1.216   0.022  0.00  0.00    +0.228 C 
ATOM      3  O   UNL     1       0.002   0.003   0.007  0.00  0.00    -0.275 OA
ATOM      4  N   UNL     1      -1.194   1.871   0.027  0.00  0.00    -0.283 N 
ATOM      5  H   UNL     1      -1.211   2.838   0.106  0.00  0.00    +0.155 HD
BRANCH   4   6
ATOM      6  C   UNL     1      -2.393   1.157  -0.081  0.00  0.00    +0.061 A 
ATOM      7  C   UNL     1      -2.512  -0.095   0.503  0.00  0.00    +0.045 A 
ATOM      8  C   UNL     1      -3.699  -0.797   0.398  0.00  0.00    +0.043 A 
ATOM      9  C   UNL     1      -4.767  -0.257  -0.297  0.00  0.00    +0.022 A 
ATOM     10  C   UNL     1      -4.655   0.988  -0.886  0.00  0.00    +0.031 A 
ATOM     11  C   UNL     1      -3.469   1.700  -0.782  0.00  0.00    +0.088 A 
ATOM     12 CL   UNL     1      -3.848  -2.361   1.135  0.00  0.00    -0.083 Cl
BRANCH  11  13
ATOM     13  N   UNL     1      -3.353   2.964  -1.380  0.00  0.00    -0.218 N 
ATOM     14  C   UNL     1      -4.327   3.655  -2.004  0.00  0.00    +0.225 A 
ATOM     15  N   UNL     1      -3.818   4.787  -2.419  0.00  0.00    -0.222 NA
ATOM     16  C   UNL     1      -2.529   4.851  -2.090  0.00  0.00    +0.245 A 
ATOM     17  N   UNL     1      -2.197   3.759  -1.452  0.00  0.00    -0.153 NA
ENDBRANCH  11  13
ENDBRANCH   4   6
ENDBRANCH   1   2
BRANCH   1  18
ATOM     18  S   UNL     1       2.670   0.835   0.013  0.00  0.00    -0.078 S 
BRANCH  18  29
ATOM     19  N   UNL     1       5.287   1.483   0.021  0.00  0.00    -0.283 N 
ATOM     20  C   UNL     1       6.348   2.322   0.025  0.00  0.00    +0.263 A 
ATOM     21  O   UNL     1       7.489   1.896   0.017  0.00  0.00    -0.267 OA
ATOM     22  C   UNL     1       6.075   3.765   0.043  0.00  0.00    +0.065 A 
ATOM     23  C   UNL     1       7.102   4.708   0.053  0.00  0.00    +0.017 A 
ATOM     24  C   UNL     1       6.798   6.040   0.070  0.00  0.00    +0.021 A 
ATOM     25  C   UNL     1       5.474   6.467   0.078  0.00  0.00    +0.043 A 
ATOM     26  C   UNL     1       4.440   5.556   0.069  0.00  0.00    +0.048 A 
ATOM     27  C   UNL     1       4.726   4.189   0.051  0.00  0.00    +0.080 A 
ATOM     28  N   UNL     1       3.743   3.258   0.041  0.00  0.00    -0.223 NA
ATOM     29  C   UNL     1       4.013   1.976   0.024  0.00  0.00    +0.173 A 
ATOM     30 CL   UNL     1       5.121   8.166   0.100  0.00  0.00    -0.083 Cl
BRANCH  19  31
ATOM     31  C   UNL     1       5.505   0.035   0.008  0.00  0.00    +0.154 C 
BRANCH  31  33
ATOM     32  C   UNL     1       6.625  -1.129  -1.823  0.00  0.00    +0.005 C 
ATOM     33  C   UNL     1       5.581  -0.449  -1.417  0.00  0.00    -0.013 C 
ENDBRANCH  31  33
ENDBRANCH  19  31
ENDBRANCH  18  29
ENDBRANCH   1  18
TORSDOF 7
