REMARK  Name = ZINC18199150
REMARK  10 active torsions:
REMARK  status: ('A' for Active; 'I' for Inactive)
REMARK    1  A    between atoms: C_1  and  C_2
REMARK    2  A    between atoms: C_6  and  C_7
REMARK    3  A    between atoms: C_14  and  O_15
REMARK    4  A    between atoms: C_22  and  C_25
REMARK    5  A    between atoms: C_27  and  O_35
REMARK    6  A    between atoms: C_28  and  O_33
REMARK    7  A    between atoms: C_29  and  O_31
REMARK    8  A    between atoms: O_31  and  C_32
REMARK    9  A    between atoms: O_33  and  C_34
REMARK   10  A    between atoms: O_35  and  C_36
REMARK                            x       y       z     vdW  Elec       q    Type
REMARK                         _______ _______ _______ _____ _____    ______ ____
ROOT
ATOM      1  C   UNL     1       2.693  -1.831   9.847  0.00  0.00    +0.099 C 
ATOM      2  C   UNL     1       2.144  -1.029  10.994  0.00  0.00    +0.067 A 
ATOM      3  C   UNL     1       1.050  -0.216  10.863  0.00  0.00    +0.126 A 
ATOM      4  N   UNL     1       0.813   0.350  12.061  0.00  0.00    -0.260 N 
ATOM      5  H   UNL     1       0.076   0.992  12.275  0.00  0.00    +0.190 HD
ATOM      6  N   UNL     1       1.787  -0.120  12.957  0.00  0.00    -0.134 NA
ATOM      7  C   UNL     1       2.582  -0.946  12.312  0.00  0.00    +0.237 A 
ATOM      8  N   UNL     1       0.387  -0.084   9.649  0.00  0.00    -0.303 N 
ATOM      9  C   UNL     1       1.008  -0.533   8.511  0.00  0.00    +0.017 C 
ATOM     10  C   UNL     1       2.093  -1.337   8.548  0.00  0.00    +0.025 C 
ATOM     11  C   UNL     1       2.719  -1.759   7.362  0.00  0.00    +0.162 C 
ATOM     12  O   UNL     1       3.689  -2.488   7.430  0.00  0.00    -0.292 OA
ATOM     13  C   UNL     1       2.218  -1.330   6.012  0.00  0.00    +0.088 C 
ATOM     14  C   UNL     1       1.530   0.033   6.147  0.00  0.00    +0.032 C 
ATOM     15  C   UNL     1       0.419  -0.090   7.191  0.00  0.00    +0.059 C 
ATOM     16  H   UNL     1      -0.496   0.317   9.607  0.00  0.00    +0.153 HD
ENDROOT
BRANCH   1  22
ATOM     17  C   UNL     1       4.667  -4.170  10.099  0.00  0.00    +0.044 C 
ATOM     18  C   UNL     1       3.172  -4.352  10.157  0.00  0.00    -0.039 A 
ATOM     19  C   UNL     1       2.624  -5.609  10.333  0.00  0.00    +0.011 A 
ATOM     20  C   UNL     1       1.276  -5.738  10.373  0.00  0.00    +0.046 A 
ATOM     21  S   UNL     1       0.737  -4.048  10.166  0.00  0.00    -0.100 S 
ATOM     22  C   UNL     1       2.345  -3.284  10.040  0.00  0.00    +0.005 A 
ENDBRANCH   1  22
BRANCH  14  23
ATOM     23  C   UNL     1       0.939   0.438   4.821  0.00  0.00    -0.036 A 
ATOM     24  C   UNL     1       1.347   1.610   4.213  0.00  0.00    +0.053 A 
ATOM     25  C   UNL     1       0.806   1.986   2.993  0.00  0.00    +0.165 A 
ATOM     26  C   UNL     1      -0.148   1.182   2.381  0.00  0.00    +0.204 A 
ATOM     27  C   UNL     1      -0.560   0.006   2.998  0.00  0.00    +0.165 A 
ATOM     28  C   UNL     1      -0.010  -0.365   4.216  0.00  0.00    +0.053 A 
BRANCH  27  29
ATOM     29  O   UNL     1      -1.497  -0.781   2.406  0.00  0.00    -0.491 OA
ATOM     30  C   UNL     1      -1.873  -1.974   3.098  0.00  0.00    +0.277 C 
ENDBRANCH  27  29
BRANCH  26  31
ATOM     31  O   UNL     1      -0.682   1.547   1.184  0.00  0.00    -0.488 OA
ATOM     32  C   UNL     1      -0.013   1.086   0.008  0.00  0.00    +0.277 C 
ENDBRANCH  26  31
BRANCH  25  33
ATOM     33  O   UNL     1       1.208   3.140   2.396  0.00  0.00    -0.491 OA
ATOM     34  C   UNL     1       2.192   3.917   3.083  0.00  0.00    +0.277 C 
ENDBRANCH  25  33
ENDBRANCH  14  23
BRANCH   7  35
ATOM     35  O   UNL     1       3.646  -1.605  12.842  0.00  0.00    -0.491 OA
ATOM     36  H   UNL     1       3.739  -1.367  13.809  0.00  0.00    +0.294 HD
ENDBRANCH   7  35
TORSDOF 6
