REMARK  Name = ZINC36013812
REMARK  13 active torsions:
REMARK  status: ('A' for Active; 'I' for Inactive)
REMARK    1  A    between atoms: C_1  and  C_2
REMARK    2  A    between atoms: C_2  and  O_3
REMARK    3  A    between atoms: O_3  and  C_4
REMARK    4  A    between atoms: C_4  and  C_6
REMARK    5  A    between atoms: C_7  and  C_25
REMARK    6  A    between atoms: N_8  and  C_24
REMARK    7  A    between atoms: C_12  and  C_14
REMARK    8  A    between atoms: C_18  and  O_22
REMARK    9  A    between atoms: C_19  and  O_20
REMARK   10  A    between atoms: O_20  and  C_21
REMARK   11  A    between atoms: O_22  and  C_23
REMARK   12  A    between atoms: C_25  and  N_26
REMARK   13  A    between atoms: C_32  and  C_34
REMARK                            x       y       z     vdW  Elec       q    Type
REMARK                         _______ _______ _______ _____ _____    ______ ____
ROOT
ATOM      1  C   UNL     1       1.229  -2.633  -2.571  0.00  0.00    +0.080 C 
ATOM      2  C   UNL     1       1.758  -3.865  -2.739  0.00  0.00    +0.041 C 
ATOM      3  N   UNL     1       2.567  -4.146  -3.803  0.00  0.00    -0.260 N 
ATOM      4  C   UNL     1       2.895  -3.250  -4.743  0.00  0.00    +0.307 C 
ATOM      5  O   UNL     1       3.623  -3.595  -5.654  0.00  0.00    -0.252 OA
ATOM      6  N   UNL     1       2.445  -1.981  -4.712  0.00  0.00    -0.288 N 
ATOM      7  C   UNL     1       1.559  -1.577  -3.607  0.00  0.00    +0.147 C 
ATOM      8  C   UNL     1       3.107  -5.502  -3.921  0.00  0.00    +0.139 C 
ATOM      9  H   UNL     1       2.695  -1.348  -5.404  0.00  0.00    +0.151 HD
ENDROOT
BRANCH   7  10
ATOM     10  C   UNL     1       0.263  -1.087  -4.199  0.00  0.00    +0.023 A 
ATOM     11  C   UNL     1      -0.240  -1.675  -5.346  0.00  0.00    +0.009 A 
ATOM     12  C   UNL     1      -1.428  -1.227  -5.891  0.00  0.00    +0.004 A 
ATOM     13  C   UNL     1      -2.119  -0.189  -5.294  0.00  0.00    +0.049 A 
ATOM     14  C   UNL     1      -1.621   0.404  -4.145  0.00  0.00    +0.162 A 
ATOM     15  C   UNL     1      -0.428  -0.051  -3.592  0.00  0.00    +0.167 A 
BRANCH  15  16
ATOM     16  O   UNL     1       0.062   0.525  -2.462  0.00  0.00    -0.491 OA
ATOM     17  C   UNL     1       0.938   1.641  -2.629  0.00  0.00    +0.277 C 
ENDBRANCH  15  16
BRANCH  14  18
ATOM     18  O   UNL     1      -2.300   1.425  -3.556  0.00  0.00    -0.491 OA
ATOM     19  C   UNL     1      -3.521   1.835  -4.176  0.00  0.00    +0.277 C 
ENDBRANCH  14  18
ENDBRANCH   7  10
BRANCH   1  20
ATOM     20  C   UNL     1       0.391  -2.341  -1.470  0.00  0.00    +0.339 C 
ATOM     21  O   UNL     1       0.838  -1.751  -0.505  0.00  0.00    -0.245 OA
BRANCH  20  22
ATOM     22  O   UNL     1      -0.905  -2.717  -1.490  0.00  0.00    -0.462 OA
BRANCH  22  24
ATOM     23  C   UNL     1      -3.124  -2.891  -0.549  0.00  0.00    +0.048 C 
ATOM     24  C   UNL     1      -1.693  -2.389  -0.344  0.00  0.00    +0.229 C 
ENDBRANCH  22  24
ENDBRANCH  20  22
ENDBRANCH   1  20
BRANCH   2  25
ATOM     25  C   UNL     1       1.452  -4.946  -1.735  0.00  0.00    +0.136 C 
BRANCH  25  26
ATOM     26  N   UNL     1       2.679  -5.303  -1.010  0.00  0.00    -0.294 NA
ATOM     27  C   UNL     1       3.079  -4.230  -0.091  0.00  0.00    +0.104 C 
ATOM     28  C   UNL     1       4.451  -4.560   0.507  0.00  0.00    +0.123 C 
ATOM     29  N   UNL     1       4.389  -5.901   1.107  0.00  0.00    -0.299 N 
ATOM     30  C   UNL     1       3.867  -7.006   0.289  0.00  0.00    +0.123 C 
ATOM     31  C   UNL     1       2.518  -6.580  -0.301  0.00  0.00    +0.104 C 
ATOM     32  C   UNL     1       4.799  -6.112   2.373  0.00  0.00    +0.219 C 
ATOM     33  O   UNL     1       5.228  -5.190   3.034  0.00  0.00    -0.275 OA
BRANCH  32  34
ATOM     34  C   UNL     1       4.727  -7.495   2.968  0.00  0.00    +0.075 C 
ATOM     35  C   UNL     1       5.687  -8.456   2.225  0.00  0.00    +0.013 C 
ATOM     36  C   UNL     1       5.945  -9.563   3.277  0.00  0.00    +0.001 C 
ATOM     37  C   UNL     1       6.024  -8.801   4.616  0.00  0.00    +0.001 C 
ATOM     38  C   UNL     1       5.250  -7.486   4.420  0.00  0.00    +0.013 C 
ENDBRANCH  32  34
ENDBRANCH  25  26
ENDBRANCH   2  25
TORSDOF 9
