REMARK  Name = ZINC64650978
REMARK  13 active torsions:
REMARK  status: ('A' for Active; 'I' for Inactive)
REMARK    1  A    between atoms: C_1  and  C_2
REMARK    2  A    between atoms: C_4  and  C_35
REMARK    3  A    between atoms: C_7  and  C_12
REMARK    4  A    between atoms: N_14  and  C_15
REMARK    5  A    between atoms: C_15  and  C_16
REMARK    6  A    between atoms: C_16  and  C_18
REMARK    7  A    between atoms: C_16  and  O_19
REMARK    8  A    between atoms: O_19  and  C_20
REMARK    9  A    between atoms: C_24  and  C_26
REMARK   10  A    between atoms: C_26  and  N_27
REMARK   11  A    between atoms: N_27  and  C_28
REMARK   12  A    between atoms: N_27  and  C_29
REMARK   13  A    between atoms: C_29  and  C_30
REMARK                            x       y       z     vdW  Elec       q    Type
REMARK                         _______ _______ _______ _____ _____    ______ ____
ROOT
ATOM      1  C   UNL     1      -3.870  -5.417   6.433  0.00  0.00    +0.187 C 
ATOM      2  C   UNL     1      -4.876  -6.509   6.803  0.00  0.00    +0.053 C 
ENDROOT
BRANCH   1   3
ATOM      3  C   UNL     1      -4.353  -4.684   5.179  0.00  0.00    +0.148 C 
BRANCH   3   6
ATOM      4  C   UNL     1      -3.544  -2.955   3.666  0.00  0.00    +0.244 C 
ATOM      5  O   UNL     1      -4.577  -3.064   3.035  0.00  0.00    -0.270 OA
ATOM      6  N   UNL     1      -3.335  -3.720   4.755  0.00  0.00    -0.308 N 
ATOM      7  H   UNL     1      -2.510  -3.633   5.258  0.00  0.00    +0.149 HD
BRANCH   4  13
ATOM      8  C   UNL     1      -0.653   2.825   0.932  0.00  0.00    +0.035 C 
ATOM      9  C   UNL     1      -0.420   1.323   0.750  0.00  0.00    +0.103 C 
ATOM     10  C   UNL     1      -1.743   0.599   0.656  0.00  0.00    -0.042 C 
ATOM     11  C   UNL     1      -1.770  -0.271   1.699  0.00  0.00    -0.000 A 
ATOM     12  C   UNL     1      -2.746  -1.210   2.124  0.00  0.00    +0.023 A 
ATOM     13  C   UNL     1      -2.519  -1.984   3.239  0.00  0.00    +0.037 A 
ATOM     14  C   UNL     1      -1.284  -1.864   4.006  0.00  0.00    +0.015 A 
ATOM     15  C   UNL     1      -0.322  -0.989   3.649  0.00  0.00    +0.026 A 
ATOM     16  C   UNL     1      -0.513  -0.139   2.468  0.00  0.00    +0.043 A 
ATOM     17  N   UNL     1       0.261   0.772   1.926  0.00  0.00    -0.378 N 
ATOM     18  C   UNL     1      -2.815   0.800  -0.383  0.00  0.00    +0.042 C 
ATOM     19  H   UNL     1       1.136   1.037   2.249  0.00  0.00    +0.160 HD
ENDBRANCH   4  13
ENDBRANCH   3   6
ENDBRANCH   1   3
BRANCH   1  20
ATOM     20  O   UNL     1      -3.755  -4.489   7.513  0.00  0.00    -0.488 OA
BRANCH  20  21
ATOM     21  C   UNL     1      -2.888  -4.807   8.510  0.00  0.00    +0.121 A 
ATOM     22  C   UNL     1      -2.244  -6.036   8.504  0.00  0.00    +0.045 A 
ATOM     23  C   UNL     1      -1.362  -6.357   9.518  0.00  0.00    +0.004 A 
ATOM     24  C   UNL     1      -1.121  -5.454  10.538  0.00  0.00    +0.005 A 
ATOM     25  C   UNL     1      -1.762  -4.229  10.546  0.00  0.00    -0.030 A 
ATOM     26  C   UNL     1      -2.641  -3.902   9.531  0.00  0.00    +0.050 A 
BRANCH  25  27
ATOM     27  C   UNL     1      -1.498  -3.248  11.659  0.00  0.00    +0.119 C 
BRANCH  27  28
ATOM     28  N   UNL     1      -0.372  -2.381  11.290  0.00  0.00    -0.297 NA
ATOM     29  C   UNL     1       0.877  -3.149  11.197  0.00  0.00    +0.105 C 
BRANCH  28  30
ATOM     30  C   UNL     1      -0.235  -1.265  12.236  0.00  0.00    +0.126 C 
BRANCH  30  31
ATOM     31  C   UNL     1       0.760  -0.269  11.697  0.00  0.00    +0.004 A 
ATOM     32  C   UNL     1       0.545   0.810  10.906  0.00  0.00    +0.012 A 
ATOM     33  C   UNL     1       1.621   1.592  10.531  0.00  0.00    +0.008 A 
ATOM     34  C   UNL     1       2.860   1.257  10.966  0.00  0.00    +0.045 A 
ATOM     35  S   UNL     1       2.527  -0.201  11.943  0.00  0.00    -0.100 S 
ENDBRANCH  30  31
ENDBRANCH  28  30
ENDBRANCH  27  28
ENDBRANCH  25  27
ENDBRANCH  20  21
ENDBRANCH   1  20
TORSDOF 9
