REMARK  Name = ZINC16204387
REMARK  10 active torsions:
REMARK  status: ('A' for Active; 'I' for Inactive)
REMARK    1  A    between atoms: C_1  and  C_2
REMARK    2  A    between atoms: C_6  and  C_31
REMARK    3  A    between atoms: C_7  and  C_13
REMARK    4  A    between atoms: C_13  and  C_14
REMARK    5  A    between atoms: C_14  and  C_15
REMARK    6  A    between atoms: N_17  and  C_18
REMARK    7  A    between atoms: N_17  and  C_19
REMARK    8  A    between atoms: C_19  and  C_20
REMARK    9  A    between atoms: N_22  and  C_23
REMARK   10  A    between atoms: C_28  and  C_29
REMARK                            x       y       z     vdW  Elec       q    Type
REMARK                         _______ _______ _______ _____ _____    ______ ____
ROOT
ATOM      1  C   UNL     1       1.978   2.241  -1.189  0.00  0.00    +0.216 C 
ATOM      2  O   UNL     1       1.402   2.028  -2.235  0.00  0.00    -0.276 OA
ATOM      3  N   UNL     1       1.355   2.010  -0.017  0.00  0.00    -0.296 N 
ATOM      4  C   UNL     1       2.052   2.267   1.246  0.00  0.00    +0.132 C 
ENDROOT
BRANCH   1   5
ATOM      5  C   UNL     1       3.392   2.763  -1.201  0.00  0.00    +0.101 C 
BRANCH   5   6
ATOM      6  C   UNL     1       3.860   2.936  -2.648  0.00  0.00    +0.052 C 
BRANCH   6  13
ATOM      7  C   UNL     1      11.608   4.813  -2.711  0.00  0.00    +0.044 C 
ATOM      8  C   UNL     1      10.217   4.232  -2.700  0.00  0.00    -0.047 A 
ATOM      9  C   UNL     1      10.049   2.854  -2.695  0.00  0.00    +0.004 A 
ATOM     10  C   UNL     1       8.796   2.309  -2.685  0.00  0.00    +0.012 A 
ATOM     11  C   UNL     1       7.676   3.146  -2.678  0.00  0.00    +0.021 A 
ATOM     12  C   UNL     1       6.318   2.592  -2.666  0.00  0.00    -0.030 A 
ATOM     13  C   UNL     1       5.273   3.458  -2.660  0.00  0.00    +0.041 A 
ATOM     14  C   UNL     1       5.514   4.849  -2.671  0.00  0.00    +0.341 A 
ATOM     15  O   UNL     1       4.568   5.615  -2.671  0.00  0.00    -0.245 OA
ATOM     16  O   UNL     1       6.760   5.348  -2.676  0.00  0.00    -0.422 OA
ATOM     17  C   UNL     1       7.843   4.542  -2.682  0.00  0.00    +0.140 A 
ATOM     18  C   UNL     1       9.126   5.074  -2.693  0.00  0.00    +0.050 A 
ATOM     19  C   UNL     1       6.090   1.103  -2.661  0.00  0.00    +0.045 C 
ENDBRANCH   6  13
ENDBRANCH   5   6
ENDBRANCH   1   5
BRANCH   3  20
ATOM     20  C   UNL     1      -0.019   1.503  -0.005  0.00  0.00    +0.203 C 
BRANCH  20  21
ATOM     21  C   UNL     1       0.002  -0.004  -0.001  0.00  0.00    +0.235 C 
ATOM     22  O   UNL     1       1.060  -0.596  -0.008  0.00  0.00    -0.274 OA
ATOM     23  N   UNL     1      -1.156  -0.694   0.009  0.00  0.00    -0.284 N 
ATOM     24  H   UNL     1      -2.000  -0.224   0.096  0.00  0.00    +0.155 HD
BRANCH  23  25
ATOM     25  C   UNL     1      -1.140  -2.089  -0.104  0.00  0.00    +0.036 A 
ATOM     26  C   UNL     1      -0.072  -2.724  -0.724  0.00  0.00    +0.024 A 
ATOM     27  C   UNL     1      -0.059  -4.101  -0.834  0.00  0.00    +0.017 A 
ATOM     28  C   UNL     1      -1.109  -4.847  -0.327  0.00  0.00    +0.018 A 
ATOM     29  C   UNL     1      -2.174  -4.216   0.290  0.00  0.00    +0.020 A 
ATOM     30  C   UNL     1      -2.190  -2.840   0.408  0.00  0.00    -0.028 A 
ATOM     31  C   UNL     1      -3.347  -2.154   1.087  0.00  0.00    +0.046 C 
ATOM     32 BR   UNL     1      -1.087  -6.731  -0.479  0.00  0.00    -0.050 Br
ENDBRANCH  23  25
ENDBRANCH  20  21
ENDBRANCH   3  20
TORSDOF 6
