REMARK  Name = ZINC08817878
REMARK  7 active torsions:
REMARK  status: ('A' for Active; 'I' for Inactive)
REMARK    1  A    between atoms: C_3  and  C_6
REMARK    2  A    between atoms: C_6  and  N_7
REMARK    3  A    between atoms: N_7  and  C_8
REMARK    4  A    between atoms: C_10  and  N_17
REMARK    5  A    between atoms: C_13  and  N_14
REMARK    6  A    between atoms: C_23  and  C_25
REMARK    7  A    between atoms: C_26  and  C_27
REMARK                            x       y       z     vdW  Elec       q    Type
REMARK                         _______ _______ _______ _____ _____    ______ ____
ROOT
ATOM      1  N   UNL     1      -5.134   5.226  -0.207  0.00  0.00    -0.327 N 
ATOM      2  C   UNL     1      -4.231   5.840  -1.189  0.00  0.00    +0.124 C 
ATOM      3  C   UNL     1      -5.051   6.371  -2.369  0.00  0.00    +0.127 C 
ATOM      4  N   UNL     1      -6.100   7.260  -1.848  0.00  0.00    -0.295 N 
ATOM      5  C   UNL     1      -6.959   6.761  -0.763  0.00  0.00    +0.127 C 
ATOM      6  C   UNL     1      -6.064   6.215   0.354  0.00  0.00    +0.124 C 
ATOM      7  C   UNL     1      -6.269   8.499  -2.350  0.00  0.00    +0.240 C 
ATOM      8  O   UNL     1      -7.066   9.261  -1.834  0.00  0.00    -0.271 OA
ENDROOT
BRANCH   1  11
ATOM      9  C   UNL     1      -2.765   2.979   1.490  0.00  0.00    +0.060 A 
ATOM     10  C   UNL     1      -3.479   3.612   0.482  0.00  0.00    +0.048 A 
ATOM     11  C   UNL     1      -4.414   4.586   0.804  0.00  0.00    +0.032 A 
ATOM     12  C   UNL     1      -4.633   4.923   2.135  0.00  0.00    +0.025 A 
ATOM     13  C   UNL     1      -3.920   4.291   3.136  0.00  0.00    +0.036 A 
ATOM     14  C   UNL     1      -2.993   3.317   2.818  0.00  0.00    +0.147 A 
BRANCH  14  15
ATOM     15  N   UNL     1      -2.237   2.638   3.894  0.00  0.00    +0.058 N 
ATOM     16  O   UNL     1      -2.791   2.351   4.940  0.00  0.00    -0.126 OA
ATOM     17  O   UNL     1      -1.061   2.365   3.733  0.00  0.00    -0.126 OA
ENDBRANCH  14  15
BRANCH   9  18
ATOM     18  N   UNL     1      -1.823   1.999   1.170  0.00  0.00    -0.335 N 
ATOM     19  H   UNL     1      -1.290   1.592   1.870  0.00  0.00    +0.147 HD
BRANCH  18  20
ATOM     20  C   UNL     1      -1.641   1.585  -0.224  0.00  0.00    +0.176 C 
BRANCH  20  23
ATOM     21  C   UNL     1       0.488  -1.421  -0.332  0.00  0.00    +0.041 A 
ATOM     22  C   UNL     1      -0.777  -0.803  -0.206  0.00  0.00    +0.046 A 
ATOM     23  C   UNL     1      -0.575   0.523  -0.297  0.00  0.00    +0.122 A 
ATOM     24  O   UNL     1       0.739   0.741  -0.471  0.00  0.00    -0.466 OA
ATOM     25  C   UNL     1       1.389  -0.435  -0.493  0.00  0.00    +0.195 A 
ENDBRANCH  20  23
ENDBRANCH  18  20
ENDBRANCH   9  18
ENDBRANCH   1  11
BRANCH   7  26
ATOM     26  C   UNL     1      -5.494   8.929  -3.515  0.00  0.00    +0.068 C 
ATOM     27  C   UNL     1      -5.572  10.206  -3.943  0.00  0.00    +0.014 C 
BRANCH  27  28
ATOM     28  C   UNL     1      -4.794  10.638  -5.114  0.00  0.00    -0.006 A 
ATOM     29  C   UNL     1      -3.967   9.729  -5.782  0.00  0.00    +0.011 A 
ATOM     30  C   UNL     1      -3.244  10.139  -6.882  0.00  0.00    +0.020 A 
ATOM     31  C   UNL     1      -3.326  11.451  -7.319  0.00  0.00    +0.042 A 
ATOM     32  C   UNL     1      -4.138  12.359  -6.660  0.00  0.00    +0.040 A 
ATOM     33  C   UNL     1      -4.872  11.962  -5.561  0.00  0.00    +0.049 A 
ATOM     34 CL   UNL     1      -5.888  13.101  -4.735  0.00  0.00    -0.083 Cl
ATOM     35 CL   UNL     1      -2.407  11.960  -8.701  0.00  0.00    -0.083 Cl
ENDBRANCH  27  28
ENDBRANCH   7  26
TORSDOF 7
