REMARK  Name = ZINC34750133
REMARK  10 active torsions:
REMARK  status: ('A' for Active; 'I' for Inactive)
REMARK    1  A    between atoms: C_1  and  C_2
REMARK    2  A    between atoms: C_5  and  C_35
REMARK    3  A    between atoms: C_6  and  C_8
REMARK    4  A    between atoms: C_8  and  S_9
REMARK    5  A    between atoms: S_9  and  C_10
REMARK    6  A    between atoms: C_21  and  C_23
REMARK    7  A    between atoms: C_21  and  C_24
REMARK    8  A    between atoms: N_28  and  C_31
REMARK    9  A    between atoms: C_31  and  C_32
REMARK   10  A    between atoms: C_32  and  C_34
REMARK                            x       y       z     vdW  Elec       q    Type
REMARK                         _______ _______ _______ _____ _____    ______ ____
ROOT
ATOM      1  C   UNL     1       1.794  -3.556   4.434  0.00  0.00    +0.191 A 
ATOM      2  N   UNL     1       2.852  -4.022   5.090  0.00  0.00    -0.206 NA
ATOM      3  C   UNL     1       2.734  -4.834   6.127  0.00  0.00    +0.134 A 
ATOM      4  C   UNL     1       1.437  -5.227   6.560  0.00  0.00    +0.051 A 
ATOM      5  C   UNL     1       1.067  -6.106   7.668  0.00  0.00    -0.020 A 
ATOM      6  C   UNL     1      -0.251  -6.319   7.870  0.00  0.00    +0.021 A 
ATOM      7  S   UNL     1      -1.069  -5.375   6.617  0.00  0.00    -0.071 S 
ATOM      8  C   UNL     1       0.362  -4.694   5.819  0.00  0.00    +0.115 A 
ATOM      9  N   UNL     1       0.562  -3.884   4.797  0.00  0.00    -0.215 NA
ATOM     10  C   UNL     1      -0.855  -7.179   8.937  0.00  0.00    +0.203 C 
ATOM     11  O   UNL     1       0.191  -7.985   9.501  0.00  0.00    -0.368 OA
ATOM     12  C   UNL     1       1.360  -7.238   9.850  0.00  0.00    +0.068 C 
ATOM     13  C   UNL     1       2.088  -6.777   8.584  0.00  0.00    +0.071 C 
ATOM     14  C   UNL     1       0.953  -6.015  10.674  0.00  0.00    +0.041 C 
ATOM     15  C   UNL     1       2.296  -8.118  10.681  0.00  0.00    +0.041 C 
ATOM     16  N   UNL     1       3.860  -5.297   6.783  0.00  0.00    -0.318 N 
ATOM     17  C   UNL     1       4.451  -6.600   6.442  0.00  0.00    +0.088 C 
ATOM     18  C   UNL     1       5.952  -6.405   6.204  0.00  0.00    -0.059 C 
ATOM     19  N   UNL     1       6.553  -5.755   7.375  0.00  0.00    +0.384 N 
ATOM     20  C   UNL     1       5.999  -4.404   7.536  0.00  0.00    -0.059 C 
ATOM     21  C   UNL     1       4.504  -4.497   7.836  0.00  0.00    +0.088 C 
ATOM     22  H   UNL     1       6.352  -6.299   8.201  0.00  0.00    -0.081 HD
ENDROOT
BRANCH   1  23
ATOM     23  S   UNL     1       2.034  -2.478   3.062  0.00  0.00    -0.081 S 
BRANCH  23  24
ATOM     24  C   UNL     1       0.351  -2.102   2.500  0.00  0.00    +0.112 C 
BRANCH  24  30
ATOM     25  C   UNL     1       0.454   2.537   0.625  0.00  0.00    +0.044 C 
ATOM     26  C   UNL     1       0.461   1.045   0.416  0.00  0.00    -0.050 A 
ATOM     27  C   UNL     1       0.525   0.526  -0.864  0.00  0.00    +0.003 A 
ATOM     28  C   UNL     1       0.532  -0.843  -1.055  0.00  0.00    +0.004 A 
ATOM     29  C   UNL     1       0.476  -1.693   0.034  0.00  0.00    -0.046 A 
ATOM     30  C   UNL     1       0.413  -1.175   1.313  0.00  0.00    -0.034 A 
ATOM     31  C   UNL     1       0.410   0.195   1.505  0.00  0.00    +0.008 A 
ATOM     32  C   UNL     1       0.482  -3.186  -0.175  0.00  0.00    +0.044 C 
ENDBRANCH  24  30
ENDBRANCH  23  24
ENDBRANCH   1  23
BRANCH  19  33
ATOM     33  C   UNL     1       8.008  -5.667   7.193  0.00  0.00    -0.048 C 
BRANCH  33  34
ATOM     34  C   UNL     1       8.597  -7.054   7.185  0.00  0.00    -0.096 C 
ATOM     35  C   UNL     1       8.831  -7.660   6.047  0.00  0.00    +0.005 C 
ATOM     36  C   UNL     1       8.917  -7.745   8.485  0.00  0.00    +0.036 C 
ENDBRANCH  33  34
ENDBRANCH  19  33
TORSDOF 5
