REMARK  Name = ZINC21317966
REMARK  4 active torsions:
REMARK  status: ('A' for Active; 'I' for Inactive)
REMARK    1  A    between atoms: C_11  and  C_32
REMARK    2  A    between atoms: C_14  and  C_16
REMARK    3  A    between atoms: C_16  and  N_17
REMARK    4  A    between atoms: C_25  and  C_27
REMARK                            x       y       z     vdW  Elec       q    Type
REMARK                         _______ _______ _______ _____ _____    ______ ____
ROOT
ATOM      1  C   UNL     1      -0.013   1.076   0.008  0.00  0.00    +0.002 A 
ATOM      2  C   UNL     1      -1.221   1.748   0.017  0.00  0.00    +0.002 A 
ATOM      3  C   UNL     1      -1.249   3.131   0.040  0.00  0.00    +0.025 A 
ATOM      4  C   UNL     1      -0.062   3.845   0.046  0.00  0.00    +0.058 A 
ATOM      5  C   UNL     1       1.157   3.166   0.015  0.00  0.00    +0.055 A 
ATOM      6  C   UNL     1       1.177   1.781   0.000  0.00  0.00    +0.025 A 
ATOM      7  N   UNL     1       2.346   3.902  -0.025  0.00  0.00    -0.284 N 
ATOM      8  C   UNL     1       2.556   4.915   0.844  0.00  0.00    +0.219 C 
ATOM      9  O   UNL     1       3.555   5.596   0.746  0.00  0.00    -0.275 OA
ATOM     10  C   UNL     1       1.558   5.205   1.933  0.00  0.00    +0.128 C 
ATOM     11  C   UNL     1       0.328   5.903   1.348  0.00  0.00    +0.194 C 
ATOM     12  N   UNL     1      -0.070   5.245   0.102  0.00  0.00    -0.259 N 
ATOM     13  C   UNL     1      -0.438   5.973  -0.971  0.00  0.00    +0.204 C 
ATOM     14  O   UNL     1      -0.441   7.185  -0.909  0.00  0.00    -0.277 OA
ATOM     15  H   UNL     1       3.120   3.658  -0.768  0.00  0.00    +0.155 HD
ENDROOT
BRANCH  11  16
ATOM     16  C   UNL     1      -0.824   5.829   2.353  0.00  0.00    +0.409 C 
ATOM     17  F   UNL     1      -0.448   6.465   3.541  0.00  0.00    -0.169 F 
ATOM     18  F   UNL     1      -1.949   6.467   1.819  0.00  0.00    -0.169 F 
ATOM     19  F   UNL     1      -1.128   4.489   2.616  0.00  0.00    -0.169 F 
ENDBRANCH  11  16
BRANCH  13  20
ATOM     20  C   UNL     1      -0.845   5.282  -2.246  0.00  0.00    +0.020 C 
BRANCH  20  21
ATOM     21  N   UNL     1      -1.198   6.288  -3.257  0.00  0.00    +0.393 N 
ATOM     22  C   UNL     1      -0.021   7.078  -3.647  0.00  0.00    -0.072 C 
ATOM     23  C   UNL     1      -0.496   8.351  -4.368  0.00  0.00    +0.024 C 
ATOM     24  C   UNL     1      -1.530   7.950  -5.368  0.00  0.00    -0.010 A 
ATOM     25  C   UNL     1      -2.173   6.750  -5.437  0.00  0.00    -0.046 A 
ATOM     26  C   UNL     1      -3.103   6.601  -6.463  0.00  0.00    +0.010 A 
ATOM     27  C   UNL     1      -3.329   7.619  -7.325  0.00  0.00    +0.045 A 
ATOM     28  S   UNL     1      -2.210   8.873  -6.717  0.00  0.00    -0.101 S 
ATOM     29  C   UNL     1      -1.852   5.664  -4.414  0.00  0.00    +0.002 C 
ATOM     30  H   UNL     1      -1.924   6.985  -2.812  0.00  0.00    -0.080 HD
BRANCH  29  31
ATOM     31  C   UNL     1      -3.127   4.993  -3.973  0.00  0.00    -0.019 A 
ATOM     32  C   UNL     1      -3.646   3.804  -4.366  0.00  0.00    +0.010 A 
ATOM     33  C   UNL     1      -4.844   3.382  -3.820  0.00  0.00    +0.008 A 
ATOM     34  C   UNL     1      -5.464   4.169  -2.907  0.00  0.00    +0.045 A 
ATOM     35  S   UNL     1      -4.342   5.553  -2.791  0.00  0.00    -0.103 S 
ENDBRANCH  29  31
ENDBRANCH  20  21
ENDBRANCH  13  20
TORSDOF 4
