REMARK  Name = ZINC59361986
REMARK  10 active torsions:
REMARK  status: ('A' for Active; 'I' for Inactive)
REMARK    1  A    between atoms: C_1  and  C_2
REMARK    2  A    between atoms: C_2  and  C_3
REMARK    3  A    between atoms: C_3  and  C_4
REMARK    4  A    between atoms: C_5  and  C_23
REMARK    5  A    between atoms: C_6  and  C_22
REMARK    6  A    between atoms: C_9  and  C_10
REMARK    7  A    between atoms: N_12  and  C_13
REMARK    8  A    between atoms: C_16  and  N_20
REMARK    9  A    between atoms: C_23  and  O_25
REMARK   10  A    between atoms: O_25  and  C_26
REMARK                            x       y       z     vdW  Elec       q    Type
REMARK                         _______ _______ _______ _____ _____    ______ ____
ROOT
ATOM      1  C   UNL     1      -1.430  -2.393  -2.491  0.00  0.00    +0.265 C 
ATOM      2  O   UNL     1      -1.677  -1.207  -2.604  0.00  0.00    -0.268 OA
ATOM      3  N   UNL     1      -2.284  -3.309  -2.987  0.00  0.00    -0.280 N 
ATOM      4  H   UNL     1      -2.056  -4.252  -2.957  0.00  0.00    +0.155 HD
ENDROOT
BRANCH   3   5
ATOM      5  C   UNL     1      -3.502  -2.901  -3.547  0.00  0.00    +0.037 A 
ATOM      6  C   UNL     1      -4.636  -3.688  -3.391  0.00  0.00    +0.045 A 
ATOM      7  C   UNL     1      -5.837  -3.285  -3.943  0.00  0.00    +0.065 A 
ATOM      8  C   UNL     1      -5.910  -2.094  -4.653  0.00  0.00    +0.062 A 
ATOM      9  C   UNL     1      -4.776  -1.307  -4.808  0.00  0.00    +0.065 A 
ATOM     10  C   UNL     1      -3.576  -1.707  -4.252  0.00  0.00    +0.045 A 
ATOM     11 CL   UNL     1      -4.867   0.182  -5.696  0.00  0.00    -0.082 Cl
ATOM     12 CL   UNL     1      -7.254  -4.269  -3.748  0.00  0.00    -0.082 Cl
BRANCH   8  13
ATOM     13  N   UNL     1      -7.128  -1.685  -5.212  0.00  0.00    -0.356 N 
ATOM     14  H   UNL     1      -7.920  -2.235  -5.104  0.00  0.00    +0.142 HD
ATOM     15  H   UNL     1      -7.179  -0.853  -5.708  0.00  0.00    +0.142 HD
ENDBRANCH   8  13
ENDBRANCH   3   5
BRANCH   1  21
ATOM     16  C   UNL     1       0.742  -2.005  -1.270  0.00  0.00    -0.003 A 
ATOM     17  C   UNL     1       1.744  -2.835  -0.719  0.00  0.00    +0.083 A 
ATOM     18  C   UNL     1       1.366  -4.143  -0.961  0.00  0.00    +0.028 A 
ATOM     19  N   UNL     1       0.197  -4.130  -1.622  0.00  0.00    -0.354 N 
ATOM     20  H   UNL     1      -0.291  -4.916  -1.914  0.00  0.00    +0.166 HD
ATOM     21  C   UNL     1      -0.202  -2.825  -1.814  0.00  0.00    +0.106 A 
ATOM     22  C   UNL     1       2.134  -5.373  -0.552  0.00  0.00    +0.064 C 
BRANCH  17  23
ATOM     23  C   UNL     1       2.962  -2.392  -0.021  0.00  0.00    +0.341 C 
ATOM     24  O   UNL     1       2.947  -2.227   1.183  0.00  0.00    -0.245 OA
BRANCH  23  25
ATOM     25  O   UNL     1       4.095  -2.168  -0.718  0.00  0.00    -0.464 OA
ATOM     26  C   UNL     1       5.238  -1.739   0.024  0.00  0.00    +0.280 C 
ENDBRANCH  23  25
ENDBRANCH  17  23
BRANCH  16  27
ATOM     27  C   UNL     1       0.716  -0.498  -1.253  0.00  0.00    +0.038 C 
BRANCH  27  29
ATOM     28  C   UNL     1      -0.022   1.516   0.029  0.00  0.00    +0.004 C 
ATOM     29  C   UNL     1       0.004  -0.014   0.012  0.00  0.00    +0.001 C 
ENDBRANCH  27  29
ENDBRANCH  16  27
ENDBRANCH   1  21
TORSDOF 7
