REMARK  Name = ZINC13193677
REMARK  9 active torsions:
REMARK  status: ('A' for Active; 'I' for Inactive)
REMARK    1  A    between atoms: C_1  and  O_2
REMARK    2  A    between atoms: O_2  and  C_3
REMARK    3  A    between atoms: C_6  and  C_11
REMARK    4  A    between atoms: C_8  and  O_9
REMARK    5  A    between atoms: O_9  and  C_10
REMARK    6  A    between atoms: C_13  and  C_28
REMARK    7  A    between atoms: N_17  and  C_18
REMARK    8  A    between atoms: C_22  and  C_24
REMARK    9  A    between atoms: C_28  and  C_30
REMARK                            x       y       z     vdW  Elec       q    Type
REMARK                         _______ _______ _______ _____ _____    ______ ____
ROOT
ATOM      1  C   UNL     1       2.429  -2.690  -4.154  0.00  0.00    +0.150 C 
ATOM      2  C   UNL     1       3.921  -2.899  -4.262  0.00  0.00    +0.077 C 
ATOM      3  C   UNL     1       4.274  -2.550  -5.521  0.00  0.00    +0.250 C 
ATOM      4  C   UNL     1       3.073  -2.115  -6.260  0.00  0.00    +0.292 C 
ATOM      5  O   UNL     1       3.063  -1.740  -7.415  0.00  0.00    -0.266 OA
ATOM      6  N   UNL     1       1.989  -2.196  -5.464  0.00  0.00    -0.253 N 
ATOM      7  O   UNL     1       5.531  -2.593  -6.023  0.00  0.00    -0.282 OA
ENDROOT
BRANCH   1  11
ATOM      8  C   UNL     1       1.568   0.206  -1.127  0.00  0.00    +0.162 A 
ATOM      9  C   UNL     1       2.593   0.429  -2.033  0.00  0.00    +0.050 A 
ATOM     10  C   UNL     1       2.869  -0.509  -3.010  0.00  0.00    +0.009 A 
ATOM     11  C   UNL     1       2.124  -1.671  -3.087  0.00  0.00    -0.018 A 
ATOM     12  C   UNL     1       1.100  -1.900  -2.187  0.00  0.00    +0.055 A 
ATOM     13  C   UNL     1       0.822  -0.966  -1.201  0.00  0.00    +0.162 A 
BRANCH   8  15
ATOM     14  C   UNL     1       2.102   2.307  -0.150  0.00  0.00    +0.277 C 
ATOM     15  O   UNL     1       1.296   1.128  -0.165  0.00  0.00    -0.491 OA
ENDBRANCH   8  15
BRANCH  13  16
ATOM     16  O   UNL     1      -0.181  -1.193  -0.311  0.00  0.00    -0.491 OA
ATOM     17  C   UNL     1      -0.836  -2.461  -0.381  0.00  0.00    +0.277 C 
ENDBRANCH  13  16
ENDBRANCH   1  11
BRANCH   6  18
ATOM     18  C   UNL     1       0.678  -1.867  -5.822  0.00  0.00    +0.038 A 
ATOM     19  C   UNL     1      -0.349  -1.993  -4.893  0.00  0.00    +0.023 A 
ATOM     20  C   UNL     1      -1.647  -1.670  -5.240  0.00  0.00    +0.003 A 
ATOM     21  C   UNL     1      -1.933  -1.219  -6.513  0.00  0.00    +0.015 A 
ATOM     22  C   UNL     1      -0.910  -1.089  -7.455  0.00  0.00    +0.065 A 
ATOM     23  C   UNL     1       0.402  -1.410  -7.101  0.00  0.00    +0.038 A 
BRANCH  22  24
ATOM     24  C   UNL     1      -1.213  -0.607  -8.816  0.00  0.00    +0.387 C 
ATOM     25  O   UNL     1      -2.362  -0.322  -9.122  0.00  0.00    -0.241 OA
ATOM     26  O   UNL     1      -0.315  -0.494  -9.639  0.00  0.00    -0.241 OA
ENDBRANCH  22  24
ENDBRANCH   6  18
BRANCH   2  27
ATOM     27  C   UNL     1       4.816  -3.386  -3.206  0.00  0.00    +0.202 C 
ATOM     28  O   UNL     1       6.022  -3.372  -3.374  0.00  0.00    -0.286 OA
BRANCH  27  29
ATOM     29  C   UNL     1       4.258  -3.890  -1.948  0.00  0.00    +0.059 A 
ATOM     30  C   UNL     1       4.917  -4.249  -0.778  0.00  0.00    +0.019 A 
ATOM     31  C   UNL     1       4.116  -4.691   0.245  0.00  0.00    +0.008 A 
ATOM     32  C   UNL     1       2.773  -4.749   0.055  0.00  0.00    +0.046 A 
ATOM     33  S   UNL     1       2.555  -4.196  -1.517  0.00  0.00    -0.093 S 
ENDBRANCH  27  29
ENDBRANCH   2  27
TORSDOF 7
