REMARK  Name = ZINC09753451
REMARK  13 active torsions:
REMARK  status: ('A' for Active; 'I' for Inactive)
REMARK    1  A    between atoms: C_1  and  C_2
REMARK    2  A    between atoms: C_3  and  C_33
REMARK    3  A    between atoms: C_11  and  C_13
REMARK    4  A    between atoms: C_13  and  C_15
REMARK    5  A    between atoms: C_13  and  O_16
REMARK    6  A    between atoms: O_16  and  C_17
REMARK    7  A    between atoms: C_17  and  C_19
REMARK    8  A    between atoms: C_23  and  S_25
REMARK    9  A    between atoms: S_25  and  N_28
REMARK   10  A    between atoms: N_28  and  C_29
REMARK   11  A    between atoms: N_28  and  C_30
REMARK   12  A    between atoms: C_30  and  C_31
REMARK   13  A    between atoms: C_30  and  C_32
REMARK                            x       y       z     vdW  Elec       q    Type
REMARK                         _______ _______ _______ _____ _____    ______ ____
ROOT
ATOM      1  O   UNL     1       5.708  -3.758  -1.796  0.00  0.00    -0.450 OA
ENDROOT
BRANCH   1   2
ATOM      2  C   UNL     1       6.364  -4.969  -1.333  0.00  0.00    +0.239 C 
ATOM      3  C   UNL     1       6.165  -6.082  -2.364  0.00  0.00    +0.060 C 
BRANCH   2  14
ATOM      4  C   UNL     1      12.667  -3.325   0.252  0.00  0.00    +0.045 C 
ATOM      5  C   UNL     1      11.967  -4.088  -0.844  0.00  0.00    -0.026 A 
ATOM      6  C   UNL     1      12.673  -4.645  -1.841  0.00  0.00    -0.008 A 
ATOM      7  S   UNL     1      11.421  -5.411  -2.854  0.00  0.00    -0.073 S 
ATOM      8  C   UNL     1       9.989  -4.961  -1.909  0.00  0.00    +0.116 A 
ATOM      9  C   UNL     1      10.523  -4.228  -0.833  0.00  0.00    +0.075 A 
ATOM     10  C   UNL     1       9.568  -3.729   0.112  0.00  0.00    +0.260 A 
ATOM     11  O   UNL     1       9.933  -3.083   1.079  0.00  0.00    -0.267 OA
ATOM     12  N   UNL     1       8.262  -3.987  -0.085  0.00  0.00    -0.307 N 
ATOM     13  H   UNL     1       7.610  -3.652   0.551  0.00  0.00    +0.170 HD
ATOM     14  C   UNL     1       7.837  -4.706  -1.156  0.00  0.00    +0.152 A 
ATOM     15  N   UNL     1       8.683  -5.178  -2.032  0.00  0.00    -0.223 NA
ATOM     16  C   UNL     1      14.165  -4.627  -2.054  0.00  0.00    +0.052 C 
ENDBRANCH   2  14
ENDBRANCH   1   2
BRANCH   1  17
ATOM     17  C   UNL     1       4.422  -3.583  -1.435  0.00  0.00    +0.340 C 
ATOM     18  O   UNL     1       3.864  -4.418  -0.752  0.00  0.00    -0.245 OA
BRANCH  17  19
ATOM     19  C   UNL     1       3.691  -2.375  -1.869  0.00  0.00    +0.061 A 
ATOM     20  C   UNL     1       4.330  -1.413  -2.654  0.00  0.00    +0.015 A 
ATOM     21  C   UNL     1       3.642  -0.287  -3.056  0.00  0.00    +0.003 A 
ATOM     22  C   UNL     1       2.319  -0.113  -2.687  0.00  0.00    +0.028 A 
ATOM     23  C   UNL     1       1.682  -1.059  -1.905  0.00  0.00    +0.106 A 
ATOM     24  C   UNL     1       2.359  -2.190  -1.496  0.00  0.00    +0.043 A 
BRANCH  23  25
ATOM     25  S   UNL     1      -0.000  -0.824  -1.437  0.00  0.00    +0.061 S 
ATOM     26  O   UNL     1      -0.531  -2.115  -1.167  0.00  0.00    -0.153 OA
ATOM     27  O   UNL     1      -0.572   0.049  -2.401  0.00  0.00    -0.153 OA
BRANCH  25  28
ATOM     28  N   UNL     1       0.002  -0.004   0.002  0.00  0.00    -0.177 NA
ATOM     29  C   UNL     1      -0.018   1.461   0.010  0.00  0.00    +0.132 C 
BRANCH  28  30
ATOM     30  C   UNL     1       0.024  -0.743   1.267  0.00  0.00    +0.073 C 
ATOM     31  C   UNL     1       1.276  -0.361   2.059  0.00  0.00    +0.025 C 
ATOM     32  C   UNL     1      -1.222  -0.395   2.083  0.00  0.00    +0.025 C 
ENDBRANCH  28  30
ENDBRANCH  25  28
ENDBRANCH  23  25
ENDBRANCH  17  19
ENDBRANCH   1  17
TORSDOF 7
