REMARK  Name = ZINC36764836
REMARK  10 active torsions:
REMARK  status: ('A' for Active; 'I' for Inactive)
REMARK    1  A    between atoms: C_1  and  C_2
REMARK    2  A    between atoms: C_2  and  C_3
REMARK    3  A    between atoms: C_2  and  C_11
REMARK    4  A    between atoms: C_2  and  N_20
REMARK    5  A    between atoms: C_3  and  C_4
REMARK    6  A    between atoms: C_4  and  C_5
REMARK    7  A    between atoms: C_13  and  C_16
REMARK    8  A    between atoms: C_16  and  C_17
REMARK    9  A    between atoms: C_16  and  C_18
REMARK   10  A    between atoms: C_16  and  C_19
REMARK                            x       y       z     vdW  Elec       q    Type
REMARK                         _______ _______ _______ _____ _____    ______ ____
ROOT
ATOM      1  C   UNL     1      -0.019   1.526   0.010  0.00  0.00    -0.003 C 
ATOM      2  C   UNL     1       0.002  -0.004   0.002  0.00  0.00    -0.009 C 
ENDROOT
BRANCH   2   3
ATOM      3  C   UNL     1      -1.412  -0.526   0.013  0.00  0.00    +0.160 A 
ATOM      4  N   UNL     1      -2.308  -0.363  -0.967  0.00  0.00    -0.197 NA
ATOM      5  C   UNL     1      -3.434  -0.936  -0.643  0.00  0.00    +0.233 A 
ATOM      6  O   UNL     1      -3.290  -1.490   0.568  0.00  0.00    -0.338 OA
ATOM      7  N   UNL     1      -1.958  -1.213   0.974  0.00  0.00    -0.063 NA
BRANCH   5   8
ATOM      8  C   UNL     1      -4.683  -0.969  -1.486  0.00  0.00    +0.041 C 
ATOM      9  C   UNL     1      -4.381  -1.663  -2.816  0.00  0.00    +0.020 C 
ATOM     10  C   UNL     1      -5.778  -1.740  -0.746  0.00  0.00    +0.020 C 
ATOM     11  C   UNL     1      -5.157   0.461  -1.753  0.00  0.00    +0.020 C 
ENDBRANCH   5   8
ENDBRANCH   2   3
BRANCH   2  12
ATOM     12  N   UNL     1       0.690  -0.478  -1.207  0.00  0.00    +0.386 N 
ATOM     13  H   UNL     1       1.636  -0.129  -1.214  0.00  0.00    -0.089 HD
ATOM     14  H   UNL     1       0.703  -1.487  -1.212  0.00  0.00    -0.089 HD
ATOM     15  H   UNL     1       0.202  -0.144  -2.024  0.00  0.00    -0.089 HD
ENDBRANCH   2  12
BRANCH   2  16
ATOM     16  C   UNL     1       0.742  -0.511   1.242  0.00  0.00    -0.001 C 
BRANCH  16  17
ATOM     17  C   UNL     1       2.178   0.019   1.231  0.00  0.00    +0.034 C 
BRANCH  17  18
ATOM     18  C   UNL     1       2.906  -0.480   2.452  0.00  0.00    -0.047 A 
ATOM     19  C   UNL     1       2.883   0.257   3.620  0.00  0.00    +0.003 A 
ATOM     20  C   UNL     1       3.551  -0.201   4.740  0.00  0.00    +0.000 A 
ATOM     21  C   UNL     1       4.243  -1.397   4.691  0.00  0.00    +0.000 A 
ATOM     22  C   UNL     1       4.266  -2.135   3.523  0.00  0.00    +0.000 A 
ATOM     23  C   UNL     1       3.594  -1.679   2.404  0.00  0.00    +0.003 A 
ENDBRANCH  17  18
ENDBRANCH  16  17
ENDBRANCH   2  16
TORSDOF 6
