REMARK  Name = ZINC60214668
REMARK  8 active torsions:
REMARK  status: ('A' for Active; 'I' for Inactive)
REMARK    1  A    between atoms: C_1  and  C_2
REMARK    2  A    between atoms: C_2  and  C_3
REMARK    3  A    between atoms: C_2  and  C_4
REMARK    4  A    between atoms: C_2  and  C_17
REMARK    5  A    between atoms: C_4  and  N_5
REMARK    6  A    between atoms: C_6  and  C_8
REMARK    7  A    between atoms: C_8  and  O_9
REMARK    8  A    between atoms: O_9  and  C_10
REMARK                            x       y       z     vdW  Elec       q    Type
REMARK                         _______ _______ _______ _____ _____    ______ ____
ROOT
ATOM      1  C   UNL     1      -1.433  -0.534   0.013  0.00  0.00    +0.115 C 
ENDROOT
BRANCH   1   2
ATOM      2  N   UNL     1      -2.119  -0.061   1.218  0.00  0.00    -0.312 N 
ATOM      3  C   UNL     1      -3.403  -0.406   1.442  0.00  0.00    +0.251 C 
ATOM      4  O   UNL     1      -3.990  -1.106   0.645  0.00  0.00    -0.272 OA
ATOM      5  H   UNL     1      -1.649   0.499   1.855  0.00  0.00    +0.149 HD
BRANCH   3   6
ATOM      6  C   UNL     1      -4.108   0.081   2.682  0.00  0.00    +0.324 C 
BRANCH   6   7
ATOM      7  O   UNL     1      -5.449  -0.414   2.692  0.00  0.00    -0.483 OA
BRANCH   7   8
ATOM      8  C   UNL     1      -6.227  -0.065   3.750  0.00  0.00    +0.121 A 
ATOM      9  C   UNL     1      -5.713   0.741   4.755  0.00  0.00    +0.047 A 
ATOM     10  C   UNL     1      -6.506   1.095   5.829  0.00  0.00    +0.019 A 
ATOM     11  C   UNL     1      -7.812   0.645   5.904  0.00  0.00    +0.018 A 
ATOM     12  C   UNL     1      -8.326  -0.160   4.904  0.00  0.00    +0.019 A 
ATOM     13  C   UNL     1      -7.539  -0.510   3.824  0.00  0.00    +0.047 A 
ATOM     14 BR   UNL     1      -8.895   1.130   7.376  0.00  0.00    -0.050 Br
ENDBRANCH   7   8
ENDBRANCH   6   7
ENDBRANCH   3   6
ENDBRANCH   1   2
BRANCH   1  16
ATOM     15  C   UNL     1      -0.019   1.526   0.010  0.00  0.00    +0.017 C 
ATOM     16  C   UNL     1       0.002  -0.004   0.002  0.00  0.00    +0.006 C 
ATOM     17  C   UNL     1       0.742  -0.511   1.242  0.00  0.00    +0.017 C 
BRANCH  16  18
ATOM     18  C   UNL     1       0.707  -0.490  -1.238  0.00  0.00    -0.037 A 
ATOM     19  C   UNL     1       0.035  -1.284  -2.148  0.00  0.00    +0.008 A 
ATOM     20  C   UNL     1       0.677  -1.732  -3.287  0.00  0.00    +0.050 A 
ATOM     21  C   UNL     1       1.998  -1.386  -3.519  0.00  0.00    +0.166 A 
ATOM     22  C   UNL     1       2.676  -0.586  -2.602  0.00  0.00    +0.167 A 
ATOM     23  C   UNL     1       2.024  -0.136  -1.466  0.00  0.00    +0.053 A 
ATOM     24  O   UNL     1       3.950  -0.389  -3.053  0.00  0.00    -0.453 OA
ATOM     25  C   UNL     1       4.168  -1.409  -4.045  0.00  0.00    +0.466 C 
ATOM     26  O   UNL     1       2.847  -1.690  -4.544  0.00  0.00    -0.453 OA
ENDBRANCH  16  18
ENDBRANCH   1  16
TORSDOF 6
