REMARK  Name = ZINC08589910
REMARK  5 active torsions:
REMARK  status: ('A' for Active; 'I' for Inactive)
REMARK    1  A    between atoms: C_1  and  C_2
REMARK    2  A    between atoms: C_2  and  C_3
REMARK    3  A    between atoms: C_3  and  S_4
REMARK    4  A    between atoms: S_4  and  C_5
REMARK    5  A    between atoms: C_18  and  C_21
REMARK                            x       y       z     vdW  Elec       q    Type
REMARK                         _______ _______ _______ _____ _____    ______ ____
ROOT
ATOM      1  C   UNL     1       1.021   6.223  -0.043  0.00  0.00    +0.212 A 
ATOM      2  N   UNL     1       0.258   5.578   0.835  0.00  0.00    -0.184 NA
ATOM      3  C   UNL     1       0.296   4.257   0.877  0.00  0.00    +0.248 A 
ATOM      4  C   UNL     1       1.145   3.573  -0.021  0.00  0.00    +0.156 A 
ATOM      5  N   UNL     1       1.881   4.275  -0.869  0.00  0.00    -0.141 NA
ATOM      6  N   UNL     1       1.816   5.562  -0.874  0.00  0.00    -0.122 NA
ATOM      7  C   UNL     1       1.194   2.097   0.002  0.00  0.00    +0.029 A 
ATOM      8  C   UNL     1       2.401   1.409   0.002  0.00  0.00    +0.027 A 
ATOM      9  C   UNL     1       2.404   0.027   0.001  0.00  0.00    +0.019 A 
ATOM     10  C   UNL     1       1.210  -0.677  -0.003  0.00  0.00    +0.017 A 
ATOM     11  C   UNL     1       0.002  -0.004   0.002  0.00  0.00    +0.025 A 
ATOM     12  C   UNL     1      -0.017   1.378   0.010  0.00  0.00    +0.040 A 
ATOM     13  N   UNL     1      -1.220   2.091   0.042  0.00  0.00    -0.305 N 
ATOM     14  C   UNL     1      -1.566   2.834   1.250  0.00  0.00    +0.300 C 
ATOM     15  O   UNL     1      -0.453   3.557   1.762  0.00  0.00    -0.448 OA
ATOM     16 BR   UNL     1       4.046  -0.910   0.002  0.00  0.00    -0.050 Br
ATOM     17  H   UNL     1      -1.814   2.091  -0.725  0.00  0.00    +0.150 HD
ENDROOT
BRANCH  14  18
ATOM     18  C   UNL     1      -2.046   1.865   2.300  0.00  0.00    +0.048 A 
ATOM     19  C   UNL     1      -2.967   2.053   3.277  0.00  0.00    +0.016 A 
ATOM     20  C   UNL     1      -3.256   1.008   4.135  0.00  0.00    +0.008 A 
ATOM     21  C   UNL     1      -2.602  -0.170   3.981  0.00  0.00    +0.045 A 
ATOM     22  S   UNL     1      -1.546   0.175   2.583  0.00  0.00    -0.096 S 
ENDBRANCH  14  18
BRANCH   1  23
ATOM     23  S   UNL     1       0.974   7.983  -0.104  0.00  0.00    -0.084 S 
BRANCH  23  24
ATOM     24  C   UNL     1       2.167   8.284  -1.432  0.00  0.00    +0.077 C 
BRANCH  24  26
ATOM     25  C   UNL     1       3.304  10.043  -2.793  0.00  0.00    +0.004 C 
ATOM     26  C   UNL     1       2.296   9.789  -1.671  0.00  0.00    +0.008 C 
ENDBRANCH  24  26
ENDBRANCH  23  24
ENDBRANCH   1  23
TORSDOF 4
