REMARK  Name = ZINC39024409
REMARK  8 active torsions:
REMARK  status: ('A' for Active; 'I' for Inactive)
REMARK    1  A    between atoms: C_1  and  C_2
REMARK    2  A    between atoms: C_4  and  C_10
REMARK    3  A    between atoms: C_5  and  O_9
REMARK    4  A    between atoms: C_7  and  C_8
REMARK    5  A    between atoms: C_13  and  C_15
REMARK    6  A    between atoms: N_17  and  C_18
REMARK    7  A    between atoms: C_20  and  C_29
REMARK    8  A    between atoms: N_31  and  C_32
REMARK                            x       y       z     vdW  Elec       q    Type
REMARK                         _______ _______ _______ _____ _____    ______ ____
ROOT
ATOM      1  C   UNL     1       0.025  -3.578  -6.193  0.00  0.00    +0.261 C 
ATOM      2  O   UNL     1       0.014  -2.562  -6.863  0.00  0.00    -0.269 OA
ATOM      3  N   UNL     1       0.034  -4.783  -6.796  0.00  0.00    -0.297 N 
ATOM      4  H   UNL     1       0.043  -5.593  -6.261  0.00  0.00    +0.150 HD
ENDROOT
BRANCH   3   5
ATOM      5  C   UNL     1       0.030  -4.871  -8.258  0.00  0.00    +0.152 C 
ATOM      6  C   UNL     1       0.972  -5.991  -8.762  0.00  0.00    +0.132 C 
ATOM      7  C   UNL     1       0.237  -7.294  -8.947  0.00  0.00    -0.046 C 
ATOM      8  C   UNL     1      -1.086  -7.246  -9.044  0.00  0.00    -0.013 C 
ATOM      9  S   UNL     1      -1.565  -5.538  -8.892  0.00  0.00    -0.106 S 
ATOM     10  C   UNL     1      -2.022  -8.406  -9.244  0.00  0.00    +0.042 C 
ATOM     11  C   UNL     1      -1.206  -9.627  -9.685  0.00  0.00    +0.005 C 
ATOM     12  C   UNL     1       0.003  -9.766  -8.755  0.00  0.00    +0.005 C 
ATOM     13  C   UNL     1       0.984  -8.625  -9.022  0.00  0.00    +0.032 C 
BRANCH   6  14
ATOM     14  C   UNL     1       1.570  -5.574 -10.082  0.00  0.00    +0.223 C 
ATOM     15  O   UNL     1       1.358  -6.233 -11.078  0.00  0.00    -0.275 OA
ATOM     16  N   UNL     1       2.339  -4.470 -10.155  0.00  0.00    -0.318 N 
ATOM     17  C   UNL     1       2.920  -4.065 -11.437  0.00  0.00    +0.128 C 
ATOM     18  H   UNL     1       2.508  -3.943  -9.358  0.00  0.00    +0.148 HD
ENDBRANCH   6  14
ENDBRANCH   3   5
BRANCH   1  22
ATOM     19  C   UNL     1       0.029  -2.813  -2.474  0.00  0.00    +0.080 C 
ATOM     20  N   UNL     1       0.040  -4.116  -2.651  0.00  0.00    -0.153 NA
ATOM     21  N   UNL     1       0.040  -4.478  -3.873  0.00  0.00    -0.148 NA
ATOM     22  C   UNL     1       0.028  -3.490  -4.730  0.00  0.00    +0.131 C 
ATOM     23  C   UNL     1       0.013  -2.231  -3.878  0.00  0.00    +0.120 C 
BRANCH  19  27
ATOM     24  C   UNL     1      -0.018   1.503   0.010  0.00  0.00    +0.044 C 
ATOM     25  C   UNL     1       0.002  -0.004   0.002  0.00  0.00    -0.047 A 
ATOM     26  C   UNL     1       0.006  -0.682  -1.196  0.00  0.00    +0.017 A 
ATOM     27  C   UNL     1       0.025  -2.084  -1.205  0.00  0.00    +0.040 A 
ATOM     28  C   UNL     1       0.041  -2.784   0.015  0.00  0.00    +0.126 A 
ATOM     29  C   UNL     1       0.037  -2.081   1.210  0.00  0.00    +0.049 A 
ATOM     30  C   UNL     1       0.023  -0.700   1.201  0.00  0.00    -0.044 A 
ATOM     31  C   UNL     1       0.025   0.056   2.505  0.00  0.00    +0.044 C 
BRANCH  28  32
ATOM     32  O   UNL     1       0.059  -4.140   0.023  0.00  0.00    -0.506 OA
ATOM     33  H   UNL     1       0.948  -4.522   0.020  0.00  0.00    +0.292 HD
ENDBRANCH  28  32
ENDBRANCH  19  27
ENDBRANCH   1  22
TORSDOF 5
