REMARK  Name = ZINC20755134
REMARK  6 active torsions:
REMARK  status: ('A' for Active; 'I' for Inactive)
REMARK    1  A    between atoms: C_1  and  O_2
REMARK    2  A    between atoms: O_2  and  C_3
REMARK    3  A    between atoms: C_6  and  C_9
REMARK    4  A    between atoms: C_11  and  C_23
REMARK    5  A    between atoms: C_28  and  O_29
REMARK    6  A    between atoms: O_29  and  C_30
REMARK                            x       y       z     vdW  Elec       q    Type
REMARK                         _______ _______ _______ _____ _____    ______ ____
ROOT
ATOM      1  C   UNL     1       2.490  -2.488  -4.354  0.00  0.00    +0.054 C 
ATOM      2  C   UNL     1       2.521  -3.989  -4.407  0.00  0.00    +0.086 C 
ATOM      3  C   UNL     1       2.424  -4.494  -5.850  0.00  0.00    +0.130 C 
ATOM      4  N   UNL     1       3.296  -3.661  -6.685  0.00  0.00    -0.302 N 
ATOM      5  C   UNL     1       3.978  -3.960  -7.823  0.00  0.00    +0.069 A 
ATOM      6  C   UNL     1       4.104  -5.121  -8.577  0.00  0.00    +0.028 A 
ATOM      7  C   UNL     1       4.903  -5.055  -9.707  0.00  0.00    +0.002 A 
ATOM      8  C   UNL     1       5.553  -3.890 -10.080  0.00  0.00    +0.002 A 
ATOM      9  C   UNL     1       5.447  -2.730  -9.355  0.00  0.00    +0.028 A 
ATOM     10  C   UNL     1       4.646  -2.766  -8.206  0.00  0.00    +0.066 A 
ATOM     11  N   UNL     1       4.342  -1.823  -7.297  0.00  0.00    -0.324 N 
ATOM     12  C   UNL     1       3.549  -2.334  -6.387  0.00  0.00    +0.210 A 
ATOM     13  N   UNL     1       3.014  -1.739  -5.287  0.00  0.00    -0.218 NA
ATOM     14  H   UNL     1       4.660  -0.907  -7.312  0.00  0.00    +0.169 HD
ENDROOT
BRANCH   3  15
ATOM     15  C   UNL     1       2.875  -5.931  -5.917  0.00  0.00    +0.019 A 
ATOM     16  C   UNL     1       4.157  -6.272  -5.529  0.00  0.00    +0.024 A 
ATOM     17  C   UNL     1       4.571  -7.590  -5.590  0.00  0.00    +0.018 A 
ATOM     18  C   UNL     1       3.704  -8.569  -6.041  0.00  0.00    +0.019 A 
ATOM     19  C   UNL     1       2.422  -8.233  -6.430  0.00  0.00    +0.047 A 
ATOM     20  C   UNL     1       2.003  -6.912  -6.364  0.00  0.00    +0.132 A 
ATOM     21 BR   UNL     1       6.325  -8.054  -5.058  0.00  0.00    -0.050 Br
BRANCH  20  22
ATOM     22  O   UNL     1       0.740  -6.579  -6.742  0.00  0.00    -0.434 OA
BRANCH  22  23
ATOM     23  C   UNL     1      -0.104  -7.641  -7.191  0.00  0.00    +0.541 C 
ATOM     24  F   UNL     1       0.474  -8.255  -8.308  0.00  0.00    -0.166 F 
ATOM     25  F   UNL     1      -0.254  -8.582  -6.167  0.00  0.00    -0.166 F 
ENDBRANCH  22  23
ENDBRANCH  20  22
ENDBRANCH   3  15
BRANCH   1  29
ATOM     26  C   UNL     1       0.605  -0.606  -1.054  0.00  0.00    +0.120 A 
ATOM     27  C   UNL     1       1.172   0.167  -2.061  0.00  0.00    +0.046 A 
ATOM     28  C   UNL     1       1.785  -0.439  -3.134  0.00  0.00    +0.013 A 
ATOM     29  C   UNL     1       1.837  -1.836  -3.211  0.00  0.00    -0.003 A 
ATOM     30  C   UNL     1       1.264  -2.610  -2.194  0.00  0.00    +0.013 A 
ATOM     31  C   UNL     1       0.658  -1.994  -1.123  0.00  0.00    +0.046 A 
BRANCH  26  33
ATOM     32  C   UNL     1      -0.017   1.425   0.010  0.00  0.00    +0.277 C 
ATOM     33  O   UNL     1       0.002  -0.004   0.002  0.00  0.00    -0.495 OA
ENDBRANCH  26  33
ENDBRANCH   1  29
TORSDOF 5
