REMARK  Name = ZINC08767094
REMARK  10 active torsions:
REMARK  status: ('A' for Active; 'I' for Inactive)
REMARK    1  A    between atoms: C_1  and  C_2
REMARK    2  A    between atoms: C_3  and  C_32
REMARK    3  A    between atoms: C_4  and  C_25
REMARK    4  A    between atoms: C_10  and  C_11
REMARK    5  A    between atoms: C_14  and  N_16
REMARK    6  A    between atoms: C_21  and  N_66
REMARK    7  A    between atoms: C_32  and  O_34
REMARK    8  A    between atoms: O_34  and  C_35
REMARK    9  A    between atoms: C_35  and  C_36
REMARK   10  A    between atoms: C_35  and  C_37
REMARK                            x       y       z     vdW  Elec       q    Type
REMARK                         _______ _______ _______ _____ _____    ______ ____
ROOT
ATOM      1  C   UNL     1       4.137   4.077  -0.735  0.00  0.00    +0.066 C 
ATOM      2  C   UNL     1       2.821   4.811  -0.736  0.00  0.00    +0.053 C 
ATOM      3  C   UNL     1       1.714   4.216  -1.277  0.00  0.00    +0.085 C 
ATOM      4  C   UNL     1       0.412   4.983  -1.252  0.00  0.00    +0.162 C 
ATOM      5  N   UNL     1       0.436   6.340  -0.641  0.00  0.00    -0.275 N 
ATOM      6  C   UNL     1      -0.605   7.175  -0.521  0.00  0.00    +0.268 A 
ATOM      7  O   UNL     1      -1.710   6.862  -0.929  0.00  0.00    -0.266 OA
ATOM      8  C   UNL     1      -0.385   8.433   0.092  0.00  0.00    +0.084 A 
ATOM      9  C   UNL     1      -1.277   9.457   0.332  0.00  0.00    +0.067 C 
ATOM     10  S   UNL     1       1.356   8.336   0.473  0.00  0.00    -0.046 S 
ATOM     11  C   UNL     1       1.656   6.753  -0.160  0.00  0.00    +0.178 A 
ATOM     12  N   UNL     1       2.748   6.029  -0.217  0.00  0.00    -0.228 NA
ENDROOT
BRANCH   4  13
ATOM     13  C   UNL     1      -0.600   4.155  -0.502  0.00  0.00    -0.020 A 
ATOM     14  C   UNL     1      -0.593   4.140   0.881  0.00  0.00    +0.007 A 
ATOM     15  C   UNL     1      -1.524   3.385   1.569  0.00  0.00    +0.020 A 
ATOM     16  C   UNL     1      -2.456   2.635   0.874  0.00  0.00    +0.041 A 
ATOM     17  C   UNL     1      -2.459   2.646  -0.509  0.00  0.00    +0.020 A 
ATOM     18  C   UNL     1      -1.531   3.405  -1.196  0.00  0.00    +0.007 A 
ATOM     19 CL   UNL     1      -3.620   1.681   1.738  0.00  0.00    -0.084 Cl
ENDBRANCH   4  13
BRANCH   9  20
ATOM     20  C   UNL     1      -2.658   9.231   0.200  0.00  0.00    +0.131 A 
ATOM     21  C   UNL     1      -3.654  10.191   0.289  0.00  0.00    +0.051 A 
ATOM     22  C   UNL     1      -4.868   9.528   0.097  0.00  0.00    +0.066 A 
ATOM     23  C   UNL     1      -4.581   8.208  -0.100  0.00  0.00    +0.189 A 
ATOM     24  O   UNL     1      -3.251   8.040  -0.042  0.00  0.00    -0.442 OA
BRANCH  23  25
ATOM     25  N   UNL     1      -5.507   7.210  -0.327  0.00  0.00    -0.305 N 
ATOM     26  C   UNL     1      -6.502   7.158   0.754  0.00  0.00    +0.089 C 
ATOM     27  C   UNL     1      -7.553   6.096   0.425  0.00  0.00    -0.060 C 
ATOM     28  C   UNL     1      -5.899   4.845  -0.824  0.00  0.00    -0.060 C 
ATOM     29  C   UNL     1      -4.848   5.908  -0.495  0.00  0.00    +0.089 C 
ATOM     30  C   UNL     1      -7.880   3.732   0.015  0.00  0.00    -0.096 C 
ATOM     31  N   UNL     1      -6.880   4.788   0.281  0.00  0.00    +0.380 N 
ATOM     32  H   UNL     1      -6.386   4.568   1.154  0.00  0.00    -0.082 HD
ENDBRANCH  23  25
ENDBRANCH   9  20
BRANCH   3  33
ATOM     33  C   UNL     1       1.784   2.929  -1.833  0.00  0.00    +0.339 C 
ATOM     34  O   UNL     1       2.853   2.347  -1.888  0.00  0.00    -0.245 OA
BRANCH  33  35
ATOM     35  O   UNL     1       0.667   2.337  -2.308  0.00  0.00    -0.459 OA
BRANCH  35  36
ATOM     36  C   UNL     1       0.812   1.027  -2.860  0.00  0.00    +0.171 C 
ATOM     37  C   UNL     1      -0.484   0.240  -2.654  0.00  0.00    +0.052 C 
ATOM     38  C   UNL     1       1.110   1.135  -4.357  0.00  0.00    +0.052 C 
ENDBRANCH  35  36
ENDBRANCH  33  35
ENDBRANCH   3  33
TORSDOF 6
