REMARK  Name = ZINC22472863
REMARK  11 active torsions:
REMARK  status: ('A' for Active; 'I' for Inactive)
REMARK    1  A    between atoms: C_1  and  C_2
REMARK    2  A    between atoms: C_5  and  O_9
REMARK    3  A    between atoms: C_7  and  C_8
REMARK    4  A    between atoms: O_9  and  C_10
REMARK    5  A    between atoms: C_10  and  C_11
REMARK    6  A    between atoms: N_13  and  C_14
REMARK    7  A    between atoms: N_13  and  C_15
REMARK    8  A    between atoms: C_15  and  C_16
REMARK    9  A    between atoms: C_16  and  C_17
REMARK   10  A    between atoms: C_17  and  N_18
REMARK   11  A    between atoms: C_21  and  O_22
REMARK                            x       y       z     vdW  Elec       q    Type
REMARK                         _______ _______ _______ _____ _____    ______ ____
ROOT
ATOM      1  C   UNL     1      -7.650   4.573  -1.345  0.00  0.00    +0.040 C 
ENDROOT
BRANCH   1   2
ATOM      2  C   UNL     1      -7.228   4.261   0.092  0.00  0.00    +0.109 C 
BRANCH   2   5
ATOM      3  C   UNL     1      -4.816   3.913   0.068  0.00  0.00    +0.253 C 
ATOM      4  O   UNL     1      -4.672   5.117   0.072  0.00  0.00    -0.272 OA
ATOM      5  N   UNL     1      -6.056   3.382   0.077  0.00  0.00    -0.302 N 
ATOM      6  C   UNL     1      -6.230   1.928   0.072  0.00  0.00    +0.132 C 
BRANCH   3   7
ATOM      7  C   UNL     1      -3.610   3.009   0.052  0.00  0.00    +0.324 C 
BRANCH   7   8
ATOM      8  O   UNL     1      -2.421   3.802   0.045  0.00  0.00    -0.483 OA
BRANCH   8  13
ATOM      9  C   UNL     1       2.490   1.045  -0.016  0.00  0.00    +0.044 C 
ATOM     10  C   UNL     1       1.176   1.783   0.000  0.00  0.00    -0.047 A 
ATOM     11  C   UNL     1      -0.013   1.076   0.008  0.00  0.00    +0.007 A 
ATOM     12  C   UNL     1      -1.218   1.750   0.017  0.00  0.00    +0.046 A 
ATOM     13  C   UNL     1      -1.236   3.137   0.030  0.00  0.00    +0.121 A 
ATOM     14  C   UNL     1      -0.043   3.844   0.022  0.00  0.00    +0.049 A 
ATOM     15  C   UNL     1       1.161   3.165   0.007  0.00  0.00    -0.044 A 
ATOM     16  C   UNL     1       2.457   3.933  -0.002  0.00  0.00    +0.044 C 
ENDBRANCH   8  13
ENDBRANCH   7   8
ENDBRANCH   3   7
ENDBRANCH   2   5
ENDBRANCH   1   2
BRANCH   1  17
ATOM     17  C   UNL     1      -8.874   5.490  -1.329  0.00  0.00    +0.114 C 
BRANCH  17  18
ATOM     18  N   UNL     1      -9.278   5.790  -2.705  0.00  0.00    -0.384 N 
ATOM     19  C   UNL     1     -10.364   6.602  -2.942  0.00  0.00    +0.053 A 
ATOM     20  C   UNL     1     -11.083   7.143  -1.907  0.00  0.00    +0.113 A 
ATOM     21  C   UNL     1     -12.182   7.966  -2.180  0.00  0.00    +0.286 A 
ATOM     22  O   UNL     1     -12.563   8.247  -3.437  0.00  0.00    -0.425 OA
ATOM     23  C   UNL     1     -11.904   7.751  -4.506  0.00  0.00    +0.141 A 
ATOM     24  C   UNL     1     -10.787   6.923  -4.316  0.00  0.00    +0.041 A 
ATOM     25  C   UNL     1     -10.099   6.413  -5.418  0.00  0.00    +0.013 A 
ATOM     26  C   UNL     1     -10.519   6.733  -6.691  0.00  0.00    +0.001 A 
ATOM     27  C   UNL     1     -11.620   7.556  -6.878  0.00  0.00    +0.004 A 
ATOM     28  C   UNL     1     -12.316   8.056  -5.797  0.00  0.00    +0.047 A 
ATOM     29  H   UNL     1      -8.714   5.365  -3.548  0.00  0.00    +0.160 HD
BRANCH  21  30
ATOM     30  O   UNL     1     -12.812   8.440  -1.251  0.00  0.00    -0.480 OA
ATOM     31  H   UNL     1     -13.679   9.089  -1.448  0.00  0.00    +0.295 HD
ENDBRANCH  21  30
ENDBRANCH  17  18
ENDBRANCH   1  17
TORSDOF 8
