REMARK  Name = ZINC48707481
REMARK  9 active torsions:
REMARK  status: ('A' for Active; 'I' for Inactive)
REMARK    1  A    between atoms: C_1  and  C_2
REMARK    2  A    between atoms: C_2  and  C_3
REMARK    3  A    between atoms: C_2  and  C_4
REMARK    4  A    between atoms: C_4  and  C_5
REMARK    5  A    between atoms: C_7  and  C_10
REMARK    6  A    between atoms: C_10  and  S_11
REMARK    7  A    between atoms: S_11  and  C_14
REMARK    8  A    between atoms: C_14  and  C_15
REMARK    9  A    between atoms: C_17  and  C_20
REMARK                            x       y       z     vdW  Elec       q    Type
REMARK                         _______ _______ _______ _____ _____    ______ ____
ROOT
ATOM      1  S   UNL     1      -1.745  -1.676   6.394  0.00  0.00    -0.017 S 
ATOM      2  O   UNL     1      -1.137  -2.833   5.836  0.00  0.00    -0.174 OA
ATOM      3  O   UNL     1      -0.959  -0.794   7.183  0.00  0.00    -0.174 OA
ENDROOT
BRANCH   1   4
ATOM      4  C   UNL     1      -2.505  -0.723   5.050  0.00  0.00    +0.245 C 
BRANCH   4   7
ATOM      5  C   UNL     1      -0.030  -0.130   2.478  0.00  0.00    +0.228 A 
ATOM      6  N   UNL     1      -0.952  -0.848   3.056  0.00  0.00    -0.194 NA
ATOM      7  C   UNL     1      -1.429  -0.208   4.129  0.00  0.00    +0.193 A 
ATOM      8  N   UNL     1      -0.811   0.932   4.249  0.00  0.00    -0.060 NA
ATOM      9  O   UNL     1       0.117   1.003   3.177  0.00  0.00    -0.338 OA
BRANCH   5  10
ATOM     10  C   UNL     1       0.742  -0.511   1.242  0.00  0.00    +0.101 C 
BRANCH  10  12
ATOM     11  C   UNL     1      -0.019   1.526   0.010  0.00  0.00    +0.008 C 
ATOM     12  C   UNL     1       0.002  -0.004   0.002  0.00  0.00    -0.008 C 
ATOM     13  C   UNL     1       0.718  -0.497  -1.257  0.00  0.00    +0.008 C 
ENDBRANCH  10  12
ENDBRANCH   5  10
ENDBRANCH   4   7
ENDBRANCH   1   4
BRANCH   1  14
ATOM     14  C   UNL     1      -3.179  -2.199   7.375  0.00  0.00    +0.245 C 
BRANCH  14  15
ATOM     15  C   UNL     1      -2.712  -3.016   8.551  0.00  0.00    +0.193 A 
ATOM     16  N   UNL     1      -2.546  -4.341   8.556  0.00  0.00    -0.190 NA
ATOM     17  C   UNL     1      -2.130  -4.737   9.738  0.00  0.00    +0.259 A 
ATOM     18  O   UNL     1      -2.020  -3.652  10.525  0.00  0.00    -0.333 OA
ATOM     19  N   UNL     1      -2.401  -2.543   9.724  0.00  0.00    -0.059 NA
BRANCH  17  20
ATOM     20  C   UNL     1      -1.835  -6.130  10.133  0.00  0.00    +0.040 A 
ATOM     21  C   UNL     1      -1.987  -7.167   9.211  0.00  0.00    +0.015 A 
ATOM     22  C   UNL     1      -1.710  -8.465   9.586  0.00  0.00    +0.021 A 
ATOM     23  C   UNL     1      -1.282  -8.741  10.874  0.00  0.00    +0.041 A 
ATOM     24  C   UNL     1      -1.129  -7.716  11.793  0.00  0.00    +0.021 A 
ATOM     25  C   UNL     1      -1.397  -6.413  11.428  0.00  0.00    +0.015 A 
ATOM     26 CL   UNL     1      -0.937 -10.377  11.338  0.00  0.00    -0.084 Cl
ENDBRANCH  17  20
ENDBRANCH  14  15
ENDBRANCH   1  14
TORSDOF 7
