REMARK  Name = ZINC16449984
REMARK  10 active torsions:
REMARK  status: ('A' for Active; 'I' for Inactive)
REMARK    1  A    between atoms: C_5  and  C_7
REMARK    2  A    between atoms: C_7  and  O_8
REMARK    3  A    between atoms: O_8  and  C_9
REMARK    4  A    between atoms: C_14  and  C_15
REMARK    5  A    between atoms: C_15  and  N_50
REMARK    6  A    between atoms: C_16  and  C_17
REMARK    7  A    between atoms: C_16  and  N_50
REMARK    8  A    between atoms: C_17  and  N_18
REMARK    9  A    between atoms: N_18  and  C_19
REMARK   10  A    between atoms: C_22  and  N_26
REMARK                            x       y       z     vdW  Elec       q    Type
REMARK                         _______ _______ _______ _____ _____    ______ ____
ROOT
ATOM      1  C   UNL     1      -6.086   2.461   0.044  0.00  0.00    -0.043 C 
ENDROOT
BRANCH   1   7
ATOM      2  C   UNL     1      -7.828   1.099   1.227  0.00  0.00    +0.122 A 
ATOM      3  C   UNL     1      -9.005   0.364   1.227  0.00  0.00    +0.047 A 
ATOM      4  C   UNL     1      -9.703   0.180   0.049  0.00  0.00    +0.023 A 
ATOM      5  C   UNL     1      -9.232   0.732  -1.129  0.00  0.00    +0.041 A 
ATOM      6  C   UNL     1      -8.062   1.471  -1.130  0.00  0.00    +0.025 A 
ATOM      7  C   UNL     1      -7.361   1.657   0.046  0.00  0.00    -0.021 A 
ATOM      8 CL   UNL     1     -10.111   0.499  -2.608  0.00  0.00    -0.084 Cl
BRANCH   2   9
ATOM      9  O   UNL     1      -7.137   1.278   2.384  0.00  0.00    -0.487 OA
BRANCH   9  10
ATOM     10  C   UNL     1      -7.677   0.675   3.561  0.00  0.00    +0.267 C 
BRANCH  10  15
ATOM     11  C   UNL     1      -4.821   2.014   5.635  0.00  0.00    +0.001 A 
ATOM     12  C   UNL     1      -5.140   1.533   6.891  0.00  0.00    +0.003 A 
ATOM     13  C   UNL     1      -6.280   0.773   7.071  0.00  0.00    +0.039 A 
ATOM     14  C   UNL     1      -7.103   0.495   5.993  0.00  0.00    +0.130 A 
ATOM     15  C   UNL     1      -6.782   0.977   4.736  0.00  0.00    +0.025 A 
ATOM     16  C   UNL     1      -5.638   1.732   4.557  0.00  0.00    +0.010 A 
ATOM     17  F   UNL     1      -8.218  -0.248   6.168  0.00  0.00    -0.205 F 
ENDBRANCH  10  15
ENDBRANCH   9  10
ENDBRANCH   2   9
ENDBRANCH   1   7
BRANCH   1  18
ATOM     18  N   UNL     1      -4.934   1.540   0.034  0.00  0.00    +0.383 N 
ATOM     19  H   UNL     1      -4.977   0.953  -0.807  0.00  0.00    -0.085 HD
ATOM     20  H   UNL     1      -4.969   0.944   0.869  0.00  0.00    -0.085 HD
BRANCH  18  21
ATOM     21  C   UNL     1      -3.670   2.300   0.032  0.00  0.00    -0.063 C 
BRANCH  21  22
ATOM     22  C   UNL     1      -2.495   1.321   0.021  0.00  0.00    +0.082 C 
BRANCH  22  23
ATOM     23  N   UNL     1      -1.236   2.068   0.019  0.00  0.00    -0.345 N 
ATOM     24  H   UNL     1      -1.247   3.038   0.025  0.00  0.00    +0.146 HD
BRANCH  23  25
ATOM     25  C   UNL     1      -0.017   1.385   0.010  0.00  0.00    +0.046 A 
ATOM     26  C   UNL     1       0.002  -0.004   0.002  0.00  0.00    +0.026 A 
ATOM     27  C   UNL     1       1.208  -0.677  -0.013  0.00  0.00    +0.034 A 
ATOM     28  C   UNL     1       2.397   0.030  -0.021  0.00  0.00    +0.128 A 
ATOM     29  C   UNL     1       2.382   1.413  -0.014  0.00  0.00    +0.054 A 
ATOM     30  C   UNL     1       1.179   2.093   0.002  0.00  0.00    +0.064 A 
ATOM     31 CL   UNL     1       1.162   3.829   0.011  0.00  0.00    -0.082 Cl
BRANCH  28  32
ATOM     32  N   UNL     1       3.687  -0.695  -0.038  0.00  0.00    +0.056 N 
ATOM     33  O   UNL     1       3.701  -1.913  -0.045  0.00  0.00    -0.126 OA
ATOM     34  O   UNL     1       4.734  -0.074  -0.045  0.00  0.00    -0.126 OA
ENDBRANCH  28  32
ENDBRANCH  23  25
ENDBRANCH  22  23
ENDBRANCH  21  22
ENDBRANCH  18  21
ENDBRANCH   1  18
TORSDOF 10
