REMARK  Name = ZINC16489847
REMARK  11 active torsions:
REMARK  status: ('A' for Active; 'I' for Inactive)
REMARK    1  A    between atoms: C_1  and  C_2
REMARK    2  A    between atoms: C_2  and  C_3
REMARK    3  A    between atoms: C_3  and  C_5
REMARK    4  A    between atoms: C_3  and  N_6
REMARK    5  A    between atoms: N_6  and  C_7
REMARK    6  A    between atoms: N_6  and  S_26
REMARK    7  A    between atoms: C_7  and  C_8
REMARK    8  A    between atoms: C_18  and  C_20
REMARK    9  A    between atoms: S_26  and  C_29
REMARK   10  A    between atoms: C_32  and  N_35
REMARK   11  A    between atoms: C_36  and  C_38
REMARK                            x       y       z     vdW  Elec       q    Type
REMARK                         _______ _______ _______ _____ _____    ______ ____
ROOT
ATOM      1  N   UNL     1       0.585   0.255   0.449  0.00  0.00    -0.165 NA
ENDROOT
BRANCH   1   2
ATOM      2  S   UNL     1       0.627   1.910   0.399  0.00  0.00    +0.062 S 
ATOM      3  O   UNL     1      -0.109   2.301  -0.751  0.00  0.00    -0.153 OA
ATOM      4  O   UNL     1       0.297   2.364   1.705  0.00  0.00    -0.153 OA
BRANCH   2   5
ATOM      5  C   UNL     1       2.300   2.380   0.110  0.00  0.00    +0.106 A 
ATOM      6  C   UNL     1       3.150   2.600   1.179  0.00  0.00    +0.030 A 
ATOM      7  C   UNL     1       4.463   2.964   0.956  0.00  0.00    +0.025 A 
ATOM      8  C   UNL     1       4.928   3.119  -0.344  0.00  0.00    +0.033 A 
ATOM      9  C   UNL     1       4.071   2.902  -1.415  0.00  0.00    +0.025 A 
ATOM     10  C   UNL     1       2.760   2.534  -1.185  0.00  0.00    +0.030 A 
BRANCH   8  11
ATOM     11  N   UNL     1       6.257   3.491  -0.573  0.00  0.00    -0.286 N 
ATOM     12  C   UNL     1       6.564   4.284  -1.619  0.00  0.00    +0.214 C 
ATOM     13  O   UNL     1       5.679   4.751  -2.306  0.00  0.00    -0.276 OA
ATOM     14  C   UNL     1       8.005   4.589  -1.936  0.00  0.00    +0.109 C 
ATOM     15  H   UNL     1       6.958   3.180   0.021  0.00  0.00    +0.155 HD
ENDBRANCH   8  11
ENDBRANCH   2   5
ENDBRANCH   1   2
BRANCH   1  16
ATOM     16  C   UNL     1       0.773  -0.444   1.722  0.00  0.00    +0.077 C 
ATOM     17  C   UNL     1       1.996  -1.359   1.625  0.00  0.00    +0.026 C 
BRANCH  16  19
ATOM     18  C   UNL     1      -1.667  -0.359   2.251  0.00  0.00    +0.005 C 
ATOM     19  C   UNL     1      -0.468  -1.284   2.031  0.00  0.00    +0.017 C 
ENDBRANCH  16  19
ENDBRANCH   1  16
BRANCH   1  20
ATOM     20  C   UNL     1       0.359  -0.509  -0.781  0.00  0.00    +0.205 C 
BRANCH  20  21
ATOM     21  C   UNL     1       1.685  -0.919  -1.368  0.00  0.00    +0.232 C 
ATOM     22  O   UNL     1       2.717  -0.604  -0.814  0.00  0.00    -0.274 OA
ATOM     23  N   UNL     1       1.724  -1.635  -2.509  0.00  0.00    -0.289 N 
ATOM     24  C   UNL     1       0.479  -2.028  -3.186  0.00  0.00    +0.114 C 
ATOM     25  C   UNL     1       0.435  -1.319  -4.554  0.00  0.00    +0.062 C 
ATOM     26  C   UNL     1       1.788  -1.410  -5.182  0.00  0.00    -0.003 A 
ATOM     27  C   UNL     1       2.969  -1.722  -4.584  0.00  0.00    -0.012 A 
ATOM     28  C   UNL     1       4.100  -1.732  -5.398  0.00  0.00    +0.013 A 
ATOM     29  C   UNL     1       3.988  -1.444  -6.715  0.00  0.00    +0.046 A 
ATOM     30  S   UNL     1       2.236  -1.133  -6.876  0.00  0.00    -0.101 S 
ATOM     31  C   UNL     1       3.011  -2.041  -3.090  0.00  0.00    +0.137 C 
BRANCH  31  32
ATOM     32  C   UNL     1       3.218  -3.520  -2.890  0.00  0.00    -0.023 A 
ATOM     33  C   UNL     1       2.366  -4.425  -3.493  0.00  0.00    +0.006 A 
ATOM     34  C   UNL     1       2.559  -5.782  -3.312  0.00  0.00    +0.000 A 
ATOM     35  C   UNL     1       3.598  -6.233  -2.521  0.00  0.00    +0.000 A 
ATOM     36  C   UNL     1       4.448  -5.327  -1.914  0.00  0.00    +0.000 A 
ATOM     37  C   UNL     1       4.258  -3.971  -2.098  0.00  0.00    +0.006 A 
ENDBRANCH  31  32
ENDBRANCH  20  21
ENDBRANCH   1  20
TORSDOF 8
