REMARK  Name = ZINC34699085
REMARK  14 active torsions:
REMARK  status: ('A' for Active; 'I' for Inactive)
REMARK    1  A    between atoms: C_1  and  C_2
REMARK    2  A    between atoms: C_5  and  C_8
REMARK    3  A    between atoms: N_11  and  C_28
REMARK    4  A    between atoms: C_13  and  C_15
REMARK    5  A    between atoms: C_15  and  N_16
REMARK    6  A    between atoms: N_16  and  C_17
REMARK    7  A    between atoms: C_17  and  C_18
REMARK    8  A    between atoms: C_17  and  C_19
REMARK    9  A    between atoms: C_20  and  C_22
REMARK   10  A    between atoms: C_28  and  C_29
REMARK   11  A    between atoms: C_31  and  O_37
REMARK   12  A    between atoms: C_33  and  O_35
REMARK   13  A    between atoms: O_35  and  C_36
REMARK   14  A    between atoms: O_37  and  C_38
REMARK                            x       y       z     vdW  Elec       q    Type
REMARK                         _______ _______ _______ _____ _____    ______ ____
ROOT
ATOM      1  C   UNL     1      -1.112  -5.990   3.753  0.00  0.00    +0.005 C 
ATOM      2  C   UNL     1      -1.082  -6.381   5.253  0.00  0.00    -0.070 C 
ATOM      3  N   UNL     1      -2.065  -7.492   5.334  0.00  0.00    +0.383 N 
ATOM      4  C   UNL     1      -3.180  -7.109   4.441  0.00  0.00    -0.073 C 
ATOM      5  C   UNL     1      -2.603  -6.149   3.380  0.00  0.00    -0.005 C 
ATOM      6  H   UNL     1      -1.644  -8.352   5.016  0.00  0.00    -0.081 HD
ENDROOT
BRANCH   1  11
ATOM      7  C   UNL     1       0.602  -0.519   3.030  0.00  0.00    +0.044 C 
ATOM      8  C   UNL     1       0.155  -1.946   3.219  0.00  0.00    -0.050 A 
ATOM      9  C   UNL     1       0.803  -2.967   2.549  0.00  0.00    +0.003 A 
ATOM     10  C   UNL     1       0.393  -4.276   2.722  0.00  0.00    +0.004 A 
ATOM     11  C   UNL     1      -0.664  -4.563   3.566  0.00  0.00    -0.046 A 
ATOM     12  C   UNL     1      -1.311  -3.542   4.236  0.00  0.00    +0.004 A 
ATOM     13  C   UNL     1      -0.898  -2.234   4.066  0.00  0.00    +0.003 A 
ENDBRANCH   1  11
BRANCH   5  14
ATOM     14  C   UNL     1      -2.739  -6.755   1.981  0.00  0.00    +0.110 C 
BRANCH  14  15
ATOM     15  N   UNL     1      -4.098  -6.531   1.482  0.00  0.00    -0.295 N 
ATOM     16  C   UNL     1      -5.069  -7.428   1.745  0.00  0.00    +0.247 C 
ATOM     17  O   UNL     1      -4.789  -8.602   1.887  0.00  0.00    -0.270 OA
BRANCH  16  18
ATOM     18  C   UNL     1      -6.474  -6.983   1.860  0.00  0.00    +0.037 A 
ATOM     19  C   UNL     1      -6.827  -5.678   1.515  0.00  0.00    +0.013 A 
ATOM     20  C   UNL     1      -8.140  -5.270   1.625  0.00  0.00    +0.001 A 
ATOM     21  C   UNL     1      -9.106  -6.151   2.076  0.00  0.00    +0.000 A 
ATOM     22  C   UNL     1      -8.763  -7.447   2.420  0.00  0.00    +0.001 A 
ATOM     23  C   UNL     1      -7.454  -7.869   2.309  0.00  0.00    +0.013 A 
ENDBRANCH  16  18
BRANCH  15  24
ATOM     24  C   UNL     1      -4.401  -5.332   0.697  0.00  0.00    +0.070 C 
ATOM     25  C   UNL     1      -5.581  -5.617  -0.235  0.00  0.00    +0.028 C 
ATOM     26  C   UNL     1      -4.763  -4.182   1.640  0.00  0.00    +0.028 C 
ENDBRANCH  15  24
ENDBRANCH  14  15
ENDBRANCH   5  14
BRANCH   3  27
ATOM     27  C   UNL     1      -2.547  -7.641   6.713  0.00  0.00    -0.043 C 
BRANCH  27  28
ATOM     28  C   UNL     1      -1.414  -8.098   7.595  0.00  0.00    -0.057 A 
ATOM     29  C   UNL     1      -1.177  -9.448   7.771  0.00  0.00    +0.047 A 
ATOM     30  C   UNL     1      -0.134  -9.871   8.582  0.00  0.00    +0.124 A 
ATOM     31  C   UNL     1       0.670  -8.938   9.217  0.00  0.00    +0.091 A 
ATOM     32  C   UNL     1       0.431  -7.584   9.040  0.00  0.00    +0.124 A 
ATOM     33  C   UNL     1      -0.610  -7.166   8.222  0.00  0.00    +0.047 A 
BRANCH  32  34
ATOM     34  O   UNL     1       1.218  -6.667   9.661  0.00  0.00    -0.495 OA
ATOM     35  C   UNL     1       2.274  -7.168  10.483  0.00  0.00    +0.277 C 
ENDBRANCH  32  34
BRANCH  30  36
ATOM     36  O   UNL     1       0.098 -11.199   8.755  0.00  0.00    -0.495 OA
ATOM     37  C   UNL     1       1.188 -11.562   9.604  0.00  0.00    +0.277 C 
ENDBRANCH  30  36
ENDBRANCH  27  28
ENDBRANCH   3  27
TORSDOF 9
