REMARK  Name = ZINC12872056
REMARK  13 active torsions:
REMARK  status: ('A' for Active; 'I' for Inactive)
REMARK    1  A    between atoms: C_1  and  C_2
REMARK    2  A    between atoms: C_10  and  C_23
REMARK    3  A    between atoms: C_15  and  C_16
REMARK    4  A    between atoms: C_15  and  O_19
REMARK    5  A    between atoms: C_16  and  C_18
REMARK    6  A    between atoms: O_19  and  C_20
REMARK    7  A    between atoms: C_20  and  C_22
REMARK    8  A    between atoms: C_24  and  C_41
REMARK    9  A    between atoms: C_27  and  O_31
REMARK   10  A    between atoms: O_31  and  C_32
REMARK   11  A    between atoms: C_32  and  C_34
REMARK   12  A    between atoms: C_34  and  C_35
REMARK   13  A    between atoms: C_35  and  N_85
REMARK                            x       y       z     vdW  Elec       q    Type
REMARK                         _______ _______ _______ _____ _____    ______ ____
ROOT
ATOM      1  C   UNL     1      -3.793  -0.957  -4.244  0.00  0.00    +0.044 C 
ATOM      2  C   UNL     1      -3.500   0.121  -5.255  0.00  0.00    -0.051 C 
ATOM      3  C   UNL     1      -4.116   0.132  -6.421  0.00  0.00    -0.019 C 
ATOM      4  C   UNL     1      -3.916   1.150  -7.494  0.00  0.00    +0.020 C 
ATOM      5  C   UNL     1      -3.054   2.333  -7.069  0.00  0.00    +0.006 C 
ATOM      6  C   UNL     1      -3.873   3.429  -6.438  0.00  0.00    +0.005 C 
ATOM      7  C   UNL     1      -4.728   4.112  -7.519  0.00  0.00    +0.011 C 
ATOM      8  C   UNL     1      -5.007   3.088  -8.605  0.00  0.00    +0.018 C 
ATOM      9  C   UNL     1      -5.263   1.717  -7.930  0.00  0.00    +0.006 C 
ATOM     10  C   UNL     1      -5.925   0.917  -9.064  0.00  0.00    +0.009 C 
ATOM     11  C   UNL     1      -6.867   1.952  -9.731  0.00  0.00    +0.057 C 
ATOM     12  C   UNL     1      -6.289   3.347  -9.400  0.00  0.00    +0.176 C 
ATOM     13  C   UNL     1      -3.815   2.985  -9.558  0.00  0.00    +0.016 C 
ATOM     14  C   UNL     1      -1.914   1.890  -6.140  0.00  0.00    -0.003 C 
ATOM     15  C   UNL     1      -2.514   1.186  -4.955  0.00  0.00    -0.039 C 
ATOM     16  C   UNL     1      -2.212   1.459  -3.703  0.00  0.00    +0.021 C 
ATOM     17  C   UNL     1      -1.236   2.534  -3.317  0.00  0.00    +0.200 C 
ATOM     18  C   UNL     1      -0.260   2.767  -4.474  0.00  0.00    +0.050 C 
ATOM     19  C   UNL     1      -1.062   3.082  -5.736  0.00  0.00    +0.015 C 
ATOM     20  C   UNL     1      -1.016   0.901  -6.886  0.00  0.00    +0.016 C 
ENDROOT
BRANCH  12  21
ATOM     21  C   UNL     1      -5.972   4.093 -10.670  0.00  0.00    +0.174 C 
ATOM     22  O   UNL     1      -5.764   3.485 -11.692  0.00  0.00    -0.293 OA
ATOM     23  C   UNL     1      -5.914   5.599 -10.664  0.00  0.00    +0.090 C 
ENDBRANCH  12  21
BRANCH  12  24
ATOM     24  O   UNL     1      -7.234   4.103  -8.597  0.00  0.00    -0.450 OA
BRANCH  24  25
ATOM     25  C   UNL     1      -8.456   4.298  -9.118  0.00  0.00    +0.305 C 
ATOM     26  O   UNL     1      -8.697   3.937 -10.245  0.00  0.00    -0.251 OA
ATOM     27  C   UNL     1      -9.526   4.969  -8.296  0.00  0.00    +0.136 C 
ENDBRANCH  24  25
ENDBRANCH  12  24
BRANCH  17  28
ATOM     28  O   UNL     1      -0.500   2.120  -2.136  0.00  0.00    -0.457 OA
BRANCH  28  29
ATOM     29  C   UNL     1      -1.021   2.454  -0.945  0.00  0.00    +0.306 C 
ATOM     30  O   UNL     1      -2.058   3.071  -0.891  0.00  0.00    -0.251 OA
BRANCH  29  31
ATOM     31  C   UNL     1      -0.312   2.058   0.325  0.00  0.00    +0.102 C 
BRANCH  31  32
ATOM     32  C   UNL     1      -1.111   2.556   1.531  0.00  0.00    -0.068 C 
BRANCH  32  38
ATOM     33  C   UNL     1      -0.407   0.711   2.931  0.00  0.00    -0.079 C 
ATOM     34  C   UNL     1       0.442   0.340   4.148  0.00  0.00    -0.019 C 
ATOM     35  C   UNL     1      -0.144   1.005   5.396  0.00  0.00    -0.004 C 
ATOM     36  C   UNL     1      -0.192   2.521   5.182  0.00  0.00    -0.019 C 
ATOM     37  C   UNL     1      -1.023   2.829   3.935  0.00  0.00    -0.079 C 
ATOM     38  N   UNL     1      -0.392   2.180   2.765  0.00  0.00    +0.380 N 
ATOM     39  H   UNL     1       0.582   2.497   2.694  0.00  0.00    -0.082 HD
ENDBRANCH  32  38
ENDBRANCH  31  32
ENDBRANCH  29  31
ENDBRANCH  28  29
ENDBRANCH  17  28
TORSDOF 8
