REMARK  Name = ZINC67218602
REMARK  6 active torsions:
REMARK  status: ('A' for Active; 'I' for Inactive)
REMARK    1  A    between atoms: C_1  and  C_2
REMARK    2  A    between atoms: C_5  and  N_9
REMARK    3  A    between atoms: C_6  and  C_8
REMARK    4  A    between atoms: N_17  and  C_20
REMARK    5  A    between atoms: C_20  and  C_21
REMARK    6  A    between atoms: N_23  and  C_24
REMARK                            x       y       z     vdW  Elec       q    Type
REMARK                         _______ _______ _______ _____ _____    ______ ____
ROOT
ATOM      1  N   UNL     1       0.054  -4.173  -0.029  0.00  0.00    -0.228 N 
ATOM      2  C   UNL     1      -1.107  -4.865  -0.025  0.00  0.00    +0.275 A 
ATOM      3  O   UNL     1      -2.176  -4.281  -0.022  0.00  0.00    -0.266 OA
ATOM      4  C   UNL     1      -1.062  -6.263  -0.024  0.00  0.00    +0.101 A 
ATOM      5  C   UNL     1       0.154  -6.952  -0.027  0.00  0.00    +0.066 A 
ATOM      6  C   UNL     1       0.013  -8.336  -0.026  0.00  0.00    +0.034 A 
ATOM      7  C   UNL     1      -1.223  -8.883  -0.021  0.00  0.00    +0.048 A 
ATOM      8  S   UNL     1      -2.265  -7.563  -0.018  0.00  0.00    -0.090 S 
ATOM      9  N   UNL     1       1.313  -6.163  -0.032  0.00  0.00    -0.284 N 
ATOM     10  C   UNL     1       1.230  -4.824  -0.038  0.00  0.00    +0.337 A 
ATOM     11  O   UNL     1       2.258  -4.174  -0.047  0.00  0.00    -0.246 OA
ENDROOT
BRANCH   1  16
ATOM     12  C   UNL     1      -0.037   1.502  -0.033  0.00  0.00    +0.044 C 
ATOM     13  C   UNL     1      -0.013  -0.005  -0.032  0.00  0.00    -0.050 A 
ATOM     14  C   UNL     1      -0.011  -0.696  -1.230  0.00  0.00    +0.005 A 
ATOM     15  C   UNL     1       0.011  -2.077  -1.232  0.00  0.00    +0.027 A 
ATOM     16  C   UNL     1       0.032  -2.771  -0.030  0.00  0.00    +0.057 A 
ATOM     17  C   UNL     1       0.030  -2.075   1.171  0.00  0.00    -0.026 A 
ATOM     18  C   UNL     1       0.013  -0.694   1.167  0.00  0.00    +0.008 A 
ATOM     19  C   UNL     1       0.052  -2.825   2.478  0.00  0.00    +0.046 C 
ENDBRANCH   1  16
BRANCH   9  20
ATOM     20  C   UNL     1       2.629  -6.808  -0.035  0.00  0.00    +0.222 C 
BRANCH  20  21
ATOM     21  C   UNL     1       3.075  -7.030  -1.457  0.00  0.00    +0.237 C 
ATOM     22  O   UNL     1       2.365  -6.684  -2.377  0.00  0.00    -0.274 OA
ATOM     23  N   UNL     1       4.265  -7.614  -1.707  0.00  0.00    -0.284 N 
ATOM     24  H   UNL     1       4.862  -7.829  -0.974  0.00  0.00    +0.155 HD
BRANCH  23  25
ATOM     25  C   UNL     1       4.637  -7.908  -3.023  0.00  0.00    +0.036 A 
ATOM     26  C   UNL     1       5.374  -9.052  -3.298  0.00  0.00    +0.043 A 
ATOM     27  C   UNL     1       5.740  -9.341  -4.599  0.00  0.00    +0.044 A 
ATOM     28  C   UNL     1       5.373  -8.492  -5.628  0.00  0.00    +0.040 A 
ATOM     29  C   UNL     1       4.638  -7.351  -5.356  0.00  0.00    +0.044 A 
ATOM     30  C   UNL     1       4.265  -7.060  -4.058  0.00  0.00    +0.043 A 
ATOM     31 CL   UNL     1       4.180  -6.287  -6.649  0.00  0.00    -0.083 Cl
ATOM     32 CL   UNL     1       6.663 -10.771  -4.943  0.00  0.00    -0.083 Cl
ENDBRANCH  23  25
ENDBRANCH  20  21
ENDBRANCH   9  20
TORSDOF 4
