REMARK  Name = ZINC14467236
REMARK  5 active torsions:
REMARK  status: ('A' for Active; 'I' for Inactive)
REMARK    1  A    between atoms: C_1  and  O_2
REMARK    2  A    between atoms: O_2  and  C_3
REMARK    3  A    between atoms: C_3  and  C_5
REMARK    4  A    between atoms: C_18  and  C_21
REMARK    5  A    between atoms: C_26  and  O_27
REMARK                            x       y       z     vdW  Elec       q    Type
REMARK                         _______ _______ _______ _____ _____    ______ ____
ROOT
ATOM      1  C   UNL     1      -6.387   1.698  -0.632  0.00  0.00    +0.059 A 
ATOM      2  C   UNL     1      -6.016   0.696   0.270  0.00  0.00    +0.017 A 
ATOM      3  C   UNL     1      -4.712   0.563   0.648  0.00  0.00    +0.024 A 
ATOM      4  C   UNL     1      -3.735   1.418   0.142  0.00  0.00    +0.031 A 
ATOM      5  C   UNL     1      -4.104   2.433  -0.754  0.00  0.00    -0.019 A 
ATOM      6  C   UNL     1      -5.415   2.566  -1.141  0.00  0.00    +0.021 A 
ATOM      7  C   UNL     1      -3.037   3.330  -1.247  0.00  0.00    +0.049 C 
ATOM      8  C   UNL     1      -3.139   4.029  -2.553  0.00  0.00    -0.023 C 
ATOM      9  C   UNL     1      -1.917   4.179  -3.051  0.00  0.00    -0.030 C 
ATOM     10  C   UNL     1      -0.888   3.547  -2.110  0.00  0.00    +0.033 C 
ATOM     11  C   UNL     1      -1.735   2.486  -1.395  0.00  0.00    +0.029 C 
ATOM     12  C   UNL     1      -1.332   2.114   0.020  0.00  0.00    +0.109 C 
ATOM     13  N   UNL     1      -2.407   1.232   0.523  0.00  0.00    -0.336 N 
ATOM     14  H   UNL     1      -2.183   0.509   1.130  0.00  0.00    +0.147 HD
ENDROOT
BRANCH  12  15
ATOM     15  C   UNL     1      -0.017   1.378   0.010  0.00  0.00    +0.017 A 
ATOM     16  C   UNL     1       0.002  -0.004   0.002  0.00  0.00    +0.029 A 
ATOM     17  C   UNL     1       1.209  -0.681  -0.013  0.00  0.00    +0.043 A 
ATOM     18  C   UNL     1       2.399   0.024  -0.020  0.00  0.00    +0.043 A 
ATOM     19  C   UNL     1       2.385   1.406  -0.013  0.00  0.00    +0.084 A 
ATOM     20  C   UNL     1       1.175   2.087   0.002  0.00  0.00    +0.140 A 
ATOM     21 CL   UNL     1       3.879   2.291  -0.022  0.00  0.00    -0.080 Cl
ATOM     22 CL   UNL     1       1.229  -2.417  -0.023  0.00  0.00    -0.083 Cl
BRANCH  20  23
ATOM     23  O   UNL     1       1.158   3.446   0.009  0.00  0.00    -0.505 OA
ATOM     24  H   UNL     1       1.162   3.835   0.894  0.00  0.00    +0.292 HD
ENDBRANCH  20  23
ENDBRANCH  12  15
BRANCH   1  25
ATOM     25  C   UNL     1      -7.795   1.839  -1.046  0.00  0.00    +0.339 C 
ATOM     26  O   UNL     1      -8.113   2.710  -1.830  0.00  0.00    -0.245 OA
BRANCH  25  28
ATOM     27  C   UNL     1     -10.094   1.197  -1.006  0.00  0.00    +0.280 C 
ATOM     28  O   UNL     1      -8.728   1.000  -0.554  0.00  0.00    -0.464 OA
ENDBRANCH  25  28
ENDBRANCH   1  25
TORSDOF 4
