REMARK  Name = ZINC24905247
REMARK  7 active torsions:
REMARK  status: ('A' for Active; 'I' for Inactive)
REMARK    1  A    between atoms: C_4  and  C_7
REMARK    2  A    between atoms: C_10  and  N_21
REMARK    3  A    between atoms: C_14  and  C_17
REMARK    4  A    between atoms: N_21  and  C_22
REMARK    5  A    between atoms: C_25  and  N_28
REMARK    6  A    between atoms: N_28  and  C_29
REMARK    7  A    between atoms: C_29  and  C_30
REMARK                            x       y       z     vdW  Elec       q    Type
REMARK                         _______ _______ _______ _____ _____    ______ ____
ROOT
ATOM      1  C   UNL     1      -0.018   1.477   0.010  0.00  0.00    +0.026 A 
ATOM      2  C   UNL     1       1.162   2.199   0.003  0.00  0.00    +0.123 A 
ATOM      3  N   UNL     1       1.168   3.523   0.010  0.00  0.00    -0.239 NA
ATOM      4  C   UNL     1       0.060   4.240   0.024  0.00  0.00    +0.128 A 
ATOM      5  C   UNL     1      -1.199   3.600   0.032  0.00  0.00    +0.041 A 
ATOM      6  C   UNL     1      -1.248   2.184   0.020  0.00  0.00    +0.084 A 
ATOM      7  N   UNL     1      -2.421   1.556   0.033  0.00  0.00    -0.242 NA
ATOM      8  C   UNL     1      -3.551   2.227   0.046  0.00  0.00    +0.144 A 
ATOM      9  C   UNL     1      -3.575   3.618   0.054  0.00  0.00    +0.033 A 
ATOM     10  C   UNL     1      -2.402   4.322   0.047  0.00  0.00    +0.015 A 
ENDROOT
BRANCH   1  14
ATOM     11  C   UNL     1       0.040  -2.773  -0.013  0.00  0.00    +0.000 A 
ATOM     12  C   UNL     1       0.792  -2.068  -0.936  0.00  0.00    +0.001 A 
ATOM     13  C   UNL     1       0.778  -0.689  -0.933  0.00  0.00    +0.008 A 
ATOM     14  C   UNL     1       0.002  -0.004   0.002  0.00  0.00    -0.014 A 
ATOM     15  C   UNL     1      -0.750  -0.720   0.933  0.00  0.00    +0.008 A 
ATOM     16  C   UNL     1      -0.732  -2.099   0.917  0.00  0.00    +0.001 A 
ENDBRANCH   1  14
BRANCH   8  17
ATOM     17  C   UNL     1      -4.854   1.470   0.055  0.00  0.00    +0.434 C 
ATOM     18  F   UNL     1      -5.270   1.243  -1.262  0.00  0.00    -0.164 F 
ATOM     19  F   UNL     1      -4.677   0.244   0.706  0.00  0.00    -0.164 F 
ATOM     20  F   UNL     1      -5.824   2.220   0.728  0.00  0.00    -0.164 F 
ENDBRANCH   8  17
BRANCH   4  21
ATOM     21  N   UNL     1       0.131   5.621   0.031  0.00  0.00    -0.326 N 
ATOM     22  H   UNL     1      -0.791   6.220   0.042  0.00  0.00    +0.148 HD
BRANCH  21  23
ATOM     23  C   UNL     1       1.436   6.287   0.022  0.00  0.00    +0.072 C 
ATOM     24  C   UNL     1       1.961   6.399   1.455  0.00  0.00    +0.020 C 
ATOM     25  C   UNL     1       0.977   7.215   2.296  0.00  0.00    -0.014 C 
ATOM     26  C   UNL     1       0.832   8.615   1.695  0.00  0.00    -0.071 C 
ATOM     27  C   UNL     1       0.307   8.503   0.262  0.00  0.00    -0.014 C 
ATOM     28  C   UNL     1       1.291   7.686  -0.579  0.00  0.00    +0.020 C 
BRANCH  26  29
ATOM     29  N   UNL     1      -0.112   9.399   2.502  0.00  0.00    +0.384 N 
ATOM     30  H   UNL     1      -0.560  10.187   1.880  0.00  0.00    -0.085 HD
ATOM     31  H   UNL     1      -0.905   8.738   2.884  0.00  0.00    -0.085 HD
BRANCH  29  32
ATOM     32  C   UNL     1       0.566  10.027   3.643  0.00  0.00    -0.046 C 
BRANCH  32  33
ATOM     33  C   UNL     1      -0.432  10.821   4.446  0.00  0.00    -0.064 A 
ATOM     34  C   UNL     1      -0.655  12.153   4.149  0.00  0.00    +0.004 A 
ATOM     35  C   UNL     1      -1.574  12.880   4.881  0.00  0.00    +0.038 A 
ATOM     36  C   UNL     1      -2.263  12.278   5.920  0.00  0.00    +0.123 A 
ATOM     37  C   UNL     1      -2.035  10.946   6.221  0.00  0.00    +0.038 A 
ATOM     38  C   UNL     1      -1.119  10.219   5.484  0.00  0.00    +0.004 A 
ATOM     39  F   UNL     1      -3.158  12.989   6.640  0.00  0.00    -0.205 F 
ENDBRANCH  32  33
ENDBRANCH  29  32
ENDBRANCH  26  29
ENDBRANCH  21  23
ENDBRANCH   4  21
TORSDOF 7
