REMARK  Name = ZINC04396549
REMARK  11 active torsions:
REMARK  status: ('A' for Active; 'I' for Inactive)
REMARK    1  A    between atoms: C_1  and  C_2
REMARK    2  A    between atoms: C_6  and  O_37
REMARK    3  A    between atoms: C_7  and  O_35
REMARK    4  A    between atoms: C_13  and  C_15
REMARK    5  A    between atoms: C_15  and  S_16
REMARK    6  A    between atoms: S_16  and  C_17
REMARK    7  A    between atoms: C_22  and  C_26
REMARK    8  A    between atoms: C_23  and  O_25
REMARK    9  A    between atoms: C_26  and  C_27
REMARK   10  A    between atoms: O_35  and  C_36
REMARK   11  A    between atoms: O_37  and  C_38
REMARK                            x       y       z     vdW  Elec       q    Type
REMARK                         _______ _______ _______ _____ _____    ______ ____
ROOT
ATOM      1  S   UNL     1      -3.179  -1.357   3.924  0.00  0.00    -0.078 S 
ENDROOT
BRANCH   1   2
ATOM      2  C   UNL     1      -2.065  -2.057   5.095  0.00  0.00    +0.173 A 
ATOM      3  N   UNL     1      -2.531  -2.959   6.003  0.00  0.00    -0.302 N 
ATOM      4  H   UNL     1      -3.468  -3.209   6.001  0.00  0.00    +0.171 HD
ATOM      5  C   UNL     1      -1.690  -3.504   6.907  0.00  0.00    +0.259 A 
ATOM      6  O   UNL     1      -2.098  -4.313   7.726  0.00  0.00    -0.267 OA
ATOM      7  C   UNL     1      -0.342  -3.126   6.890  0.00  0.00    +0.082 A 
ATOM      8  C   UNL     1       0.080  -2.205   5.946  0.00  0.00    +0.223 A 
ATOM      9  N   UNL     1      -0.796  -1.701   5.072  0.00  0.00    -0.189 NA
BRANCH   8  10
ATOM     10  O   UNL     1       1.377  -1.820   5.905  0.00  0.00    -0.492 OA
ATOM     11  H   UNL     1       1.574  -1.175   5.213  0.00  0.00    +0.294 HD
ENDBRANCH   8  10
BRANCH   7  12
ATOM     12  C   UNL     1       0.631  -3.711   7.881  0.00  0.00    +0.081 C 
BRANCH  12  13
ATOM     13  C   UNL     1       0.580  -2.919   9.162  0.00  0.00    -0.041 A 
ATOM     14  C   UNL     1       1.419  -1.833   9.338  0.00  0.00    +0.005 A 
ATOM     15  C   UNL     1       1.369  -1.103  10.510  0.00  0.00    +0.022 A 
ATOM     16  C   UNL     1       0.488  -1.465  11.514  0.00  0.00    +0.059 A 
ATOM     17  C   UNL     1      -0.347  -2.556  11.340  0.00  0.00    +0.060 A 
ATOM     18  C   UNL     1      -0.300  -3.282  10.164  0.00  0.00    +0.025 A 
ATOM     19 CL   UNL     1      -1.453  -3.011  12.598  0.00  0.00    -0.082 Cl
ATOM     20 CL   UNL     1       0.430  -0.552  12.989  0.00  0.00    -0.082 Cl
ENDBRANCH  12  13
ENDBRANCH   7  12
ENDBRANCH   1   2
BRANCH   1  21
ATOM     21  C   UNL     1      -2.045  -0.276   3.018  0.00  0.00    +0.173 C 
BRANCH  21  33
ATOM     22  C   UNL     1      -3.080   3.485   0.485  0.00  0.00    +0.033 C 
ATOM     23  C   UNL     1      -2.860   2.032   0.059  0.00  0.00    +0.104 C 
ATOM     24  C   UNL     1      -2.039   1.999  -1.206  0.00  0.00    -0.020 A 
ATOM     25  C   UNL     1      -2.645   2.427  -2.380  0.00  0.00    +0.055 A 
ATOM     26  C   UNL     1      -1.940   2.444  -3.569  0.00  0.00    +0.162 A 
ATOM     27  C   UNL     1      -0.611   2.028  -3.586  0.00  0.00    +0.162 A 
ATOM     28  C   UNL     1      -0.015   1.598  -2.416  0.00  0.00    +0.053 A 
ATOM     29  C   UNL     1      -0.728   1.578  -1.223  0.00  0.00    -0.037 A 
ATOM     30  C   UNL     1      -0.013   1.086   0.008  0.00  0.00    +0.054 C 
ATOM     31  C   UNL     1      -0.714   1.572   1.275  0.00  0.00    +0.113 C 
ATOM     32  N   UNL     1      -2.155   1.312   1.124  0.00  0.00    -0.294 N 
ATOM     33  C   UNL     1      -2.800   0.447   1.932  0.00  0.00    +0.226 C 
ATOM     34  O   UNL     1      -3.987   0.251   1.786  0.00  0.00    -0.275 OA
BRANCH  27  35
ATOM     35  O   UNL     1       0.096   2.045  -4.747  0.00  0.00    -0.491 OA
ATOM     36  C   UNL     1       1.454   1.604  -4.687  0.00  0.00    +0.277 C 
ENDBRANCH  27  35
BRANCH  26  37
ATOM     37  O   UNL     1      -2.539   2.866  -4.715  0.00  0.00    -0.491 OA
ATOM     38  C   UNL     1      -3.904   3.278  -4.619  0.00  0.00    +0.277 C 
ENDBRANCH  26  37
ENDBRANCH  21  33
ENDBRANCH   1  21
TORSDOF 8
