REMARK  Name = ZINC20884034
REMARK  10 active torsions:
REMARK  status: ('A' for Active; 'I' for Inactive)
REMARK    1  A    between atoms: C_1  and  C_2
REMARK    2  A    between atoms: C_2  and  C_4
REMARK    3  A    between atoms: C_2  and  O_17
REMARK    4  A    between atoms: N_6  and  C_7
REMARK    5  A    between atoms: C_9  and  N_14
REMARK    6  A    between atoms: O_17  and  C_18
REMARK    7  A    between atoms: C_18  and  C_20
REMARK    8  A    between atoms: C_21  and  C_22
REMARK    9  A    between atoms: C_25  and  O_28
REMARK   10  A    between atoms: O_28  and  C_29
REMARK                            x       y       z     vdW  Elec       q    Type
REMARK                         _______ _______ _______ _____ _____    ______ ____
ROOT
ATOM      1  C   UNL     1      -7.043  -0.649   1.056  0.00  0.00    +0.062 C 
ATOM      2  C   UNL     1      -6.191  -0.911  -0.187  0.00  0.00    +0.259 C 
ENDROOT
BRANCH   2   3
ATOM      3  C   UNL     1      -4.894  -0.151  -0.076  0.00  0.00    +0.258 C 
ATOM      4  O   UNL     1      -3.838  -0.748  -0.085  0.00  0.00    -0.271 OA
ATOM      5  N   UNL     1      -4.908   1.192   0.032  0.00  0.00    -0.281 N 
ATOM      6  H   UNL     1      -5.865   1.728   0.114  0.00  0.00    +0.155 HD
BRANCH   5   7
ATOM      7  C   UNL     1      -3.703   1.906   0.041  0.00  0.00    +0.054 A 
ATOM      8  C   UNL     1      -2.575   1.359   0.638  0.00  0.00    +0.057 A 
ATOM      9  C   UNL     1      -1.389   2.066   0.646  0.00  0.00    +0.128 A 
ATOM     10  C   UNL     1      -1.324   3.319   0.064  0.00  0.00    +0.034 A 
ATOM     11  C   UNL     1      -2.444   3.865  -0.536  0.00  0.00    +0.024 A 
ATOM     12  C   UNL     1      -3.635   3.163  -0.547  0.00  0.00    +0.062 A 
ATOM     13 CL   UNL     1      -5.042   3.850  -1.296  0.00  0.00    -0.082 Cl
BRANCH   9  14
ATOM     14  N   UNL     1      -0.186   1.484   1.282  0.00  0.00    +0.056 N 
ATOM     15  O   UNL     1      -0.243   0.382   1.799  0.00  0.00    -0.126 OA
ATOM     16  O   UNL     1       0.863   2.104   1.285  0.00  0.00    -0.126 OA
ENDBRANCH   9  14
ENDBRANCH   5   7
ENDBRANCH   2   3
BRANCH   2  17
ATOM     17  O   UNL     1      -5.916  -2.310  -0.291  0.00  0.00    -0.449 OA
BRANCH  17  18
ATOM     18  C   UNL     1      -6.796  -3.057  -0.988  0.00  0.00    +0.333 C 
ATOM     19  O   UNL     1      -7.771  -2.534  -1.495  0.00  0.00    -0.246 OA
BRANCH  18  20
ATOM     20  C   UNL     1      -6.585  -4.452  -1.131  0.00  0.00    +0.092 C 
ATOM     21  C   UNL     1      -7.467  -5.200  -1.829  0.00  0.00    +0.015 C 
BRANCH  21  22
ATOM     22  C   UNL     1      -7.248  -6.646  -1.977  0.00  0.00    -0.025 A 
ATOM     23  C   UNL     1      -6.124  -7.249  -1.400  0.00  0.00    +0.011 A 
ATOM     24  C   UNL     1      -5.927  -8.605  -1.536  0.00  0.00    +0.046 A 
ATOM     25  C   UNL     1      -6.836  -9.373  -2.256  0.00  0.00    +0.127 A 
ATOM     26  C   UNL     1      -7.951  -8.778  -2.836  0.00  0.00    +0.046 A 
ATOM     27  C   UNL     1      -8.160  -7.424  -2.701  0.00  0.00    +0.011 A 
BRANCH  25  28
ATOM     28  O   UNL     1      -6.635 -10.708  -2.392  0.00  0.00    -0.434 OA
BRANCH  28  29
ATOM     29  C   UNL     1      -5.470 -11.255  -1.770  0.00  0.00    +0.541 C 
ATOM     30  F   UNL     1      -4.328 -10.646  -2.302  0.00  0.00    -0.166 F 
ATOM     31  F   UNL     1      -5.524 -11.021  -0.392  0.00  0.00    -0.166 F 
ENDBRANCH  28  29
ENDBRANCH  25  28
ENDBRANCH  21  22
ENDBRANCH  18  20
ENDBRANCH  17  18
ENDBRANCH   2  17
TORSDOF 9
