REMARK  Name = ZINC63294126
REMARK  7 active torsions:
REMARK  status: ('A' for Active; 'I' for Inactive)
REMARK    1  A    between atoms: C_1  and  O_2
REMARK    2  A    between atoms: O_2  and  C_3
REMARK    3  A    between atoms: C_6  and  C_11
REMARK    4  A    between atoms: C_8  and  O_9
REMARK    5  A    between atoms: O_9  and  C_10
REMARK    6  A    between atoms: C_11  and  C_12
REMARK    7  A    between atoms: C_18  and  C_21
REMARK                            x       y       z     vdW  Elec       q    Type
REMARK                         _______ _______ _______ _____ _____    ______ ____
ROOT
ATOM      1  C   UNL     1      -5.442  -2.858  -1.383  0.00  0.00    +0.156 A 
ATOM      2  N   UNL     1      -6.156  -2.041  -2.099  0.00  0.00    -0.132 NA
ATOM      3  N   UNL     1      -6.378  -2.550  -3.260  0.00  0.00    -0.121 NA
ATOM      4  C   UNL     1      -5.829  -3.723  -3.329  0.00  0.00    +0.210 A 
ATOM      5  N   UNL     1      -5.169  -3.975  -2.153  0.00  0.00    -0.224 N 
ATOM      6  N   UNL     1      -4.455  -5.129  -2.025  0.00  0.00    -0.265 N 
ATOM      7  C   UNL     1      -4.851  -6.219  -2.956  0.00  0.00    +0.178 C 
ATOM      8  S   UNL     1      -5.550  -5.181  -4.311  0.00  0.00    -0.058 S 
ATOM      9  H   UNL     1      -3.464  -4.949  -2.079  0.00  0.00    +0.168 HD
ENDROOT
BRANCH   7  10
ATOM     10  C   UNL     1      -3.639  -7.027  -3.425  0.00  0.00    +0.135 C 
ATOM     11  C   UNL     1      -2.580  -6.103  -3.982  0.00  0.00    +0.010 C 
ATOM     12  C   UNL     1      -1.485  -6.278  -3.208  0.00  0.00    -0.004 A 
ATOM     13  C   UNL     1      -0.145  -5.680  -3.231  0.00  0.00    +0.010 A 
ATOM     14  C   UNL     1       0.762  -6.065  -2.304  0.00  0.00    +0.001 A 
ATOM     15  C   UNL     1       0.454  -7.018  -1.324  0.00  0.00    +0.002 A 
ATOM     16  C   UNL     1      -0.755  -7.612  -1.238  0.00  0.00    +0.026 A 
ATOM     17  C   UNL     1      -1.785  -7.282  -2.163  0.00  0.00    +0.043 A 
ATOM     18  N   UNL     1      -3.018  -7.713  -2.286  0.00  0.00    -0.375 N 
ATOM     19  H   UNL     1      -3.448  -8.374  -1.720  0.00  0.00    +0.160 HD
ENDBRANCH   7  10
BRANCH   1  20
ATOM     20  C   UNL     1      -4.987  -2.627   0.035  0.00  0.00    +0.113 C 
BRANCH  20  24
ATOM     21  C   UNL     1      -1.201  -0.638   0.010  0.00  0.00    +0.161 A 
ATOM     22  C   UNL     1      -2.374   0.099   0.019  0.00  0.00    +0.049 A 
ATOM     23  C   UNL     1      -3.596  -0.546   0.027  0.00  0.00    +0.008 A 
ATOM     24  C   UNL     1      -3.652  -1.928   0.026  0.00  0.00    -0.036 A 
ATOM     25  C   UNL     1      -2.485  -2.669   0.017  0.00  0.00    +0.053 A 
ATOM     26  C   UNL     1      -1.257  -2.028   0.003  0.00  0.00    +0.162 A 
BRANCH  21  28
ATOM     27  C   UNL     1      -0.017   1.425   0.010  0.00  0.00    +0.277 C 
ATOM     28  O   UNL     1       0.002  -0.004   0.002  0.00  0.00    -0.491 OA
ENDBRANCH  21  28
BRANCH  26  29
ATOM     29  O   UNL     1      -0.108  -2.756  -0.012  0.00  0.00    -0.491 OA
ATOM     30  C   UNL     1      -0.242  -4.179  -0.018  0.00  0.00    +0.277 C 
ENDBRANCH  26  29
ENDBRANCH  20  24
ENDBRANCH   1  20
TORSDOF 5
