REMARK  Name = ZINC38884172
REMARK  8 active torsions:
REMARK  status: ('A' for Active; 'I' for Inactive)
REMARK    1  A    between atoms: C_1  and  C_2
REMARK    2  A    between atoms: C_8  and  N_15
REMARK    3  A    between atoms: C_11  and  C_13
REMARK    4  A    between atoms: C_11  and  C_14
REMARK    5  A    between atoms: C_16  and  C_18
REMARK    6  A    between atoms: N_21  and  C_24
REMARK    7  A    between atoms: C_24  and  C_25
REMARK    8  A    between atoms: C_27  and  C_30
REMARK                            x       y       z     vdW  Elec       q    Type
REMARK                         _______ _______ _______ _____ _____    ______ ____
ROOT
ATOM      1  C   UNL     1      -1.418  -0.434   5.125  0.00  0.00    +0.071 C 
ATOM      2  C   UNL     1      -2.632   0.091   4.354  0.00  0.00    -0.006 C 
ATOM      3  C   UNL     1      -3.559   0.834   5.318  0.00  0.00    -0.077 C 
ATOM      4  N   UNL     1      -2.839   1.960   5.924  0.00  0.00    +0.386 N 
ATOM      5  C   UNL     1      -1.715   1.459   6.724  0.00  0.00    -0.077 C 
ATOM      6  C   UNL     1      -0.717   0.740   5.814  0.00  0.00    -0.006 C 
ATOM      7  H   UNL     1      -2.489   2.566   5.197  0.00  0.00    -0.081 HD
ENDROOT
BRANCH   1   9
ATOM      8  N   UNL     1      -0.865  -2.164   3.446  0.00  0.00    -0.308 N 
ATOM      9  C   UNL     1      -0.463  -1.100   4.168  0.00  0.00    +0.216 C 
ATOM     10  O   UNL     1       0.668  -0.678   4.048  0.00  0.00    -0.276 OA
ATOM     11  H   UNL     1      -1.770  -2.502   3.542  0.00  0.00    +0.149 HD
BRANCH   8  19
ATOM     12  C   UNL     1      -0.018   1.503   0.010  0.00  0.00    +0.044 C 
ATOM     13  C   UNL     1       0.002  -0.004   0.002  0.00  0.00    -0.050 A 
ATOM     14  C   UNL     1       0.006  -0.689  -1.199  0.00  0.00    +0.007 A 
ATOM     15  C   UNL     1       0.022  -2.069  -1.206  0.00  0.00    +0.046 A 
ATOM     16  C   UNL     1       0.037  -2.774  -0.006  0.00  0.00    +0.126 A 
ATOM     17  C   UNL     1       0.037  -2.086   1.194  0.00  0.00    +0.015 A 
ATOM     18  C   UNL     1       0.023  -0.701   1.194  0.00  0.00    +0.012 A 
ATOM     19  C   UNL     1       0.063  -2.812   2.515  0.00  0.00    +0.110 C 
ATOM     20  C   UNL     1      -0.355  -4.270   2.312  0.00  0.00    +0.074 C 
ATOM     21  C   UNL     1       0.436  -4.837   1.126  0.00  0.00    +0.107 C 
ATOM     22  O   UNL     1       0.048  -4.132  -0.053  0.00  0.00    -0.486 OA
ATOM     23  C   UNL     1       0.123  -6.326   0.963  0.00  0.00    +0.055 C 
ATOM     24  C   UNL     1       1.935  -4.648   1.369  0.00  0.00    +0.055 C 
ENDBRANCH   8  19
ENDBRANCH   1   9
BRANCH   4  25
ATOM     25  C   UNL     1      -3.754   2.717   6.789  0.00  0.00    +0.022 C 
BRANCH  25  26
ATOM     26  C   UNL     1      -3.051   3.942   7.315  0.00  0.00    +0.211 A 
ATOM     27  N   UNL     1      -3.035   5.112   6.746  0.00  0.00    -0.192 NA
ATOM     28  C   UNL     1      -2.314   5.976   7.486  0.00  0.00    +0.209 A 
ATOM     29  N   UNL     1      -1.863   5.343   8.544  0.00  0.00    -0.056 NA
ATOM     30  O   UNL     1      -2.342   4.010   8.450  0.00  0.00    -0.340 OA
BRANCH  28  31
ATOM     31  C   UNL     1      -2.070   7.396   7.162  0.00  0.00    +0.060 A 
ATOM     32  C   UNL     1      -1.347   8.329   7.858  0.00  0.00    +0.019 A 
ATOM     33  C   UNL     1      -1.258   9.607   7.355  0.00  0.00    +0.008 A 
ATOM     34  C   UNL     1      -1.887   9.905   6.189  0.00  0.00    +0.046 A 
ATOM     35  S   UNL     1      -2.635   8.342   5.757  0.00  0.00    -0.093 S 
ENDBRANCH  28  31
ENDBRANCH  25  26
ENDBRANCH   4  25
TORSDOF 5
