REMARK  Name = ZINC39934234
REMARK  13 active torsions:
REMARK  status: ('A' for Active; 'I' for Inactive)
REMARK    1  A    between atoms: C_1  and  C_2
REMARK    2  A    between atoms: C_2  and  N_3
REMARK    3  A    between atoms: N_3  and  C_4
REMARK    4  A    between atoms: N_3  and  S_6
REMARK    5  A    between atoms: C_4  and  C_5
REMARK    6  A    between atoms: S_6  and  C_9
REMARK    7  A    between atoms: C_12  and  C_15
REMARK    8  A    between atoms: C_15  and  C_17
REMARK    9  A    between atoms: C_15  and  N_18
REMARK   10  A    between atoms: N_18  and  C_19
REMARK   11  A    between atoms: C_19  and  C_20
REMARK   12  A    between atoms: N_22  and  C_23
REMARK   13  A    between atoms: N_22  and  C_31
REMARK                            x       y       z     vdW  Elec       q    Type
REMARK                         _______ _______ _______ _____ _____    ______ ____
ROOT
ATOM      1  N   UNL     1      -6.234   3.688   3.906  0.00  0.00    +0.389 N 
ATOM      2  H   UNL     1      -6.747   3.428   3.076  0.00  0.00    -0.084 HD
ATOM      3  H   UNL     1      -6.237   2.918   4.558  0.00  0.00    -0.084 HD
ENDROOT
BRANCH   1   4
ATOM      4  C   UNL     1      -4.850   4.017   3.542  0.00  0.00    -0.043 C 
ATOM      5  C   UNL     1      -4.851   5.100   2.460  0.00  0.00    -0.009 C 
BRANCH   4   9
ATOM      6  C   UNL     1      -2.898   0.519   2.058  0.00  0.00    +0.105 A 
ATOM      7  C   UNL     1      -2.216   1.395   2.882  0.00  0.00    +0.029 A 
ATOM      8  C   UNL     1      -2.847   2.526   3.362  0.00  0.00    +0.004 A 
ATOM      9  C   UNL     1      -4.161   2.784   3.018  0.00  0.00    -0.062 A 
ATOM     10  C   UNL     1      -4.843   1.909   2.192  0.00  0.00    +0.004 A 
ATOM     11  C   UNL     1      -4.210   0.779   1.709  0.00  0.00    +0.029 A 
BRANCH   6  12
ATOM     12  S   UNL     1      -2.093  -0.923   1.446  0.00  0.00    +0.061 S 
ATOM     13  O   UNL     1      -3.117  -1.857   1.132  0.00  0.00    -0.153 OA
ATOM     14  O   UNL     1      -1.044  -1.221   2.357  0.00  0.00    -0.153 OA
BRANCH  12  15
ATOM     15  N   UNL     1      -1.372  -0.511   0.013  0.00  0.00    -0.177 NA
BRANCH  15  17
ATOM     16  C   UNL     1      -0.018   1.525   0.012  0.00  0.00    +0.022 C 
ATOM     17  C   UNL     1       0.002  -0.005   0.003  0.00  0.00    +0.106 C 
ENDBRANCH  15  17
BRANCH  15  18
ATOM     18  C   UNL     1      -2.109  -0.654  -1.245  0.00  0.00    +0.106 C 
ATOM     19  C   UNL     1      -1.772  -2.002  -1.884  0.00  0.00    +0.022 C 
ENDBRANCH  15  18
ENDBRANCH  12  15
ENDBRANCH   6  12
ENDBRANCH   4   9
ENDBRANCH   1   4
BRANCH   1  20
ATOM     20  C   UNL     1      -6.869   4.858   4.527  0.00  0.00    +0.016 C 
BRANCH  20  21
ATOM     21  C   UNL     1      -8.290   4.520   4.900  0.00  0.00    +0.199 C 
ATOM     22  O   UNL     1      -8.759   3.445   4.590  0.00  0.00    -0.278 OA
ATOM     23  N   UNL     1      -9.039   5.411   5.579  0.00  0.00    -0.295 N 
BRANCH  23  24
ATOM     24  C   UNL     1     -10.380   5.042   6.038  0.00  0.00    +0.099 C 
ATOM     25  C   UNL     1     -10.293   3.818   6.964  0.00  0.00    +0.046 C 
ATOM     26  C   UNL     1     -11.706   3.229   7.194  0.00  0.00    +0.168 C 
ATOM     27  S   UNL     1     -12.594   3.696   5.653  0.00  0.00    -0.029 S 
ATOM     28  O   UNL     1     -13.666   4.569   5.984  0.00  0.00    -0.174 OA
ATOM     29  O   UNL     1     -12.857   2.523   4.897  0.00  0.00    -0.174 OA
ATOM     30  C   UNL     1     -11.268   4.665   4.818  0.00  0.00    +0.188 C 
ENDBRANCH  23  24
BRANCH  23  31
ATOM     31  C   UNL     1      -8.511   6.750   5.857  0.00  0.00    +0.076 C 
ATOM     32  C   UNL     1      -8.402   6.969   7.380  0.00  0.00    +0.022 C 
ATOM     33  C   UNL     1      -8.791   8.455   7.579  0.00  0.00    +0.002 C 
ATOM     34  C   UNL     1      -9.930   8.651   6.548  0.00  0.00    +0.002 C 
ATOM     35  C   UNL     1      -9.483   7.819   5.328  0.00  0.00    +0.022 C 
ENDBRANCH  23  31
ENDBRANCH  20  21
ENDBRANCH   1  20
TORSDOF 10
