REMARK  Name = ZINC12881609
REMARK  19 active torsions:
REMARK  status: ('A' for Active; 'I' for Inactive)
REMARK    1  A    between atoms: CD1_1  and  CG1_2
REMARK    2  A    between atoms: CG1_2  and  CB_3
REMARK    3  A    between atoms: CB_3  and  CG2_5
REMARK    4  A    between atoms: CB_3  and  CA_6
REMARK    5  A    between atoms: CA_6  and  C_8
REMARK    6  A    between atoms: CA_6  and  N_10
REMARK    7  A    between atoms: C_11  and  C_13
REMARK    8  A    between atoms: C_16  and  C_19
REMARK    9  A    between atoms: C_19  and  N_20
REMARK   10  A    between atoms: C_21  and  C_23
REMARK   11  A    between atoms: C_23  and  C_25
REMARK   12  A    between atoms: C_23  and  N_28
REMARK   13  A    between atoms: C_25  and  C_26
REMARK   14  A    between atoms: C_25  and  C_27
REMARK   15  A    between atoms: C_29  and  O_31
REMARK   16  A    between atoms: O_31  and  C_32
REMARK   17  A    between atoms: C_32  and  C_33
REMARK   18  A    between atoms: C_32  and  C_34
REMARK   19  A    between atoms: C_32  and  C_35
REMARK                            x       y       z     vdW  Elec       q    Type
REMARK                         _______ _______ _______ _____ _____    ______ ____
ROOT
ATOM      1  C   UNK A   0      -1.638   4.352  -1.568  0.00  0.00    +0.075 C 
ATOM      2  C   UNK A   0      -2.262   4.634  -0.200  0.00  0.00    +0.013 C 
ATOM      3  C   UNK A   0      -3.127   3.444   0.221  0.00  0.00    +0.006 C 
ATOM      4  C   UNK A   0      -4.236   3.229  -0.811  0.00  0.00    +0.006 C 
ATOM      5  C   UNK A   0      -3.612   2.947  -2.179  0.00  0.00    +0.006 C 
ATOM      6  C   UNK A   0      -2.747   4.137  -2.600  0.00  0.00    +0.013 C 
ENDROOT
BRANCH   1   8
ATOM      7  N   ILE A   1       0.258   5.902  -1.220  0.00  0.00    -0.302 N 
ATOM      8  C   UNK A   0      -0.787   5.524  -1.983  0.00  0.00    +0.217 C 
ATOM      9  O   UNK A   0      -1.042   6.128  -3.003  0.00  0.00    -0.275 OA
ATOM     10  H   ILE A   1       0.462   5.419  -0.404  0.00  0.00    +0.150 HD
BRANCH   7  11
ATOM     11  CA  ILE A   1       1.086   7.041  -1.623  0.00  0.00    +0.189 C 
BRANCH  11  12
ATOM     12  C   ILE A   1       2.145   6.576  -2.589  0.00  0.00    +0.376 C 
ATOM     13  O   ILE A   1       2.202   5.412  -2.908  0.00  0.00    -0.244 OA
ATOM     14  OXT ILE A   1       3.024   7.455  -3.095  0.00  0.00    -0.244 OA
ENDBRANCH  11  12
BRANCH  11  15
ATOM     15  CB  ILE A   1       1.754   7.649  -0.388  0.00  0.00    +0.017 C 
ATOM     16  CG2 ILE A   1       2.728   6.635   0.216  0.00  0.00    +0.010 C 
BRANCH  15  18
ATOM     17  CD1 ILE A   1       3.081   9.588   0.461  0.00  0.00    +0.004 C 
ATOM     18  CG1 ILE A   1       2.518   8.912  -0.791  0.00  0.00    +0.002 C 
ENDBRANCH  15  18
ENDBRANCH  11  15
ENDBRANCH   7  11
ENDBRANCH   1   8
BRANCH   4  19
ATOM     19  C   UNK A   0      -5.100   2.038  -0.390  0.00  0.00    +0.107 C 
BRANCH  19  20
ATOM     20  N   UNK A   0      -5.792   2.356   0.862  0.00  0.00    -0.314 N 
ATOM     21  C   UNK A   0      -6.614   1.450   1.426  0.00  0.00    +0.234 C 
ATOM     22  O   UNK A   0      -6.848   0.405   0.856  0.00  0.00    -0.274 OA
ATOM     23  H   UNK A   0      -5.657   3.219   1.285  0.00  0.00    +0.149 HD
BRANCH  21  24
ATOM     24  C   UNK A   0      -7.244   1.734   2.766  0.00  0.00    +0.165 C 
BRANCH  24  25
ATOM     25  N   UNK A   0      -8.476   0.952   2.902  0.00  0.00    -0.270 N 
ATOM     26  C   UNK A   0      -9.454   1.375   3.728  0.00  0.00    +0.401 C 
ATOM     27  O   UNK A   0      -9.314   2.404   4.359  0.00  0.00    -0.226 OA
ATOM     28  H   UNK A   0      -8.587   0.131   2.398  0.00  0.00    +0.153 HD
BRANCH  26  29
ATOM     29  O   UNK A   0     -10.585   0.656   3.853  0.00  0.00    -0.445 OA
BRANCH  29  30
ATOM     30  C   UNK A   0     -11.596   1.171   4.760  0.00  0.00    +0.107 C 
ATOM     31  C   UNK A   0     -12.040   2.559   4.294  0.00  0.00    +0.055 C 
ATOM     32  C   UNK A   0     -12.800   0.227   4.770  0.00  0.00    +0.055 C 
ATOM     33  C   UNK A   0     -11.012   1.269   6.171  0.00  0.00    +0.055 C 
ENDBRANCH  29  30
ENDBRANCH  26  29
ENDBRANCH  24  25
BRANCH  24  34
ATOM     34  C   UNK A   0      -6.269   1.348   3.880  0.00  0.00    +0.012 C 
ATOM     35  C   UNK A   0      -6.848   1.768   5.232  0.00  0.00    +0.009 C 
ATOM     36  C   UNK A   0      -6.052  -0.166   3.866  0.00  0.00    +0.009 C 
ENDBRANCH  24  34
ENDBRANCH  21  24
ENDBRANCH  19  20
ENDBRANCH   4  19
TORSDOF 12
