REMARK  Name = ZINC09587929
REMARK  14 active torsions:
REMARK  status: ('A' for Active; 'I' for Inactive)
REMARK    1  A    between atoms: C_1  and  C_2
REMARK    2  A    between atoms: C_6  and  N_9
REMARK    3  A    between atoms: C_7  and  C_8
REMARK    4  A    between atoms: C_10  and  C_12
REMARK    5  A    between atoms: C_12  and  N_62
REMARK    6  A    between atoms: C_13  and  N_62
REMARK    7  A    between atoms: C_14  and  C_15
REMARK    8  A    between atoms: C_14  and  N_62
REMARK    9  A    between atoms: N_17  and  C_18
REMARK   10  A    between atoms: C_19  and  C_31
REMARK   11  A    between atoms: C_20  and  C_30
REMARK   12  A    between atoms: C_21  and  C_29
REMARK   13  A    between atoms: N_22  and  C_23
REMARK   14  A    between atoms: C_23  and  C_24
REMARK                            x       y       z     vdW  Elec       q    Type
REMARK                         _______ _______ _______ _____ _____    ______ ____
ROOT
ATOM      1  C   UNL     1       3.944   2.331  -0.345  0.00  0.00    +0.202 C 
ATOM      2  O   UNL     1       3.184   3.276  -0.352  0.00  0.00    -0.278 OA
ATOM      3  N   UNL     1       3.464   1.081  -0.195  0.00  0.00    -0.272 N 
ATOM      4  H   UNL     1       4.074   0.327  -0.164  0.00  0.00    +0.156 HD
ENDROOT
BRANCH   3   5
ATOM      5  C   UNL     1       2.097   0.872  -0.086  0.00  0.00    +0.124 A 
ATOM      6  C   UNL     1       1.112   1.502  -0.833  0.00  0.00    +0.095 A 
ATOM      7  C   UNL     1      -0.166   0.957  -0.359  0.00  0.00    -0.011 A 
ATOM      8  C   UNL     1       0.128   0.069   0.606  0.00  0.00    +0.022 A 
ATOM      9  N   UNL     1       1.486   0.016   0.773  0.00  0.00    -0.324 N 
ATOM     10  C   UNL     1      -0.879  -0.736   1.386  0.00  0.00    +0.064 C 
ATOM     11  C   UNL     1      -1.541   1.321  -0.858  0.00  0.00    +0.047 C 
BRANCH   6  12
ATOM     12  C   UNL     1       1.302   2.484  -1.858  0.00  0.00    +0.103 C 
ATOM     13  N   UNL     1       1.454   3.263  -2.671  0.00  0.00    -0.191 NA
ENDBRANCH   6  12
BRANCH   9  14
ATOM     14  C   UNL     1       2.179  -0.842   1.738  0.00  0.00    +0.197 C 
BRANCH  14  15
ATOM     15  C   UNL     1       2.591  -2.125   1.064  0.00  0.00    +0.124 A 
ATOM     16  C   UNL     1       3.756  -2.340   0.427  0.00  0.00    +0.046 A 
ATOM     17  C   UNL     1       3.724  -3.671  -0.048  0.00  0.00    +0.041 A 
ATOM     18  C   UNL     1       2.537  -4.187   0.320  0.00  0.00    +0.195 A 
ATOM     19  O   UNL     1       1.855  -3.247   0.993  0.00  0.00    -0.466 OA
ENDBRANCH  14  15
ENDBRANCH   9  14
ENDBRANCH   3   5
BRANCH   1  20
ATOM     20  C   UNL     1       5.426   2.555  -0.505  0.00  0.00    +0.019 C 
BRANCH  20  22
ATOM     21  C   UNL     1       5.123   4.508  -1.903  0.00  0.00    -0.095 C 
ATOM     22  N   UNL     1       5.679   4.006  -0.628  0.00  0.00    +0.389 N 
ATOM     23  H   UNL     1       5.219   4.492   0.151  0.00  0.00    -0.081 HD
BRANCH  22  24
ATOM     24  C   UNL     1       7.132   4.272  -0.571  0.00  0.00    +0.019 C 
BRANCH  24  26
ATOM     25  N   UNL     1       8.601   6.254  -0.393  0.00  0.00    -0.287 N 
ATOM     26  C   UNL     1       7.349   5.760  -0.476  0.00  0.00    +0.201 C 
ATOM     27  O   UNL     1       6.399   6.513  -0.475  0.00  0.00    -0.278 OA
ATOM     28  H   UNL     1       9.363   5.658  -0.464  0.00  0.00    +0.155 HD
BRANCH  25  34
ATOM     29  C   UNL     1      11.238   9.918   1.556  0.00  0.00    +0.044 C 
ATOM     30  C   UNL     1      10.070   9.430   0.737  0.00  0.00    -0.046 A 
ATOM     31  C   UNL     1       9.195  10.339   0.172  0.00  0.00    +0.004 A 
ATOM     32  C   UNL     1       8.123   9.895  -0.580  0.00  0.00    +0.002 A 
ATOM     33  C   UNL     1       7.923   8.541  -0.769  0.00  0.00    +0.023 A 
ATOM     34  C   UNL     1       8.800   7.626  -0.203  0.00  0.00    +0.036 A 
ATOM     35  C   UNL     1       9.873   8.075   0.556  0.00  0.00    -0.026 A 
ATOM     36  C   UNL     1      10.824   7.085   1.178  0.00  0.00    +0.046 C 
ENDBRANCH  25  34
ENDBRANCH  24  26
ENDBRANCH  22  24
ENDBRANCH  20  22
ENDBRANCH   1  20
TORSDOF 9
