REMARK  Name = ZINC58942636
REMARK  8 active torsions:
REMARK  status: ('A' for Active; 'I' for Inactive)
REMARK    1  A    between atoms: C_1  and  C_2
REMARK    2  A    between atoms: C_5  and  N_9
REMARK    3  A    between atoms: C_6  and  C_8
REMARK    4  A    between atoms: C_10  and  C_12
REMARK    5  A    between atoms: N_17  and  C_28
REMARK    6  A    between atoms: N_19  and  C_20
REMARK    7  A    between atoms: C_28  and  C_29
REMARK    8  A    between atoms: C_29  and  C_30
REMARK                            x       y       z     vdW  Elec       q    Type
REMARK                         _______ _______ _______ _____ _____    ______ ____
ROOT
ATOM      1  C   UNL     1      -0.134  -6.343  -1.187  0.00  0.00    +0.149 C 
ATOM      2  C   UNL     1      -0.929  -6.811  -2.407  0.00  0.00    +0.120 C 
ATOM      3  C   UNL     1      -0.882  -8.290  -2.584  0.00  0.00    +0.223 C 
ATOM      4  O   UNL     1      -1.839  -8.784  -3.143  0.00  0.00    -0.275 OA
ATOM      5  N   UNL     1       0.066  -9.137  -2.212  0.00  0.00    -0.250 N 
ATOM      6  C   UNL     1       1.161  -8.790  -1.441  0.00  0.00    +0.164 C 
ATOM      7  N   UNL     1       1.891  -9.701  -0.843  0.00  0.00    -0.226 NA
ATOM      8  S   UNL     1       1.537  -7.064  -1.293  0.00  0.00    -0.077 S 
ENDROOT
BRANCH   7   9
ATOM      9  C   UNL     1       2.970  -9.326  -0.086  0.00  0.00    +0.067 A 
ATOM     10  C   UNL     1       3.859  -8.361  -0.563  0.00  0.00    +0.030 A 
ATOM     11  C   UNL     1       4.944  -7.987   0.203  0.00  0.00    +0.040 A 
ATOM     12  C   UNL     1       5.152  -8.568   1.444  0.00  0.00    +0.124 A 
ATOM     13  C   UNL     1       4.273  -9.526   1.922  0.00  0.00    +0.040 A 
ATOM     14  C   UNL     1       3.182  -9.903   1.167  0.00  0.00    +0.030 A 
ATOM     15  F   UNL     1       6.216  -8.198   2.189  0.00  0.00    -0.205 F 
ENDBRANCH   7   9
BRANCH   1  17
ATOM     16  N   UNL     1       0.059  -4.170  -0.021  0.00  0.00    -0.284 N 
ATOM     17  C   UNL     1      -0.040  -4.839  -1.187  0.00  0.00    +0.231 C 
ATOM     18  O   UNL     1      -0.054  -4.230  -2.236  0.00  0.00    -0.274 OA
ATOM     19  H   UNL     1       0.135  -4.658   0.814  0.00  0.00    +0.155 HD
BRANCH  16  24
ATOM     20  C   UNL     1       0.025   1.503   0.005  0.00  0.00    +0.044 C 
ATOM     21  C   UNL     1       0.034  -0.004  -0.002  0.00  0.00    -0.050 A 
ATOM     22  C   UNL     1       0.632  -0.685  -1.046  0.00  0.00    +0.005 A 
ATOM     23  C   UNL     1       0.641  -2.066  -1.055  0.00  0.00    +0.024 A 
ATOM     24  C   UNL     1       0.051  -2.771  -0.014  0.00  0.00    +0.036 A 
ATOM     25  C   UNL     1      -0.548  -2.083   1.033  0.00  0.00    -0.029 A 
ATOM     26  C   UNL     1      -0.550  -0.702   1.039  0.00  0.00    +0.008 A 
ATOM     27  C   UNL     1      -1.190  -2.843   2.165  0.00  0.00    +0.045 C 
ENDBRANCH  16  24
ENDBRANCH   1  17
BRANCH   5  28
ATOM     28  C   UNL     1      -0.054 -10.532  -2.644  0.00  0.00    +0.120 C 
BRANCH  28  29
ATOM     29  C   UNL     1       0.649 -10.710  -3.991  0.00  0.00    +0.054 C 
BRANCH  29  30
ATOM     30  C   UNL     1       0.526 -12.145  -4.436  0.00  0.00    -0.042 A 
ATOM     31  C   UNL     1       1.488 -13.066  -4.067  0.00  0.00    +0.007 A 
ATOM     32  C   UNL     1       1.380 -14.383  -4.472  0.00  0.00    +0.050 A 
ATOM     33  C   UNL     1       0.305 -14.783  -5.250  0.00  0.00    +0.166 A 
ATOM     34  C   UNL     1      -0.664 -13.855  -5.622  0.00  0.00    +0.166 A 
ATOM     35  C   UNL     1      -0.552 -12.538  -5.207  0.00  0.00    +0.053 A 
ATOM     36  O   UNL     1      -1.608 -14.489  -6.378  0.00  0.00    -0.453 OA
ATOM     37  C   UNL     1      -0.995 -15.720  -6.805  0.00  0.00    +0.466 C 
ATOM     38  O   UNL     1      -0.031 -15.999  -5.773  0.00  0.00    -0.453 OA
ENDBRANCH  29  30
ENDBRANCH  28  29
ENDBRANCH   5  28
TORSDOF 6
