REMARK  Name = ZINC58942607
REMARK  6 active torsions:
REMARK  status: ('A' for Active; 'I' for Inactive)
REMARK    1  A    between atoms: C_4  and  N_7
REMARK    2  A    between atoms: C_8  and  C_10
REMARK    3  A    between atoms: N_15  and  C_26
REMARK    4  A    between atoms: N_17  and  C_18
REMARK    5  A    between atoms: C_26  and  C_27
REMARK    6  A    between atoms: C_27  and  C_28
REMARK                            x       y       z     vdW  Elec       q    Type
REMARK                         _______ _______ _______ _____ _____    ______ ____
ROOT
ATOM      1  C   UNL     1       4.962  -2.721   0.153  0.00  0.00    +0.149 C 
ATOM      2  C   UNL     1       4.781  -4.019   0.943  0.00  0.00    +0.120 C 
ATOM      3  C   UNL     1       5.991  -4.886   0.897  0.00  0.00    +0.223 C 
ATOM      4  O   UNL     1       6.150  -5.617   1.852  0.00  0.00    -0.275 OA
ATOM      5  N   UNL     1       6.916  -4.966  -0.047  0.00  0.00    -0.250 N 
ATOM      6  C   UNL     1       6.988  -4.120  -1.139  0.00  0.00    +0.164 C 
ATOM      7  N   UNL     1       8.078  -4.033  -1.865  0.00  0.00    -0.226 NA
ATOM      8  S   UNL     1       5.549  -3.156  -1.517  0.00  0.00    -0.077 S 
ENDROOT
BRANCH   7   9
ATOM      9  C   UNL     1       8.118  -3.185  -2.941  0.00  0.00    +0.067 A 
ATOM     10  C   UNL     1       7.046  -3.134  -3.834  0.00  0.00    +0.030 A 
ATOM     11  C   UNL     1       7.092  -2.279  -4.915  0.00  0.00    +0.040 A 
ATOM     12  C   UNL     1       8.200  -1.471  -5.116  0.00  0.00    +0.124 A 
ATOM     13  C   UNL     1       9.267  -1.517  -4.234  0.00  0.00    +0.040 A 
ATOM     14  C   UNL     1       9.229  -2.365  -3.146  0.00  0.00    +0.030 A 
ATOM     15  F   UNL     1       8.240  -0.635  -6.177  0.00  0.00    -0.205 F 
ENDBRANCH   7   9
BRANCH   1  17
ATOM     16  N   UNL     1       3.622  -0.651  -0.037  0.00  0.00    -0.285 N 
ATOM     17  C   UNL     1       3.645  -1.995   0.057  0.00  0.00    +0.231 C 
ATOM     18  O   UNL     1       2.606  -2.620   0.064  0.00  0.00    -0.274 OA
ATOM     19  H   UNL     1       4.452  -0.156  -0.121  0.00  0.00    +0.155 HD
BRANCH  16  23
ATOM     20  C   UNL     1      -0.015   1.381   0.029  0.00  0.00    +0.000 A 
ATOM     21  C   UNL     1       0.140   0.218   0.763  0.00  0.00    +0.002 A 
ATOM     22  C   UNL     1       1.344  -0.457   0.743  0.00  0.00    +0.023 A 
ATOM     23  C   UNL     1       2.400   0.031  -0.015  0.00  0.00    +0.033 A 
ATOM     24  C   UNL     1       2.241   1.198  -0.751  0.00  0.00    +0.023 A 
ATOM     25  C   UNL     1       1.034   1.870  -0.727  0.00  0.00    +0.002 A 
ENDBRANCH  16  23
ENDBRANCH   1  17
BRANCH   5  26
ATOM     26  C   UNL     1       7.929  -6.018   0.072  0.00  0.00    +0.120 C 
BRANCH  26  27
ATOM     27  C   UNL     1       7.438  -7.281  -0.637  0.00  0.00    +0.054 C 
BRANCH  27  28
ATOM     28  C   UNL     1       8.480  -8.363  -0.514  0.00  0.00    -0.042 A 
ATOM     29  C   UNL     1       9.468  -8.481  -1.473  0.00  0.00    +0.007 A 
ATOM     30  C   UNL     1      10.427  -9.472  -1.364  0.00  0.00    +0.050 A 
ATOM     31  C   UNL     1      10.398 -10.350  -0.293  0.00  0.00    +0.166 A 
ATOM     32  C   UNL     1       9.402 -10.231   0.673  0.00  0.00    +0.166 A 
ATOM     33  C   UNL     1       8.448  -9.232   0.561  0.00  0.00    +0.053 A 
ATOM     34  O   UNL     1       9.589 -11.202   1.614  0.00  0.00    -0.453 OA
ATOM     35  C   UNL     1      10.463 -12.168   1.001  0.00  0.00    +0.466 C 
ATOM     36  O   UNL     1      11.209 -11.395   0.043  0.00  0.00    -0.453 OA
ENDBRANCH  27  28
ENDBRANCH  26  27
ENDBRANCH   5  26
TORSDOF 6
