REMARK  Name = ZINC41678733
REMARK  3 active torsions:
REMARK  status: ('A' for Active; 'I' for Inactive)
REMARK    1  A    between atoms: C_5  and  C_6
REMARK    2  A    between atoms: C_6  and  C_8
REMARK    3  A    between atoms: C_6  and  N_13
REMARK                            x       y       z     vdW  Elec       q    Type
REMARK                         _______ _______ _______ _____ _____    ______ ____
ROOT
ATOM      1  C   UNL     1      -1.156  -0.969   0.008  0.00  0.00    +0.036 C 
ENDROOT
BRANCH   1   6
ATOM      2  C   UNL     1      -0.016   1.351   0.009  0.00  0.00    +0.025 A 
ATOM      3  C   UNL     1       1.184   2.038   0.002  0.00  0.00    +0.025 A 
ATOM      4  C   UNL     1       2.343   1.335  -0.013  0.00  0.00    +0.060 A 
ATOM      5  S   UNL     1       1.753  -0.350  -0.017  0.00  0.00    -0.102 S 
ATOM      6  C   UNL     1       0.002  -0.004   0.002  0.00  0.00    -0.016 A 
ATOM      7 BR   UNL     1       1.208   3.929   0.011  0.00  0.00    -0.050 Br
ENDBRANCH   1   6
BRANCH   1   8
ATOM      8  C   UNL     1      -1.397  -1.472  -1.391  0.00  0.00    +0.167 A 
ATOM      9  N   UNL     1      -0.669  -2.365  -2.047  0.00  0.00    -0.113 NA
ATOM     10  N   UNL     1      -1.203  -2.524  -3.210  0.00  0.00    -0.021 NA
ATOM     11  N   UNL     1      -2.238  -1.764  -3.304  0.00  0.00    -0.021 NA
ATOM     12  N   UNL     1      -2.382  -1.113  -2.201  0.00  0.00    -0.113 NA
ENDBRANCH   1   8
BRANCH   1  13
ATOM     13  N   UNL     1      -0.844  -2.102   0.889  0.00  0.00    +0.388 N 
ATOM     14  H   UNL     1      -1.619  -2.748   0.894  0.00  0.00    -0.089 HD
ATOM     15  H   UNL     1      -0.017  -2.572   0.553  0.00  0.00    -0.089 HD
ATOM     16  H   UNL     1      -0.682  -1.765   1.827  0.00  0.00    -0.089 HD
ENDBRANCH   1  13
TORSDOF 3
