REMARK  Name = ZINC39503805
REMARK  7 active torsions:
REMARK  status: ('A' for Active; 'I' for Inactive)
REMARK    1  A    between atoms: C_4  and  O_7
REMARK    2  A    between atoms: O_7  and  S_8
REMARK    3  A    between atoms: S_8  and  C_11
REMARK    4  A    between atoms: C_17  and  S_20
REMARK    5  A    between atoms: S_20  and  C_23
REMARK    6  A    between atoms: N_29  and  C_31
REMARK    7  A    between atoms: C_36  and  O_37
REMARK                            x       y       z     vdW  Elec       q    Type
REMARK                         _______ _______ _______ _____ _____    ______ ____
ROOT
ATOM      1  C   UNL     1       3.358  -1.699   2.442  0.00  0.00    +0.190 C 
ATOM      2  C   UNL     1       3.222  -1.991   3.962  0.00  0.00    +0.057 C 
ATOM      3  C   UNL     1       1.805  -2.573   4.067  0.00  0.00    +0.039 C 
ATOM      4  C   UNL     1       1.861  -4.111   4.145  0.00  0.00    +0.028 C 
ATOM      5  C   UNL     1       0.520  -4.465   4.839  0.00  0.00    +0.029 C 
ATOM      6  C   UNL     1       0.317  -3.338   5.873  0.00  0.00    +0.138 C 
ATOM      7  C   UNL     1       1.130  -2.130   5.372  0.00  0.00    +0.052 C 
ATOM      8  N   UNL     1       1.044  -2.136   2.899  0.00  0.00    -0.319 N 
ATOM      9  C   UNL     1       1.914  -1.275   2.072  0.00  0.00    +0.135 C 
ENDROOT
BRANCH   8  10
ATOM     10  C   UNL     1      -0.283  -2.476   2.611  0.00  0.00    +0.072 A 
ATOM     11  C   UNL     1      -0.598  -3.765   2.204  0.00  0.00    +0.027 A 
ATOM     12  C   UNL     1      -1.909  -4.098   1.921  0.00  0.00    +0.002 A 
ATOM     13  C   UNL     1      -2.909  -3.151   2.042  0.00  0.00    +0.004 A 
ATOM     14  C   UNL     1      -2.602  -1.865   2.447  0.00  0.00    +0.047 A 
ATOM     15  C   UNL     1      -1.292  -1.524   2.737  0.00  0.00    +0.138 A 
BRANCH  15  16
ATOM     16  O   UNL     1      -0.989  -0.260   3.140  0.00  0.00    -0.505 OA
ATOM     17  H   UNL     1      -0.781   0.345   2.416  0.00  0.00    +0.292 HD
ENDBRANCH  15  16
ENDBRANCH   8  10
BRANCH   1  18
ATOM     18  S   UNL     1       4.529  -0.346   2.143  0.00  0.00    +0.125 S 
ATOM     19  O   UNL     1       5.862  -0.801   2.333  0.00  0.00    -0.136 OA
ATOM     20  O   UNL     1       4.074   0.844   2.773  0.00  0.00    -0.136 OA
BRANCH  18  21
ATOM     21  O   UNL     1       4.425  -0.060   0.652  0.00  0.00    -0.346 OA
BRANCH  21  25
ATOM     22  C   UNL     1       6.350  -2.826  -1.727  0.00  0.00    +0.000 A 
ATOM     23  C   UNL     1       5.019  -3.007  -1.397  0.00  0.00    +0.004 A 
ATOM     24  C   UNL     1       4.372  -2.082  -0.600  0.00  0.00    +0.048 A 
ATOM     25  C   UNL     1       5.059  -0.971  -0.131  0.00  0.00    +0.156 A 
ATOM     26  C   UNL     1       6.394  -0.793  -0.464  0.00  0.00    +0.048 A 
ATOM     27  C   UNL     1       7.036  -1.720  -1.261  0.00  0.00    +0.004 A 
ENDBRANCH  21  25
ENDBRANCH  18  21
ENDBRANCH   1  18
BRANCH   6  28
ATOM     28  S   UNL     1      -1.441  -2.904   5.981  0.00  0.00    -0.000 S 
ATOM     29  O   UNL     1      -1.617  -1.786   6.841  0.00  0.00    -0.169 OA
ATOM     30  O   UNL     1      -2.030  -2.923   4.688  0.00  0.00    -0.169 OA
BRANCH  28  31
ATOM     31  C   UNL     1      -2.189  -4.251   6.836  0.00  0.00    +0.088 A 
ATOM     32  C   UNL     1      -2.677  -5.333   6.128  0.00  0.00    +0.027 A 
ATOM     33  C   UNL     1      -3.264  -6.390   6.798  0.00  0.00    +0.002 A 
ATOM     34  C   UNL     1      -3.362  -6.365   8.177  0.00  0.00    +0.000 A 
ATOM     35  C   UNL     1      -2.873  -5.283   8.885  0.00  0.00    +0.002 A 
ATOM     36  C   UNL     1      -2.282  -4.228   8.215  0.00  0.00    +0.027 A 
ENDBRANCH  28  31
ENDBRANCH   6  28
TORSDOF 7
