REMARK  Name = ZINC13694529
REMARK  6 active torsions:
REMARK  status: ('A' for Active; 'I' for Inactive)
REMARK    1  A    between atoms: C_1  and  C_2
REMARK    2  A    between atoms: C_5  and  N_8
REMARK    3  A    between atoms: N_16  and  C_19
REMARK    4  A    between atoms: C_19  and  C_20
REMARK    5  A    between atoms: N_22  and  C_23
REMARK    6  A    between atoms: C_28  and  C_29
REMARK                            x       y       z     vdW  Elec       q    Type
REMARK                         _______ _______ _______ _____ _____    ______ ____
ROOT
ATOM      1  N   UNL     1       6.265  -1.798   1.927  0.00  0.00    -0.289 N 
ATOM      2  C   UNL     1       7.382  -2.491   1.509  0.00  0.00    +0.112 A 
ATOM      3  C   UNL     1       7.690  -2.034   0.284  0.00  0.00    +0.103 A 
ATOM      4  N   UNL     1       6.793  -1.093  -0.056  0.00  0.00    -0.334 N 
ATOM      5  C   UNL     1       5.935  -0.936   0.924  0.00  0.00    +0.181 A 
ATOM      6  N   UNL     1       4.870  -0.050   0.934  0.00  0.00    -0.300 N 
ATOM      7  C   UNL     1       4.816   0.723  -0.314  0.00  0.00    +0.123 C 
ATOM      8  C   UNL     1       3.678   1.743  -0.230  0.00  0.00    +0.104 C 
ATOM      9  N   UNL     1       2.409   1.039   0.006  0.00  0.00    -0.291 NA
ATOM     10  C   UNL     1       2.464   0.266   1.254  0.00  0.00    +0.104 C 
ATOM     11  C   UNL     1       3.602  -0.754   1.170  0.00  0.00    +0.123 C 
ATOM     12  H   UNL     1       6.864  -0.593  -1.034  0.00  0.00    +0.168 HD
ENDROOT
BRANCH   1  17
ATOM     13  C   UNL     1       3.561  -2.416   6.878  0.00  0.00    +0.044 C 
ATOM     14  C   UNL     1       4.279  -2.252   5.564  0.00  0.00    -0.050 A 
ATOM     15  C   UNL     1       4.573  -3.363   4.795  0.00  0.00    +0.005 A 
ATOM     16  C   UNL     1       5.231  -3.216   3.589  0.00  0.00    +0.026 A 
ATOM     17  C   UNL     1       5.597  -1.951   3.150  0.00  0.00    +0.049 A 
ATOM     18  C   UNL     1       5.305  -0.838   3.926  0.00  0.00    +0.026 A 
ATOM     19  C   UNL     1       4.643  -0.991   5.129  0.00  0.00    +0.005 A 
ENDBRANCH   1  17
BRANCH   9  20
ATOM     20  C   UNL     1       1.280   1.979   0.017  0.00  0.00    +0.180 C 
BRANCH  20  21
ATOM     21  C   UNL     1      -0.015   1.208   0.014  0.00  0.00    +0.231 C 
ATOM     22  O   UNL     1       0.001  -0.004   0.004  0.00  0.00    -0.274 OA
ATOM     23  N   UNL     1      -1.191   1.867   0.018  0.00  0.00    -0.284 N 
ATOM     24  H   UNL     1      -1.207   2.963   0.102  0.00  0.00    +0.155 HD
BRANCH  23  25
ATOM     25  C   UNL     1      -2.391   1.155  -0.086  0.00  0.00    +0.045 A 
ATOM     26  C   UNL     1      -2.510  -0.099   0.499  0.00  0.00    +0.024 A 
ATOM     27  C   UNL     1      -3.697  -0.796   0.399  0.00  0.00    +0.002 A 
ATOM     28  C   UNL     1      -4.764  -0.252  -0.292  0.00  0.00    +0.001 A 
ATOM     29  C   UNL     1      -4.648   0.994  -0.880  0.00  0.00    +0.014 A 
ATOM     30  C   UNL     1      -3.464   1.699  -0.779  0.00  0.00    +0.076 A 
BRANCH  30  31
ATOM     31  C   UNL     1      -3.338   3.057  -1.421  0.00  0.00    +0.419 C 
ATOM     32  F   UNL     1      -4.540   3.386  -2.055  0.00  0.00    -0.166 F 
ATOM     33  F   UNL     1      -3.051   4.011  -0.439  0.00  0.00    -0.166 F 
ATOM     34  F   UNL     1      -2.305   3.032  -2.364  0.00  0.00    -0.166 F 
ENDBRANCH  30  31
ENDBRANCH  23  25
ENDBRANCH  20  21
ENDBRANCH   9  20
TORSDOF 5
