REMARK  Name = ZINC36346049
REMARK  16 active torsions:
REMARK  status: ('A' for Active; 'I' for Inactive)
REMARK    1  A    between atoms: C_1  and  C_2
REMARK    2  A    between atoms: C_2  and  C_3
REMARK    3  A    between atoms: C_3  and  N_4
REMARK    4  A    between atoms: N_4  and  C_5
REMARK    5  A    between atoms: N_4  and  C_26
REMARK    6  A    between atoms: C_5  and  C_6
REMARK    7  A    between atoms: C_7  and  C_25
REMARK    8  A    between atoms: N_9  and  C_19
REMARK    9  A    between atoms: C_10  and  O_11
REMARK   10  A    between atoms: O_11  and  C_12
REMARK   11  A    between atoms: C_26  and  C_27
REMARK   12  A    between atoms: C_27  and  C_29
REMARK   13  A    between atoms: C_27  and  O_38
REMARK   14  A    between atoms: C_29  and  O_30
REMARK   15  A    between atoms: O_30  and  C_31
REMARK   16  A    between atoms: C_31  and  C_32
REMARK                            x       y       z     vdW  Elec       q    Type
REMARK                         _______ _______ _______ _____ _____    ______ ____
ROOT
ATOM      1  C   UNL     1       2.936  -1.713  -2.220  0.00  0.00    +0.021 A 
ATOM      2  C   UNL     1       3.168  -0.356  -2.463  0.00  0.00    +0.065 A 
ATOM      3  N   UNL     1       4.282  -0.013  -1.868  0.00  0.00    -0.168 NA
ATOM      4  N   UNL     1       4.803  -1.142  -1.223  0.00  0.00    -0.200 N 
ATOM      5  C   UNL     1       3.954  -2.179  -1.449  0.00  0.00    +0.225 A 
ATOM      6  C   UNL     1       2.284   0.558  -3.272  0.00  0.00    +0.068 C 
ENDROOT
BRANCH   4   7
ATOM      7  C   UNL     1       5.987  -1.192  -0.473  0.00  0.00    +0.069 A 
ATOM      8  C   UNL     1       6.037  -1.933   0.700  0.00  0.00    +0.028 A 
ATOM      9  C   UNL     1       7.205  -1.980   1.436  0.00  0.00    +0.002 A 
ATOM     10  C   UNL     1       8.323  -1.290   1.006  0.00  0.00    +0.000 A 
ATOM     11  C   UNL     1       8.276  -0.551  -0.162  0.00  0.00    +0.002 A 
ATOM     12  C   UNL     1       7.113  -0.505  -0.906  0.00  0.00    +0.028 A 
ENDBRANCH   4   7
BRANCH   1  13
ATOM     13  C   UNL     1       1.762  -2.515  -2.720  0.00  0.00    -0.036 C 
BRANCH  13  14
ATOM     14  N   UNL     1       0.750  -2.616  -1.660  0.00  0.00    +0.384 N 
ATOM     15  H   UNL     1       1.175  -2.989  -0.824  0.00  0.00    -0.081 HD
BRANCH  14  16
ATOM     16  C   UNL     1       0.203  -1.282  -1.377  0.00  0.00    -0.079 C 
BRANCH  16  18
ATOM     17  C   UNL     1      -1.049   0.652  -2.344  0.00  0.00    +0.002 C 
ATOM     18  C   UNL     1      -0.565  -0.777  -2.600  0.00  0.00    -0.022 C 
ENDBRANCH  16  18
ENDBRANCH  14  16
BRANCH  14  19
ATOM     19  C   UNL     1      -0.332  -3.506  -2.099  0.00  0.00    -0.044 C 
BRANCH  19  20
ATOM     20  C   UNL     1      -1.329  -3.699  -0.955  0.00  0.00    +0.124 C 
BRANCH  20  21
ATOM     21  O   UNL     1      -0.662  -4.285   0.165  0.00  0.00    -0.391 OA
ATOM     22  H   UNL     1      -0.269  -5.149  -0.019  0.00  0.00    +0.210 HD
ENDBRANCH  20  21
BRANCH  20  23
ATOM     23  C   UNL     1      -2.460  -4.622  -1.414  0.00  0.00    +0.189 C 
BRANCH  23  24
ATOM     24  O   UNL     1      -3.450  -4.709  -0.388  0.00  0.00    -0.373 OA
BRANCH  24  25
ATOM     25  C   UNL     1      -4.557  -5.551  -0.717  0.00  0.00    +0.195 C 
BRANCH  25  26
ATOM     26  C   UNL     1      -5.534  -5.570   0.430  0.00  0.00    -0.022 A 
ATOM     27  C   UNL     1      -5.405  -6.513   1.432  0.00  0.00    +0.006 A 
ATOM     28  C   UNL     1      -6.301  -6.530   2.485  0.00  0.00    +0.000 A 
ATOM     29  C   UNL     1      -7.325  -5.603   2.535  0.00  0.00    +0.000 A 
ATOM     30  C   UNL     1      -7.453  -4.659   1.534  0.00  0.00    +0.000 A 
ATOM     31  C   UNL     1      -6.555  -4.640   0.483  0.00  0.00    +0.006 A 
ENDBRANCH  25  26
ENDBRANCH  24  25
ENDBRANCH  23  24
ENDBRANCH  20  23
ENDBRANCH  19  20
ENDBRANCH  14  19
ENDBRANCH  13  14
ENDBRANCH   1  13
BRANCH   5  32
ATOM     32  O   UNL     1       4.097  -3.449  -0.991  0.00  0.00    -0.435 OA
BRANCH  32  33
ATOM     33  C   UNL     1       4.863  -4.307  -1.716  0.00  0.00    +0.165 A 
ATOM     34  C   UNL     1       5.556  -3.850  -2.827  0.00  0.00    +0.049 A 
ATOM     35  C   UNL     1       6.333  -4.723  -3.563  0.00  0.00    +0.004 A 
ATOM     36  C   UNL     1       6.422  -6.053  -3.193  0.00  0.00    +0.003 A 
ATOM     37  C   UNL     1       5.733  -6.513  -2.086  0.00  0.00    +0.042 A 
ATOM     38  C   UNL     1       4.957  -5.642  -1.343  0.00  0.00    +0.165 A 
ATOM     39  F   UNL     1       4.287  -6.090  -0.258  0.00  0.00    -0.202 F 
ENDBRANCH  32  33
ENDBRANCH   5  32
TORSDOF 14
