REMARK  Name = ZINC01375397
REMARK  13 active torsions:
REMARK  status: ('A' for Active; 'I' for Inactive)
REMARK    1  A    between atoms: C_1  and  C_2
REMARK    2  A    between atoms: C_2  and  C_3
REMARK    3  A    between atoms: C_3  and  C_5
REMARK    4  A    between atoms: C_3  and  N_18
REMARK    5  A    between atoms: N_9  and  C_10
REMARK    6  A    between atoms: C_10  and  C_11
REMARK    7  A    between atoms: C_11  and  C_12
REMARK    8  A    between atoms: N_18  and  C_19
REMARK    9  A    between atoms: N_18  and  C_25
REMARK   10  A    between atoms: C_19  and  C_20
REMARK   11  A    between atoms: C_25  and  C_26
REMARK   12  A    between atoms: C_29  and  C_39
REMARK   13  A    between atoms: C_31  and  C_38
REMARK                            x       y       z     vdW  Elec       q    Type
REMARK                         _______ _______ _______ _____ _____    ______ ____
ROOT
ATOM      1  N   UNL     1       1.453  -0.252  -1.117  0.00  0.00    -0.284 NA
ENDROOT
BRANCH   1   2
ATOM      2  C   UNL     1       0.006  -0.461  -0.979  0.00  0.00    +0.127 C 
BRANCH   2   3
ATOM      3  C   UNL     1      -0.564   0.576  -0.044  0.00  0.00    +0.168 A 
ATOM      4  N   UNL     1      -0.287   1.857  -0.035  0.00  0.00    -0.112 NA
ATOM      5  N   UNL     1      -0.974   2.405   0.908  0.00  0.00    -0.023 NA
ATOM      6  N   UNL     1      -1.681   1.507   1.500  0.00  0.00    -0.044 NA
ATOM      7  N   UNL     1      -1.460   0.366   0.938  0.00  0.00    -0.227 N 
BRANCH   7   8
ATOM      8  C   UNL     1      -2.067  -0.916   1.303  0.00  0.00    +0.152 C 
BRANCH   8   9
ATOM      9  C   UNL     1      -1.339  -1.498   2.516  0.00  0.00    +0.058 C 
BRANCH   9  10
ATOM     10  C   UNL     1      -2.060  -2.734   2.989  0.00  0.00    -0.046 A 
ATOM     11  C   UNL     1      -3.159  -2.617   3.819  0.00  0.00    +0.004 A 
ATOM     12  C   UNL     1      -3.821  -3.751   4.253  0.00  0.00    +0.000 A 
ATOM     13  C   UNL     1      -3.383  -5.001   3.857  0.00  0.00    +0.000 A 
ATOM     14  C   UNL     1      -2.284  -5.118   3.027  0.00  0.00    +0.000 A 
ATOM     15  C   UNL     1      -1.625  -3.984   2.589  0.00  0.00    +0.004 A 
ENDBRANCH   9  10
ENDBRANCH   8   9
ENDBRANCH   7   8
ENDBRANCH   2   3
BRANCH   2  17
ATOM     16  C   UNL     1      -0.098  -1.399  -3.292  0.00  0.00    +0.006 C 
ATOM     17  C   UNL     1      -0.661  -0.333  -2.350  0.00  0.00    +0.023 C 
ENDBRANCH   2  17
ENDBRANCH   1   2
BRANCH   1  18
ATOM     18  C   UNL     1       2.168  -0.711   0.082  0.00  0.00    +0.127 C 
BRANCH  18  19
ATOM     19  C   UNL     1       2.341  -2.207   0.022  0.00  0.00    +0.004 A 
ATOM     20  C   UNL     1       3.409  -2.926  -0.400  0.00  0.00    +0.012 A 
ATOM     21  C   UNL     1       3.344  -4.307  -0.364  0.00  0.00    +0.008 A 
ATOM     22  C   UNL     1       2.213  -4.900   0.092  0.00  0.00    +0.045 A 
ATOM     23  S   UNL     1       1.195  -3.490   0.497  0.00  0.00    -0.100 S 
ENDBRANCH  18  19
ENDBRANCH   1  18
BRANCH   1  24
ATOM     24  C   UNL     1       1.757   1.156  -1.405  0.00  0.00    +0.126 C 
BRANCH  24  25
ATOM     25  C   UNL     1       3.157   1.266  -1.953  0.00  0.00    +0.032 A 
ATOM     26  C   UNL     1       3.361   1.250  -3.293  0.00  0.00    +0.020 A 
ATOM     27  C   UNL     1       4.733   1.359  -3.793  0.00  0.00    +0.002 A 
ATOM     28  C   UNL     1       5.006   1.350  -5.165  0.00  0.00    -0.041 A 
ATOM     29  C   UNL     1       6.297   1.454  -5.599  0.00  0.00    +0.007 A 
ATOM     30  C   UNL     1       7.341   1.568  -4.691  0.00  0.00    -0.048 A 
ATOM     31  C   UNL     1       7.095   1.579  -3.335  0.00  0.00    +0.029 A 
ATOM     32  C   UNL     1       5.788   1.476  -2.869  0.00  0.00    +0.050 A 
ATOM     33  N   UNL     1       5.514   1.484  -1.518  0.00  0.00    -0.322 N 
ATOM     34  H   UNL     1       6.242   1.565  -0.883  0.00  0.00    +0.169 HD
ATOM     35  C   UNL     1       4.250   1.389  -1.069  0.00  0.00    +0.254 A 
ATOM     36  O   UNL     1       4.044   1.406   0.133  0.00  0.00    -0.268 OA
ATOM     37  C   UNL     1       8.757   1.681  -5.193  0.00  0.00    +0.044 C 
ATOM     38  C   UNL     1       3.881   1.226  -6.160  0.00  0.00    +0.044 C 
ENDBRANCH  24  25
ENDBRANCH   1  24
TORSDOF 10
