REMARK  Name = ZINC41585958
REMARK  6 active torsions:
REMARK  status: ('A' for Active; 'I' for Inactive)
REMARK    1  A    between atoms: C_1  and  O_2
REMARK    2  A    between atoms: O_2  and  C_3
REMARK    3  A    between atoms: C_8  and  C_9
REMARK    4  A    between atoms: C_18  and  O_33
REMARK    5  A    between atoms: C_19  and  C_20
REMARK    6  A    between atoms: C_20  and  N_21
REMARK                            x       y       z     vdW  Elec       q    Type
REMARK                         _______ _______ _______ _____ _____    ______ ____
ROOT
ATOM      1  C   UNL     1       0.025  -2.783   0.080  0.00  0.00    +0.068 A 
ATOM      2  C   UNL     1       0.751  -2.892  -1.063  0.00  0.00    +0.208 A 
ATOM      3  O   UNL     1       1.882  -3.596  -1.137  0.00  0.00    -0.462 OA
ATOM      4  C   UNL     1       2.224  -4.490  -0.189  0.00  0.00    +0.146 A 
ATOM      5  C   UNL     1       1.575  -4.486   1.059  0.00  0.00    +0.065 A 
ATOM      6  C   UNL     1       0.511  -3.487   1.283  0.00  0.00    +0.200 A 
ATOM      7  O   UNL     1       0.059  -3.260   2.392  0.00  0.00    -0.286 OA
ATOM      8  C   UNL     1       1.933  -5.402   2.047  0.00  0.00    +0.019 A 
ATOM      9  C   UNL     1       2.918  -6.315   1.798  0.00  0.00    +0.046 A 
ATOM     10  C   UNL     1       3.564  -6.333   0.564  0.00  0.00    +0.125 A 
ATOM     11  C   UNL     1       3.221  -5.427  -0.426  0.00  0.00    +0.051 A 
ENDROOT
BRANCH   1  17
ATOM     12  C   UNL     1      -1.147  -0.579   0.137  0.00  0.00    +0.128 A 
ATOM     13  C   UNL     1      -2.313   0.168   0.168  0.00  0.00    +0.046 A 
ATOM     14  C   UNL     1      -3.541  -0.465   0.189  0.00  0.00    +0.004 A 
ATOM     15  C   UNL     1      -3.614  -1.847   0.178  0.00  0.00    +0.001 A 
ATOM     16  C   UNL     1      -2.460  -2.604   0.148  0.00  0.00    +0.012 A 
ATOM     17  C   UNL     1      -1.218  -1.975   0.120  0.00  0.00    +0.030 A 
BRANCH  12  19
ATOM     18  C   UNL     1       0.055   1.472   0.135  0.00  0.00    +0.277 C 
ATOM     19  O   UNL     1       0.061   0.043   0.117  0.00  0.00    -0.494 OA
ENDBRANCH  12  19
ENDBRANCH   1  17
BRANCH  10  20
ATOM     20  O   UNL     1       4.539  -7.248   0.329  0.00  0.00    -0.506 OA
ATOM     21  H   UNL     1       4.216  -8.079  -0.048  0.00  0.00    +0.292 HD
ENDBRANCH  10  20
BRANCH  11  22
ATOM     22  C   UNL     1       3.928  -5.458  -1.756  0.00  0.00    +0.127 C 
BRANCH  22  23
ATOM     23  N   UNL     1       5.106  -4.581  -1.706  0.00  0.00    -0.295 NA
ATOM     24  C   UNL     1       4.709  -3.176  -1.545  0.00  0.00    +0.103 C 
ATOM     25  C   UNL     1       5.959  -2.319  -1.315  0.00  0.00    +0.122 C 
ATOM     26  N   UNL     1       6.909  -2.576  -2.408  0.00  0.00    -0.314 N 
ATOM     27  C   UNL     1       7.250  -3.973  -2.720  0.00  0.00    +0.122 C 
ATOM     28  C   UNL     1       5.950  -4.764  -2.894  0.00  0.00    +0.103 C 
ATOM     29  C   UNL     1       7.470  -1.528  -3.128  0.00  0.00    +0.099 A 
ATOM     30  C   UNL     1       7.041  -0.225  -2.895  0.00  0.00    +0.042 A 
ATOM     31  C   UNL     1       7.607   0.809  -3.618  0.00  0.00    +0.005 A 
ATOM     32  C   UNL     1       8.588   0.505  -4.553  0.00  0.00    +0.018 A 
ATOM     33  C   UNL     1       8.966  -0.811  -4.732  0.00  0.00    +0.084 A 
ATOM     34  N   UNL     1       8.411  -1.777  -4.025  0.00  0.00    -0.350 N 
ATOM     35  H   UNL     1       8.698  -2.692  -4.168  0.00  0.00    +0.166 HD
ENDBRANCH  22  23
ENDBRANCH  11  22
TORSDOF 5
