REMARK  Name = ZINC20723989
REMARK  4 active torsions:
REMARK  status: ('A' for Active; 'I' for Inactive)
REMARK    1  A    between atoms: C_8  and  C_12
REMARK    2  A    between atoms: C_12  and  C_14
REMARK    3  A    between atoms: C_12  and  N_17
REMARK    4  A    between atoms: N_20  and  C_23
REMARK                            x       y       z     vdW  Elec       q    Type
REMARK                         _______ _______ _______ _____ _____    ______ ____
ROOT
ATOM      1  C   UNL     1       3.039   5.057   0.001  0.00  0.00    +0.080 C 
ENDROOT
BRANCH   1   9
ATOM      2  C   UNL     1      -0.622   7.503  -3.105  0.00  0.00    +0.022 A 
ATOM      3  C   UNL     1       0.512   7.140  -3.798  0.00  0.00    +0.027 A 
ATOM      4  C   UNL     1       1.554   6.500  -3.137  0.00  0.00    +0.047 A 
ATOM      5  C   UNL     1       1.435   6.223  -1.763  0.00  0.00    +0.003 A 
ATOM      6  C   UNL     1       0.278   6.592  -1.075  0.00  0.00    +0.030 A 
ATOM      7  C   UNL     1      -0.742   7.226  -1.749  0.00  0.00    +0.042 A 
ATOM      8 CL   UNL     1      -2.184   7.686  -0.899  0.00  0.00    -0.084 Cl
ATOM      9  C   UNL     1       2.680   5.555  -1.375  0.00  0.00    -0.025 A 
ATOM     10  C   UNL     1       3.440   5.470  -2.479  0.00  0.00    +0.086 A 
ATOM     11  N   UNL     1       2.784   6.029  -3.541  0.00  0.00    -0.360 N 
ATOM     12  H   UNL     1       3.097   6.137  -4.590  0.00  0.00    +0.165 HD
ENDBRANCH   1   9
BRANCH   1  13
ATOM     13  N   UNL     1       4.501   5.011   0.139  0.00  0.00    +0.393 N 
ATOM     14  C   UNL     1       4.890   4.392   1.414  0.00  0.00    -0.062 C 
ATOM     15  C   UNL     1       6.416   4.290   1.484  0.00  0.00    +0.066 C 
ATOM     16  N   UNL     1       7.000   5.632   1.353  0.00  0.00    -0.301 NA
ATOM     17  C   UNL     1       6.611   6.251   0.078  0.00  0.00    +0.066 C 
ATOM     18  C   UNL     1       5.085   6.353   0.008  0.00  0.00    -0.062 C 
ATOM     19  H   UNL     1       4.896   4.387  -0.676  0.00  0.00    -0.080 HD
BRANCH  16  20
ATOM     20  C   UNL     1       8.462   5.586   1.491  0.00  0.00    +0.079 C 
ATOM     21  C   UNL     1       9.053   4.633   0.438  0.00  0.00    +0.043 C 
ATOM     22  C   UNL     1      10.533   4.330   0.773  0.00  0.00    +0.167 C 
ATOM     23  S   UNL     1      10.579   4.517   2.602  0.00  0.00    -0.029 S 
ATOM     24  O   UNL     1      11.451   5.588   2.935  0.00  0.00    -0.174 OA
ATOM     25  O   UNL     1      10.782   3.241   3.194  0.00  0.00    -0.174 OA
ATOM     26  C   UNL     1       8.839   5.045   2.899  0.00  0.00    +0.184 C 
ENDBRANCH  16  20
ENDBRANCH   1  13
BRANCH   1  27
ATOM     27  C   UNL     1       2.472   3.675   0.199  0.00  0.00    +0.347 C 
ATOM     28  O   UNL     1       3.125   2.705  -0.103  0.00  0.00    -0.248 OA
ATOM     29  O   UNL     1       1.240   3.522   0.712  0.00  0.00    -0.248 OA
ENDBRANCH   1  27
TORSDOF 4
