REMARK  Name = ZINC03047900
REMARK  7 active torsions:
REMARK  status: ('A' for Active; 'I' for Inactive)
REMARK    1  A    between atoms: C_1  and  C_2
REMARK    2  A    between atoms: C_5  and  S_22
REMARK    3  A    between atoms: C_10  and  C_11
REMARK    4  A    between atoms: N_13  and  C_14
REMARK    5  A    between atoms: S_22  and  N_25
REMARK    6  A    between atoms: C_27  and  C_34
REMARK    7  A    between atoms: C_30  and  C_33
REMARK                            x       y       z     vdW  Elec       q    Type
REMARK                         _______ _______ _______ _____ _____    ______ ____
ROOT
ATOM      1  C   UNL     1       3.038   5.053  -0.015  0.00  0.00    +0.048 C 
ATOM      2  C   UNL     1       2.534   3.633  -0.022  0.00  0.00    +0.008 A 
ATOM      3  C   UNL     1       1.139   3.195  -0.023  0.00  0.00    +0.026 A 
ATOM      4  C   UNL     1      -0.090   3.859  -0.017  0.00  0.00    +0.040 A 
ATOM      5  C   UNL     1      -1.250   3.137  -0.020  0.00  0.00    +0.106 A 
ATOM      6  C   UNL     1      -1.215   1.749  -0.035  0.00  0.00    +0.032 A 
ATOM      7  C   UNL     1      -0.013   1.075  -0.036  0.00  0.00    +0.049 A 
ATOM      8  C   UNL     1       1.181   1.788  -0.033  0.00  0.00    +0.136 A 
ATOM      9  O   UNL     1       2.476   1.419  -0.037  0.00  0.00    -0.450 OA
ATOM     10  C   UNL     1       3.284   2.500  -0.031  0.00  0.00    +0.194 A 
ENDROOT
BRANCH  10  11
ATOM     11  C   UNL     1       4.753   2.458  -0.035  0.00  0.00    +0.284 C 
ATOM     12  O   UNL     1       5.391   3.494  -0.029  0.00  0.00    -0.266 OA
ATOM     13  N   UNL     1       5.393   1.273  -0.044  0.00  0.00    -0.277 N 
ATOM     14  H   UNL     1       4.888   0.448   0.033  0.00  0.00    +0.155 HD
BRANCH  13  15
ATOM     15  C   UNL     1       6.787   1.231  -0.164  0.00  0.00    +0.069 A 
ATOM     16  C   UNL     1       7.465   2.280  -0.771  0.00  0.00    +0.027 A 
ATOM     17  C   UNL     1       8.841   2.236  -0.887  0.00  0.00    +0.017 A 
ATOM     18  C   UNL     1       9.545   1.150  -0.400  0.00  0.00    +0.021 A 
ATOM     19  C   UNL     1       8.874   0.102   0.206  0.00  0.00    +0.055 A 
ATOM     20  C   UNL     1       7.497   0.142   0.330  0.00  0.00    +0.146 A 
ATOM     21  F   UNL     1       6.842  -0.878   0.927  0.00  0.00    -0.204 F 
ATOM     22 BR   UNL     1      11.428   1.096  -0.562  0.00  0.00    -0.050 Br
ENDBRANCH  13  15
ENDBRANCH  10  11
BRANCH   5  23
ATOM     23  S   UNL     1      -2.801   3.972  -0.012  0.00  0.00    +0.061 S 
ATOM     24  O   UNL     1      -3.749   3.065   0.534  0.00  0.00    -0.153 OA
ATOM     25  O   UNL     1      -2.567   5.257   0.548  0.00  0.00    -0.153 OA
BRANCH  23  26
ATOM     26  N   UNL     1      -3.235   4.216  -1.591  0.00  0.00    -0.176 NA
ATOM     27  C   UNL     1      -2.837   5.441  -2.297  0.00  0.00    +0.112 C 
ATOM     28  C   UNL     1      -2.117   5.046  -3.595  0.00  0.00    +0.002 C 
ATOM     29  C   UNL     1      -3.021   4.118  -4.410  0.00  0.00    +0.009 C 
ATOM     30  C   UNL     1      -3.303   2.845  -3.609  0.00  0.00    +0.002 C 
ATOM     31  C   UNL     1      -4.031   3.213  -2.312  0.00  0.00    +0.112 C 
ATOM     32  C   UNL     1      -1.982   2.150  -3.273  0.00  0.00    +0.009 C 
ATOM     33  C   UNL     1      -1.810   6.304  -4.410  0.00  0.00    +0.009 C 
ENDBRANCH  23  26
ENDBRANCH   5  23
TORSDOF 4
