REMARK  Name = ZINC09510703
REMARK  13 active torsions:
REMARK  status: ('A' for Active; 'I' for Inactive)
REMARK    1  A    between atoms: C_1  and  C_2
REMARK    2  A    between atoms: C_2  and  C_3
REMARK    3  A    between atoms: N_9  and  S_10
REMARK    4  A    between atoms: S_10  and  C_13
REMARK    5  A    between atoms: C_16  and  C_19
REMARK    6  A    between atoms: C_19  and  N_21
REMARK    7  A    between atoms: N_23  and  C_33
REMARK    8  A    between atoms: C_26  and  C_32
REMARK    9  A    between atoms: C_27  and  C_31
REMARK   10  A    between atoms: C_33  and  C_34
REMARK   11  A    between atoms: C_34  and  O_35
REMARK   12  A    between atoms: O_35  and  C_36
REMARK   13  A    between atoms: C_36  and  C_37
REMARK                            x       y       z     vdW  Elec       q    Type
REMARK                         _______ _______ _______ _____ _____    ______ ____
ROOT
ATOM      1  C   UNL     1       0.491  -2.451   5.626  0.00  0.00    +0.269 C 
ATOM      2  O   UNL     1      -0.378  -3.030   6.253  0.00  0.00    -0.268 OA
ENDROOT
BRANCH   1   3
ATOM      3  N   UNL     1       1.768  -2.542   6.013  0.00  0.00    -0.152 NA
ATOM      4  C   UNL     1       2.088  -3.263   7.081  0.00  0.00    +0.167 A 
ATOM      5  N   UNL     1       3.320  -3.470   7.621  0.00  0.00    -0.319 N 
ATOM      6  C   UNL     1       3.459  -4.259   8.748  0.00  0.00    +0.058 A 
ATOM      7  C   UNL     1       4.634  -4.585   9.443  0.00  0.00    +0.030 A 
ATOM      8  C   UNL     1       4.591  -5.390  10.556  0.00  0.00    -0.046 A 
ATOM      9  C   UNL     1       3.394  -5.904  11.026  0.00  0.00    -0.046 A 
ATOM     10  C   UNL     1       2.220  -5.599  10.360  0.00  0.00    +0.020 A 
ATOM     11  C   UNL     1       2.262  -4.793   9.246  0.00  0.00    +0.039 A 
ATOM     12  S   UNL     1       1.037  -4.161   8.128  0.00  0.00    -0.052 S 
ATOM     13  C   UNL     1       3.370  -6.784  12.248  0.00  0.00    +0.044 C 
ATOM     14  C   UNL     1       5.872  -5.720  11.280  0.00  0.00    +0.044 C 
BRANCH   5  15
ATOM     15  C   UNL     1       4.500  -2.856   7.008  0.00  0.00    +0.152 C 
BRANCH  15  16
ATOM     16  C   UNL     1       4.344  -2.860   5.486  0.00  0.00    +0.181 C 
BRANCH  16  17
ATOM     17  O   UNL     1       5.556  -2.402   4.882  0.00  0.00    -0.378 OA
BRANCH  17  18
ATOM     18  C   UNL     1       5.516  -2.367   3.454  0.00  0.00    +0.156 C 
ATOM     19  C   UNL     1       6.859  -1.865   2.919  0.00  0.00    +0.034 C 
ENDBRANCH  17  18
ENDBRANCH  16  17
ENDBRANCH  15  16
ENDBRANCH   5  15
ENDBRANCH   1   3
BRANCH   1  23
ATOM     20  C   UNL     1      -0.534  -0.142   2.208  0.00  0.00    +0.106 A 
ATOM     21  C   UNL     1       0.788  -0.238   2.603  0.00  0.00    +0.029 A 
ATOM     22  C   UNL     1       1.127  -0.982   3.715  0.00  0.00    +0.015 A 
ATOM     23  C   UNL     1       0.134  -1.647   4.434  0.00  0.00    +0.039 A 
ATOM     24  C   UNL     1      -1.197  -1.550   4.028  0.00  0.00    +0.015 A 
ATOM     25  C   UNL     1      -1.524  -0.799   2.918  0.00  0.00    +0.029 A 
BRANCH  20  26
ATOM     26  S   UNL     1      -0.960   0.816   0.791  0.00  0.00    +0.061 S 
ATOM     27  O   UNL     1      -2.084   0.182   0.196  0.00  0.00    -0.153 OA
ATOM     28  O   UNL     1       0.249   1.049   0.081  0.00  0.00    -0.153 OA
BRANCH  26  34
ATOM     29  C   UNL     1      -0.517   3.338   1.699  0.00  0.00    +0.080 C 
ATOM     30  C   UNL     1      -0.862   4.614   0.926  0.00  0.00    +0.021 C 
ATOM     31  C   UNL     1      -2.323   4.986   1.189  0.00  0.00    +0.003 C 
ATOM     32  C   UNL     1      -3.235   3.861   0.694  0.00  0.00    +0.017 C 
ATOM     33  C   UNL     1      -2.917   2.578   1.460  0.00  0.00    +0.110 C 
ATOM     34  N   UNL     1      -1.481   2.290   1.336  0.00  0.00    -0.174 NA
BRANCH  29  36
ATOM     35  C   UNL     1       1.908   3.931   1.802  0.00  0.00    +0.005 C 
ATOM     36  C   UNL     1       0.897   2.881   1.336  0.00  0.00    +0.017 C 
ENDBRANCH  29  36
ENDBRANCH  26  34
ENDBRANCH  20  26
ENDBRANCH   1  23
TORSDOF 9
