REMARK  Name = ZINC09546215
REMARK  11 active torsions:
REMARK  status: ('A' for Active; 'I' for Inactive)
REMARK    1  A    between atoms: C_1  and  C_2
REMARK    2  A    between atoms: C_2  and  O_3
REMARK    3  A    between atoms: O_3  and  C_4
REMARK    4  A    between atoms: C_7  and  S_10
REMARK    5  A    between atoms: S_10  and  N_13
REMARK    6  A    between atoms: N_13  and  C_14
REMARK    7  A    between atoms: C_19  and  C_20
REMARK    8  A    between atoms: C_20  and  O_22
REMARK    9  A    between atoms: O_22  and  C_23
REMARK   10  A    between atoms: C_23  and  C_24
REMARK   11  A    between atoms: C_24  and  C_26
REMARK                            x       y       z     vdW  Elec       q    Type
REMARK                         _______ _______ _______ _____ _____    ______ ____
ROOT
ATOM      1  C   UNL     1       6.766  -5.862   0.051  0.00  0.00    +0.062 A 
ATOM      2  C   UNL     1       8.094  -6.266   0.102  0.00  0.00    +0.025 A 
ATOM      3  C   UNL     1       9.096  -5.332   0.263  0.00  0.00    +0.002 A 
ATOM      4  C   UNL     1       8.788  -3.984   0.373  0.00  0.00    +0.001 A 
ATOM      5  C   UNL     1       7.478  -3.563   0.319  0.00  0.00    +0.017 A 
ATOM      6  C   UNL     1       6.450  -4.499   0.163  0.00  0.00    +0.081 A 
ENDROOT
BRANCH   1   7
ATOM      7  N   UNL     1       5.756  -6.801  -0.111  0.00  0.00    -0.215 N 
ATOM      8  H   UNL     1       4.971  -6.583  -0.637  0.00  0.00    +0.174 HD
BRANCH   7   9
ATOM      9  S   UNL     1       5.892  -8.293   0.595  0.00  0.00    +0.072 S 
ATOM     10  O   UNL     1       4.662  -8.966   0.362  0.00  0.00    -0.150 OA
ATOM     11  O   UNL     1       7.143  -8.826   0.180  0.00  0.00    -0.150 OA
BRANCH   9  15
ATOM     12  C   UNL     1       6.183  -7.638   5.066  0.00  0.00    +0.121 A 
ATOM     13  C   UNL     1       4.943  -7.806   4.468  0.00  0.00    +0.047 A 
ATOM     14  C   UNL     1       4.857  -8.005   3.104  0.00  0.00    +0.032 A 
ATOM     15  C   UNL     1       6.005  -8.038   2.335  0.00  0.00    +0.109 A 
ATOM     16  C   UNL     1       7.243  -7.876   2.929  0.00  0.00    +0.032 A 
ATOM     17  C   UNL     1       7.334  -7.671   4.293  0.00  0.00    +0.047 A 
BRANCH  12  18
ATOM     18  O   UNL     1       6.271  -7.440   6.408  0.00  0.00    -0.492 OA
BRANCH  18  20
ATOM     19  C   UNL     1       7.478  -7.066   8.468  0.00  0.00    +0.048 C 
ATOM     20  C   UNL     1       7.580  -7.275   6.956  0.00  0.00    +0.225 C 
ENDBRANCH  18  20
ENDBRANCH  12  18
ENDBRANCH   9  15
ENDBRANCH   7   9
ENDBRANCH   1   7
BRANCH   6  21
ATOM     21  C   UNL     1       5.046  -4.056   0.110  0.00  0.00    +0.341 C 
ATOM     22  O   UNL     1       4.157  -4.872  -0.031  0.00  0.00    -0.245 OA
BRANCH  21  23
ATOM     23  O   UNL     1       4.748  -2.746   0.218  0.00  0.00    -0.453 OA
BRANCH  23  24
ATOM     24  C   UNL     1       3.344  -2.382   0.158  0.00  0.00    +0.311 C 
BRANCH  24  25
ATOM     25  C   UNL     1       3.206  -0.888   0.295  0.00  0.00    +0.200 C 
ATOM     26  O   UNL     1       4.194  -0.197   0.430  0.00  0.00    -0.288 OA
BRANCH  25  27
ATOM     27  C   UNL     1       1.875  -0.268   0.264  0.00  0.00    +0.025 A 
ATOM     28  C   UNL     1       0.733  -1.062   0.108  0.00  0.00    +0.015 A 
ATOM     29  C   UNL     1      -0.512  -0.477   0.079  0.00  0.00    +0.050 A 
ATOM     30  C   UNL     1      -0.643   0.902   0.204  0.00  0.00    +0.162 A 
ATOM     31  C   UNL     1       0.489   1.699   0.363  0.00  0.00    +0.163 A 
ATOM     32  C   UNL     1       1.743   1.120   0.392  0.00  0.00    +0.061 A 
ATOM     33  O   UNL     1       0.377   3.050   0.496  0.00  0.00    -0.485 OA
ATOM     34  C   UNL     1      -0.866   3.635   0.090  0.00  0.00    +0.270 C 
ATOM     35  C   UNL     1      -2.007   2.791   0.673  0.00  0.00    +0.270 C 
ATOM     36  O   UNL     1      -1.883   1.458   0.164  0.00  0.00    -0.485 OA
ENDBRANCH  25  27
ENDBRANCH  24  25
ENDBRANCH  23  24
ENDBRANCH  21  23
ENDBRANCH   6  21
TORSDOF 10
