REMARK  Name = ZINC00938343
REMARK  4 active torsions:
REMARK  status: ('A' for Active; 'I' for Inactive)
REMARK    1  A    between atoms: C_1  and  C_2
REMARK    2  A    between atoms: C_9  and  N_14
REMARK    3  A    between atoms: C_10  and  C_11
REMARK    4  A    between atoms: N_17  and  C_18
REMARK                            x       y       z     vdW  Elec       q    Type
REMARK                         _______ _______ _______ _____ _____    ______ ____
ROOT
ATOM      1  C   UNL     1      -0.026   1.523   0.011  0.00  0.00    +0.008 C 
ATOM      2  C   UNL     1      -0.001  -0.006   0.005  0.00  0.00    -0.009 C 
ATOM      3  C   UNL     1       0.749  -0.512   1.241  0.00  0.00    +0.008 C 
ATOM      4  C   UNL     1       0.570  -2.025   1.376  0.00  0.00    +0.037 C 
ATOM      5  C   UNL     1       0.948  -2.683   0.055  0.00  0.00    -0.023 A 
ATOM      6  C   UNL     1       1.005  -1.966  -1.089  0.00  0.00    -0.004 A 
ATOM      7  S   UNL     1       1.477  -3.135  -2.332  0.00  0.00    -0.077 S 
ATOM      8  C   UNL     1       1.596  -4.557  -1.349  0.00  0.00    +0.086 A 
ATOM      9  C   UNL     1       1.269  -4.094  -0.083  0.00  0.00    +0.068 A 
ATOM     10  C   UNL     1       0.727  -0.504  -1.253  0.00  0.00    +0.046 C 
ENDROOT
BRANCH   8  11
ATOM     11  N   UNL     1       1.936  -5.844  -1.735  0.00  0.00    -0.263 N 
ATOM     12  C   UNL     1       2.225  -6.107  -3.025  0.00  0.00    +0.308 C 
ATOM     13  O   UNL     1       2.189  -5.215  -3.850  0.00  0.00    -0.252 OA
ATOM     14  N   UNL     1       2.556  -7.359  -3.400  0.00  0.00    -0.269 N 
ATOM     15  H   UNL     1       1.965  -6.556  -1.077  0.00  0.00    +0.157 HD
ATOM     16  H   UNL     1       2.650  -8.056  -2.732  0.00  0.00    +0.156 HD
BRANCH  14  17
ATOM     17  C   UNL     1       2.762  -7.653  -4.753  0.00  0.00    +0.035 A 
ATOM     18  C   UNL     1       2.395  -8.893  -5.259  0.00  0.00    +0.025 A 
ATOM     19  C   UNL     1       2.595  -9.179  -6.595  0.00  0.00    +0.022 A 
ATOM     20  C   UNL     1       3.170  -8.235  -7.427  0.00  0.00    +0.041 A 
ATOM     21  C   UNL     1       3.542  -7.000  -6.924  0.00  0.00    +0.022 A 
ATOM     22  C   UNL     1       3.340  -6.707  -5.590  0.00  0.00    +0.025 A 
ATOM     23 CL   UNL     1       3.427  -8.599  -9.105  0.00  0.00    -0.084 Cl
ENDBRANCH  14  17
ENDBRANCH   8  11
BRANCH   9  24
ATOM     24  C   UNL     1       1.247  -4.995   1.073  0.00  0.00    +0.244 C 
ATOM     25  O   UNL     1       0.222  -5.582   1.369  0.00  0.00    -0.270 OA
ATOM     26  N   UNL     1       2.361  -5.173   1.810  0.00  0.00    -0.325 N 
ATOM     27  H   UNL     1       3.178  -4.705   1.575  0.00  0.00    +0.145 HD
ATOM     28  H   UNL     1       2.347  -5.769   2.575  0.00  0.00    +0.145 HD
ENDBRANCH   9  24
TORSDOF 3
