REMARK  Name = ZINC40156803
REMARK  12 active torsions:
REMARK  status: ('A' for Active; 'I' for Inactive)
REMARK    1  A    between atoms: C_1  and  C_2
REMARK    2  A    between atoms: C_5  and  S_8
REMARK    3  A    between atoms: S_8  and  O_11
REMARK    4  A    between atoms: O_11  and  C_12
REMARK    5  A    between atoms: C_15  and  S_18
REMARK    6  A    between atoms: S_18  and  N_21
REMARK    7  A    between atoms: N_21  and  C_22
REMARK    8  A    between atoms: C_22  and  C_23
REMARK    9  A    between atoms: C_23  and  C_25
REMARK   10  A    between atoms: C_23  and  N_28
REMARK   11  A    between atoms: N_28  and  C_29
REMARK   12  A    between atoms: N_28  and  C_30
REMARK                            x       y       z     vdW  Elec       q    Type
REMARK                         _______ _______ _______ _____ _____    ______ ____
ROOT
ATOM      1  C   UNL     1       2.297  -4.574   1.248  0.00  0.00    +0.157 A 
ATOM      2  C   UNL     1       2.838  -3.344   1.592  0.00  0.00    +0.050 A 
ATOM      3  C   UNL     1       3.473  -3.185   2.808  0.00  0.00    +0.032 A 
ATOM      4  C   UNL     1       3.569  -4.250   3.684  0.00  0.00    +0.105 A 
ATOM      5  C   UNL     1       3.031  -5.478   3.344  0.00  0.00    +0.032 A 
ATOM      6  C   UNL     1       2.390  -5.640   2.131  0.00  0.00    +0.050 A 
ENDROOT
BRANCH   4   7
ATOM      7  S   UNL     1       4.379  -4.045   5.235  0.00  0.00    +0.058 S 
ATOM      8  O   UNL     1       4.814  -5.335   5.640  0.00  0.00    -0.153 OA
ATOM      9  O   UNL     1       5.274  -2.951   5.083  0.00  0.00    -0.153 OA
BRANCH   7  10
ATOM     10  N   UNL     1       3.230  -3.568   6.328  0.00  0.00    -0.191 NA
ATOM     11  H   UNL     1       3.281  -2.688   6.733  0.00  0.00    +0.148 HD
BRANCH  10  12
ATOM     12  C   UNL     1       2.136  -4.475   6.684  0.00  0.00    +0.091 C 
BRANCH  12  13
ATOM     13  C   UNL     1       1.439  -3.962   7.945  0.00  0.00    -0.050 C 
BRANCH  13  14
ATOM     14  N   UNL     1       0.970  -2.588   7.721  0.00  0.00    +0.379 N 
ATOM     15  C   UNL     1      -0.020  -2.579   6.636  0.00  0.00    -0.096 C 
ATOM     16  C   UNL     1       0.351  -2.075   8.951  0.00  0.00    -0.096 C 
ATOM     17  H   UNL     1       1.752  -2.003   7.469  0.00  0.00    -0.082 HD
ENDBRANCH  13  14
BRANCH  13  18
ATOM     18  C   UNL     1       0.244  -4.862   8.269  0.00  0.00    -0.023 C 
ATOM     19  C   UNL     1       0.084  -5.330   9.717  0.00  0.00    +0.002 C 
ATOM     20  C   UNL     1       0.537  -6.317   8.640  0.00  0.00    +0.002 C 
ENDBRANCH  13  18
ENDBRANCH  12  13
ENDBRANCH  10  12
ENDBRANCH   7  10
ENDBRANCH   4   7
BRANCH   1  21
ATOM     21  O   UNL     1       1.672  -4.733   0.052  0.00  0.00    -0.342 OA
BRANCH  21  22
ATOM     22  S   UNL     1       0.181  -4.430   0.088  0.00  0.00    +0.151 S 
ATOM     23  O   UNL     1      -0.307  -4.936   1.323  0.00  0.00    -0.131 OA
ATOM     24  O   UNL     1      -0.347  -4.841  -1.166  0.00  0.00    -0.131 OA
BRANCH  22  29
ATOM     25  C   UNL     1      -0.418   1.569   0.327  0.00  0.00    +0.044 C 
ATOM     26  C   UNL     1      -0.269   0.071   0.267  0.00  0.00    -0.050 A 
ATOM     27  C   UNL     1      -0.218  -0.571  -0.957  0.00  0.00    +0.005 A 
ATOM     28  C   UNL     1      -0.081  -1.945  -1.011  0.00  0.00    +0.031 A 
ATOM     29  C   UNL     1       0.007  -2.678   0.158  0.00  0.00    +0.128 A 
ATOM     30  C   UNL     1      -0.043  -2.036   1.381  0.00  0.00    +0.031 A 
ATOM     31  C   UNL     1      -0.176  -0.661   1.436  0.00  0.00    +0.005 A 
ENDBRANCH  22  29
ENDBRANCH  21  22
ENDBRANCH   1  21
TORSDOF 9
