REMARK  Name = ZINC33936980
REMARK  12 active torsions:
REMARK  status: ('A' for Active; 'I' for Inactive)
REMARK    1  A    between atoms: C_1  and  C_2
REMARK    2  A    between atoms: C_2  and  C_3
REMARK    3  A    between atoms: C_3  and  C_5
REMARK    4  A    between atoms: C_3  and  N_17
REMARK    5  A    between atoms: N_9  and  C_10
REMARK    6  A    between atoms: C_10  and  C_11
REMARK    7  A    between atoms: N_17  and  C_18
REMARK    8  A    between atoms: N_17  and  C_26
REMARK    9  A    between atoms: C_18  and  C_19
REMARK   10  A    between atoms: C_22  and  C_25
REMARK   11  A    between atoms: C_26  and  C_27
REMARK   12  A    between atoms: C_32  and  C_39
REMARK                            x       y       z     vdW  Elec       q    Type
REMARK                         _______ _______ _______ _____ _____    ______ ____
ROOT
ATOM      1  N   UNL     1       1.740   0.414  -1.064  0.00  0.00    +0.392 N 
ATOM      2  H   UNL     1       2.156   0.622  -0.169  0.00  0.00    -0.080 HD
ENDROOT
BRANCH   1   3
ATOM      3  C   UNL     1       1.111  -0.912  -1.016  0.00  0.00    +0.003 C 
BRANCH   3   4
ATOM      4  C   UNL     1       0.548  -1.152   0.361  0.00  0.00    +0.138 A 
ATOM      5  N   UNL     1       0.364  -0.255   1.298  0.00  0.00    -0.115 NA
ATOM      6  N   UNL     1      -0.134  -0.850   2.326  0.00  0.00    -0.023 NA
ATOM      7  N   UNL     1      -0.272  -2.104   2.070  0.00  0.00    -0.044 NA
ATOM      8  N   UNL     1       0.133  -2.329   0.866  0.00  0.00    -0.228 N 
BRANCH   8   9
ATOM      9  C   UNL     1       0.142  -3.622   0.178  0.00  0.00    +0.178 C 
BRANCH   9  10
ATOM     10  C   UNL     1       1.474  -4.329   0.437  0.00  0.00    +0.140 C 
ATOM     11  C   UNL     1       1.470  -5.738  -0.206  0.00  0.00    +0.035 C 
ATOM     12  C   UNL     1       2.992  -5.977  -0.403  0.00  0.00    +0.031 C 
ATOM     13  C   UNL     1       3.509  -4.556  -0.716  0.00  0.00    +0.160 C 
ATOM     14  O   UNL     1       2.546  -3.623  -0.208  0.00  0.00    -0.375 OA
ENDBRANCH   9  10
ENDBRANCH   8   9
ENDBRANCH   3   4
BRANCH   3  16
ATOM     15  C   UNL     1       0.574  -0.926  -3.457  0.00  0.00    +0.002 C 
ATOM     16  C   UNL     1      -0.018  -0.979  -2.047  0.00  0.00    -0.011 C 
ENDBRANCH   3  16
ENDBRANCH   1   3
BRANCH   1  17
ATOM     17  C   UNL     1       0.723   1.427  -1.378  0.00  0.00    -0.042 C 
BRANCH  17  18
ATOM     18  C   UNL     1      -0.183   1.614  -0.188  0.00  0.00    -0.064 A 
ATOM     19  C   UNL     1      -1.421   0.999  -0.159  0.00  0.00    +0.002 A 
ATOM     20  C   UNL     1      -2.252   1.170   0.932  0.00  0.00    +0.003 A 
ATOM     21  C   UNL     1      -1.845   1.956   1.994  0.00  0.00    -0.050 A 
ATOM     22  C   UNL     1      -0.607   2.571   1.965  0.00  0.00    +0.003 A 
ATOM     23  C   UNL     1       0.226   2.396   0.876  0.00  0.00    +0.002 A 
ATOM     24  C   UNL     1      -2.752   2.144   3.183  0.00  0.00    +0.044 C 
ENDBRANCH  17  18
ENDBRANCH   1  17
BRANCH   1  25
ATOM     25  C   UNL     1       2.779   0.426  -2.102  0.00  0.00    -0.036 C 
BRANCH  25  26
ATOM     26  C   UNL     1       3.566   1.709  -2.011  0.00  0.00    +0.001 A 
ATOM     27  C   UNL     1       4.726   1.741  -1.311  0.00  0.00    +0.017 A 
ATOM     28  C   UNL     1       5.467   3.002  -1.242  0.00  0.00    -0.001 A 
ATOM     29  C   UNL     1       6.671   3.097  -0.536  0.00  0.00    +0.010 A 
ATOM     30  C   UNL     1       7.338   4.288  -0.491  0.00  0.00    +0.004 A 
ATOM     31  C   UNL     1       6.831   5.406  -1.140  0.00  0.00    -0.048 A 
ATOM     32  C   UNL     1       5.647   5.336  -1.841  0.00  0.00    +0.029 A 
ATOM     33  C   UNL     1       4.950   4.133  -1.902  0.00  0.00    +0.049 A 
ATOM     34  N   UNL     1       3.764   4.034  -2.597  0.00  0.00    -0.322 N 
ATOM     35  H   UNL     1       3.410   4.815  -3.051  0.00  0.00    +0.169 HD
ATOM     36  C   UNL     1       3.094   2.870  -2.659  0.00  0.00    +0.251 A 
ATOM     37  O   UNL     1       2.051   2.818  -3.287  0.00  0.00    -0.268 OA
ATOM     38  C   UNL     1       7.584   6.710  -1.077  0.00  0.00    +0.044 C 
ENDBRANCH  25  26
ENDBRANCH   1  25
TORSDOF 9
