REMARK  Name = ZINC55189521
REMARK  3 active torsions:
REMARK  status: ('A' for Active; 'I' for Inactive)
REMARK    1  A    between atoms: C_2  and  C_9
REMARK    2  A    between atoms: C_9  and  C_10
REMARK    3  A    between atoms: C_12  and  C_15
REMARK                            x       y       z     vdW  Elec       q    Type
REMARK                         _______ _______ _______ _____ _____    ______ ____
ROOT
ATOM      1  C   UNL     1       1.155   4.090   1.433  0.00  0.00    +0.176 A 
ATOM      2  N   UNL     1       0.071   4.324   2.175  0.00  0.00    -0.190 NA
ATOM      3  C   UNL     1       0.427   4.747   3.370  0.00  0.00    +0.277 A 
ATOM      4  O   UNL     1       1.771   4.792   3.410  0.00  0.00    -0.331 OA
ATOM      5  N   UNL     1       2.219   4.353   2.137  0.00  0.00    -0.060 NA
ENDROOT
BRANCH   3   6
ATOM      6  C   UNL     1      -0.486   5.109   4.469  0.00  0.00    +0.137 A 
ATOM      7  C   UNL     1       0.011   5.543   5.671  0.00  0.00    +0.081 A 
ATOM      8  S   UNL     1      -1.504   5.822   6.577  0.00  0.00    -0.060 S 
ATOM      9  C   UNL     1      -2.637   5.338   5.282  0.00  0.00    +0.156 A 
ATOM     10  N   UNL     1      -1.807   5.022   4.307  0.00  0.00    -0.220 NA
ATOM     11  N   UNL     1      -4.021   5.307   5.298  0.00  0.00    -0.338 N 
ATOM     12  H   UNL     1      -4.503   5.575   6.096  0.00  0.00    +0.144 HD
ATOM     13  H   UNL     1      -4.508   5.017   4.511  0.00  0.00    +0.144 HD
ENDBRANCH   3   6
BRANCH   1  14
ATOM     14  C   UNL     1       1.149   3.595   0.010  0.00  0.00    +0.115 C 
BRANCH  14  16
ATOM     15  C   UNL     1      -0.017   1.381   0.010  0.00  0.00    +0.042 A 
ATOM     16  C   UNL     1       1.170   2.088   0.002  0.00  0.00    -0.035 A 
ATOM     17  C   UNL     1       2.377   1.415  -0.013  0.00  0.00    +0.042 A 
ATOM     18  C   UNL     1       2.399   0.031  -0.021  0.00  0.00    +0.126 A 
ATOM     19  C   UNL     1       1.210  -0.679  -0.013  0.00  0.00    +0.076 A 
ATOM     20  C   UNL     1       0.002  -0.004   0.002  0.00  0.00    +0.126 A 
ATOM     21  F   UNL     1      -1.158  -0.696   0.010  0.00  0.00    -0.205 F 
ATOM     22  F   UNL     1       3.579  -0.627  -0.036  0.00  0.00    -0.205 F 
ENDBRANCH  14  16
ENDBRANCH   1  14
TORSDOF 3
