REMARK  Name = ZINC35427408
REMARK  9 active torsions:
REMARK  status: ('A' for Active; 'I' for Inactive)
REMARK    1  A    between atoms: C_1  and  C_2
REMARK    2  A    between atoms: C_2  and  N_3
REMARK    3  A    between atoms: C_17  and  C_29
REMARK    4  A    between atoms: N_23  and  C_24
REMARK    5  A    between atoms: C_24  and  C_25
REMARK    6  A    between atoms: C_25  and  C_26
REMARK    7  A    between atoms: C_26  and  C_27
REMARK    8  A    between atoms: C_26  and  C_28
REMARK    9  A    between atoms: C_32  and  C_35
REMARK                            x       y       z     vdW  Elec       q    Type
REMARK                         _______ _______ _______ _____ _____    ______ ____
ROOT
ATOM      1  N   UNL     1      -1.393  -0.721   1.446  0.00  0.00    +0.383 N 
ATOM      2  C   UNL     1      -1.478  -2.165   1.703  0.00  0.00    -0.074 C 
ATOM      3  C   UNL     1      -2.941  -2.618   1.715  0.00  0.00    +0.018 C 
ATOM      4  C   UNL     1      -3.595  -2.135   0.423  0.00  0.00    -0.034 A 
ATOM      5  C   UNL     1      -4.806  -2.660  -0.066  0.00  0.00    +0.004 A 
ATOM      6  C   UNL     1      -5.278  -2.127  -1.227  0.00  0.00    +0.090 A 
ATOM      7  S   UNL     1      -4.071  -0.922  -1.686  0.00  0.00    -0.077 S 
ATOM      8  C   UNL     1      -2.989  -1.155  -0.300  0.00  0.00    -0.021 A 
ATOM      9  C   UNL     1      -1.712  -0.456   0.030  0.00  0.00    -0.035 C 
ATOM     10  N   UNL     1      -6.471  -2.507  -1.829  0.00  0.00    -0.312 N 
ATOM     11  C   UNL     1      -6.773  -2.793  -3.117  0.00  0.00    +0.092 A 
ATOM     12  C   UNL     1      -8.068  -3.178  -3.167  0.00  0.00    +0.020 A 
ATOM     13  C   UNL     1      -8.585  -3.106  -1.855  0.00  0.00    +0.025 A 
ATOM     14  C   UNL     1      -7.598  -2.670  -1.058  0.00  0.00    +0.049 A 
ATOM     15  C   UNL     1      -7.630  -2.344   0.405  0.00  0.00    +0.155 C 
ATOM     16  N   UNL     1      -6.842  -3.314   1.203  0.00  0.00    -0.269 N 
ATOM     17  C   UNL     1      -5.565  -3.771   0.624  0.00  0.00    +0.148 C 
ATOM     18  C   UNL     1      -7.272  -3.758   2.401  0.00  0.00    +0.303 C 
ATOM     19  O   UNL     1      -8.329  -3.362   2.852  0.00  0.00    -0.253 OA
ATOM     20  N   UNL     1      -6.530  -4.640   3.099  0.00  0.00    -0.299 N 
ATOM     21  H   UNL     1      -5.686  -4.956   2.740  0.00  0.00    +0.150 HD
ATOM     22  H   UNL     1      -2.051  -0.234   2.035  0.00  0.00    -0.081 HD
ENDROOT
BRANCH  15  23
ATOM     23  C   UNL     1      -7.061  -0.964   0.613  0.00  0.00    -0.021 A 
ATOM     24  C   UNL     1      -7.303   0.030  -0.317  0.00  0.00    +0.006 A 
ATOM     25  C   UNL     1      -6.781   1.296  -0.127  0.00  0.00    +0.004 A 
ATOM     26  C   UNL     1      -6.019   1.568   0.994  0.00  0.00    -0.050 A 
ATOM     27  C   UNL     1      -5.778   0.574   1.924  0.00  0.00    +0.004 A 
ATOM     28  C   UNL     1      -6.303  -0.691   1.736  0.00  0.00    +0.006 A 
ATOM     29  C   UNL     1      -5.449   2.948   1.200  0.00  0.00    +0.044 C 
ENDBRANCH  15  23
BRANCH   1  31
ATOM     30  C   UNL     1       0.025   1.271   1.588  0.00  0.00    -0.017 C 
ATOM     31  C   UNL     1      -0.032  -0.251   1.738  0.00  0.00    -0.082 C 
ENDBRANCH   1  31
BRANCH  20  32
ATOM     32  C   UNL     1      -6.997  -5.122   4.402  0.00  0.00    +0.106 C 
BRANCH  32  33
ATOM     33  C   UNL     1      -5.977  -6.106   4.978  0.00  0.00    +0.022 C 
BRANCH  33  34
ATOM     34  C   UNL     1      -6.465  -6.609   6.338  0.00  0.00    -0.016 C 
ATOM     35  C   UNL     1      -5.509  -7.684   6.857  0.00  0.00    +0.007 C 
ATOM     36  C   UNL     1      -6.507  -5.443   7.328  0.00  0.00    +0.007 C 
ENDBRANCH  33  34
ENDBRANCH  32  33
ENDBRANCH  20  32
TORSDOF 5
