REMARK  Name = ZINC10275840
REMARK  8 active torsions:
REMARK  status: ('A' for Active; 'I' for Inactive)
REMARK    1  A    between atoms: C_1  and  C_2
REMARK    2  A    between atoms: C_15  and  C_17
REMARK    3  A    between atoms: C_17  and  N_18
REMARK    4  A    between atoms: N_18  and  C_19
REMARK    5  A    between atoms: C_20  and  C_22
REMARK    6  A    between atoms: C_22  and  C_24
REMARK    7  A    between atoms: C_22  and  S_30
REMARK    8  A    between atoms: S_30  and  C_31
REMARK                            x       y       z     vdW  Elec       q    Type
REMARK                         _______ _______ _______ _____ _____    ______ ____
ROOT
ATOM      1  N   UNL     1       5.638  -0.146   0.990  0.00  0.00    -0.295 N 
ATOM      2  C   UNL     1       5.840  -1.373   0.214  0.00  0.00    +0.132 C 
ATOM      3  C   UNL     1       6.655   0.722   1.155  0.00  0.00    +0.233 C 
ATOM      4  O   UNL     1       6.487   1.738   1.797  0.00  0.00    -0.274 OA
ENDROOT
BRANCH   1   5
ATOM      5  C   UNL     1       4.329   0.136   1.585  0.00  0.00    +0.203 C 
BRANCH   5  19
ATOM      6  C   UNL     1       1.395   3.522   0.409  0.00  0.00    +0.029 C 
ATOM      7  C   UNL     1       1.411   2.047  -0.000  0.00  0.00    +0.087 C 
ATOM      8  C   UNL     1      -0.018   1.502   0.010  0.00  0.00    +0.118 C 
ATOM      9  C   UNL     1       0.002  -0.004   0.002  0.00  0.00    +0.219 C 
ATOM     10  O   UNL     1      -0.266  -0.604  -1.018  0.00  0.00    -0.275 OA
ATOM     11  N   UNL     1       0.316  -0.692   1.122  0.00  0.00    -0.284 N 
ATOM     12  C   UNL     1       0.715  -0.018   2.283  0.00  0.00    +0.055 A 
ATOM     13  C   UNL     1       0.145  -0.315   3.509  0.00  0.00    +0.025 A 
ATOM     14  C   UNL     1       0.574   0.347   4.645  0.00  0.00    +0.002 A 
ATOM     15  C   UNL     1       1.571   1.302   4.559  0.00  0.00    +0.002 A 
ATOM     16  C   UNL     1       2.138   1.611   3.337  0.00  0.00    +0.025 A 
ATOM     17  C   UNL     1       1.704   0.961   2.192  0.00  0.00    +0.058 A 
ATOM     18  N   UNL     1       2.239   1.290   0.939  0.00  0.00    -0.265 N 
ATOM     19  C   UNL     1       3.490   0.916   0.606  0.00  0.00    +0.237 C 
ATOM     20  O   UNL     1       3.940   1.208  -0.482  0.00  0.00    -0.274 OA
ATOM     21  H   UNL     1       0.265  -1.661   1.122  0.00  0.00    +0.155 HD
ENDBRANCH   5  19
ENDBRANCH   1   5
BRANCH   3  22
ATOM     22  C   UNL     1       8.001   0.432   0.543  0.00  0.00    +0.167 C 
BRANCH  22  23
ATOM     23  C   UNL     1       8.746  -0.549   1.411  0.00  0.00    -0.025 A 
ATOM     24  C   UNL     1       9.044  -0.225   2.721  0.00  0.00    +0.005 A 
ATOM     25  C   UNL     1       9.724  -1.126   3.519  0.00  0.00    +0.000 A 
ATOM     26  C   UNL     1      10.115  -2.348   3.003  0.00  0.00    +0.000 A 
ATOM     27  C   UNL     1       9.822  -2.670   1.691  0.00  0.00    +0.000 A 
ATOM     28  C   UNL     1       9.138  -1.770   0.895  0.00  0.00    +0.005 A 
ENDBRANCH  22  23
BRANCH  22  29
ATOM     29  S   UNL     1       8.952   1.971   0.415  0.00  0.00    -0.108 S 
BRANCH  29  30
ATOM     30  C   UNL     1      10.417   1.497  -0.443  0.00  0.00    +0.009 A 
ATOM     31  C   UNL     1      10.598   0.176  -0.835  0.00  0.00    +0.015 A 
ATOM     32  C   UNL     1      11.744  -0.190  -1.512  0.00  0.00    +0.001 A 
ATOM     33  C   UNL     1      12.717   0.753  -1.789  0.00  0.00    +0.000 A 
ATOM     34  C   UNL     1      12.543   2.067  -1.395  0.00  0.00    +0.001 A 
ATOM     35  C   UNL     1      11.396   2.442  -0.723  0.00  0.00    +0.015 A 
ENDBRANCH  29  30
ENDBRANCH  22  29
ENDBRANCH   3  22
TORSDOF 6
