REMARK  Name = ZINC63137468
REMARK  12 active torsions:
REMARK  status: ('A' for Active; 'I' for Inactive)
REMARK    1  A    between atoms: C_1  and  C_2
REMARK    2  A    between atoms: C_2  and  C_3
REMARK    3  A    between atoms: C_2  and  O_4
REMARK    4  A    between atoms: O_4  and  C_5
REMARK    5  A    between atoms: C_5  and  C_6
REMARK    6  A    between atoms: C_6  and  C_7
REMARK    7  A    between atoms: C_7  and  N_8
REMARK    8  A    between atoms: C_28  and  C_30
REMARK    9  A    between atoms: C_34  and  O_38
REMARK   10  A    between atoms: C_35  and  O_36
REMARK   11  A    between atoms: O_36  and  C_37
REMARK   12  A    between atoms: O_38  and  C_39
REMARK                            x       y       z     vdW  Elec       q    Type
REMARK                         _______ _______ _______ _____ _____    ______ ____
ROOT
ATOM      1  N   UNL     1      -4.541  -3.946  -1.209  0.00  0.00    -0.291 N 
ATOM      2  C   UNL     1      -5.057  -4.753  -0.088  0.00  0.00    +0.203 C 
ATOM      3  C   UNL     1      -6.363  -4.147   0.379  0.00  0.00    +0.234 C 
ATOM      4  O   UNL     1      -6.612  -4.008   1.558  0.00  0.00    -0.274 OA
ATOM      5  N   UNL     1      -7.253  -3.762  -0.594  0.00  0.00    -0.279 N 
ATOM      6  C   UNL     1      -6.856  -4.062  -1.953  0.00  0.00    +0.167 C 
ATOM      7  C   UNL     1      -5.439  -3.597  -2.178  0.00  0.00    +0.237 C 
ATOM      8  O   UNL     1      -5.117  -2.957  -3.156  0.00  0.00    -0.274 OA
ATOM      9  C   UNL     1      -7.777  -3.655  -3.074  0.00  0.00    +0.065 C 
ATOM     10  C   UNL     1      -8.877  -2.780  -2.539  0.00  0.00    -0.034 C 
ATOM     11  C   UNL     1      -9.453  -1.684  -3.014  0.00  0.00    -0.001 A 
ATOM     12  C   UNL     1      -9.257  -0.939  -4.269  0.00  0.00    +0.010 A 
ATOM     13  C   UNL     1     -10.025   0.170  -4.434  0.00  0.00    +0.001 A 
ATOM     14  C   UNL     1     -10.957   0.609  -3.489  0.00  0.00    +0.002 A 
ATOM     15  C   UNL     1     -11.205  -0.016  -2.310  0.00  0.00    +0.026 A 
ATOM     16  C   UNL     1     -10.461  -1.198  -2.024  0.00  0.00    +0.043 A 
ATOM     17  N   UNL     1     -10.503  -1.988  -0.994  0.00  0.00    -0.375 N 
ATOM     18  C   UNL     1      -9.552  -3.087  -1.204  0.00  0.00    +0.131 C 
ATOM     19  C   UNL     1      -8.451  -3.063  -0.154  0.00  0.00    +0.137 C 
ATOM     20  H   UNL     1     -11.068  -1.871  -0.214  0.00  0.00    +0.160 HD
ENDROOT
BRANCH  19  21
ATOM     21  C   UNL     1      -8.109  -1.619   0.108  0.00  0.00    +0.021 A 
ATOM     22  C   UNL     1      -7.035  -1.035  -0.539  0.00  0.00    +0.009 A 
ATOM     23  C   UNL     1      -6.718   0.289  -0.301  0.00  0.00    +0.004 A 
ATOM     24  C   UNL     1      -7.472   1.036   0.585  0.00  0.00    +0.049 A 
ATOM     25  C   UNL     1      -8.549   0.457   1.236  0.00  0.00    +0.162 A 
ATOM     26  C   UNL     1      -8.872  -0.875   0.992  0.00  0.00    +0.166 A 
BRANCH  26  27
ATOM     27  O   UNL     1      -9.932  -1.446   1.625  0.00  0.00    -0.491 OA
ATOM     28  C   UNL     1      -9.675  -2.073   2.883  0.00  0.00    +0.277 C 
ENDBRANCH  26  27
BRANCH  25  29
ATOM     29  O   UNL     1      -9.293   1.190   2.108  0.00  0.00    -0.491 OA
ATOM     30  C   UNL     1      -8.906   2.551   2.305  0.00  0.00    +0.277 C 
ENDBRANCH  25  29
ENDBRANCH  19  21
BRANCH   1  31
ATOM     31  C   UNL     1      -3.137  -3.534  -1.278  0.00  0.00    +0.110 C 
BRANCH  31  32
ATOM     32  C   UNL     1      -2.965  -2.187  -0.574  0.00  0.00    +0.047 C 
BRANCH  32  33
ATOM     33  C   UNL     1      -1.499  -1.757  -0.646  0.00  0.00    +0.161 C 
BRANCH  33  34
ATOM     34  O   UNL     1      -1.339  -0.499   0.012  0.00  0.00    -0.377 OA
BRANCH  34  36
ATOM     35  C   UNL     1      -0.019   1.526   0.010  0.00  0.00    +0.037 C 
ATOM     36  C   UNL     1       0.002  -0.004   0.002  0.00  0.00    +0.112 C 
ATOM     37  C   UNL     1       0.742  -0.511   1.242  0.00  0.00    +0.037 C 
ENDBRANCH  34  36
ENDBRANCH  33  34
ENDBRANCH  32  33
ENDBRANCH  31  32
ENDBRANCH   1  31
TORSDOF 8
