REMARK  Name = ZINC12891134
REMARK  12 active torsions:
REMARK  status: ('A' for Active; 'I' for Inactive)
REMARK    1  A    between atoms: C_1  and  C_2
REMARK    2  A    between atoms: C_2  and  C_4
REMARK    3  A    between atoms: C_2  and  N_8
REMARK    4  A    between atoms: C_4  and  O_6
REMARK    5  A    between atoms: O_6  and  C_7
REMARK    6  A    between atoms: C_16  and  O_32
REMARK    7  A    between atoms: C_17  and  O_30
REMARK    8  A    between atoms: C_20  and  C_22
REMARK    9  A    between atoms: C_25  and  O_28
REMARK   10  A    between atoms: O_28  and  C_29
REMARK   11  A    between atoms: O_30  and  C_31
REMARK   12  A    between atoms: O_32  and  C_33
REMARK                            x       y       z     vdW  Elec       q    Type
REMARK                         _______ _______ _______ _____ _____    ______ ____
ROOT
ATOM      1  N   UNL     1       3.542  -4.894  -0.805  0.00  0.00    -0.286 N 
ATOM      2  C   UNL     1       2.386  -4.210  -0.694  0.00  0.00    +0.304 C 
ATOM      3  O   UNL     1       1.365  -4.659  -1.177  0.00  0.00    -0.253 OA
ATOM      4  N   UNL     1       2.363  -3.027  -0.048  0.00  0.00    -0.274 N 
ATOM      5  C   UNL     1       3.557  -2.505   0.637  0.00  0.00    +0.115 C 
ATOM      6  C   UNL     1       3.979  -1.218  -0.070  0.00  0.00    +0.054 C 
ATOM      7  C   UNL     1       2.796  -0.312  -0.286  0.00  0.00    -0.037 A 
ATOM      8  C   UNL     1       3.051   1.036  -0.514  0.00  0.00    +0.053 A 
ATOM      9  C   UNL     1       2.014   1.921  -0.735  0.00  0.00    +0.162 A 
ATOM     10  C   UNL     1       0.700   1.460  -0.729  0.00  0.00    +0.162 A 
ATOM     11  C   UNL     1       0.449   0.120  -0.497  0.00  0.00    +0.055 A 
ATOM     12  C   UNL     1       1.496  -0.765  -0.271  0.00  0.00    -0.016 A 
ATOM     13  C   UNL     1       1.147  -2.208  -0.001  0.00  0.00    +0.138 C 
ATOM     14  H   UNL     1       4.340  -4.574  -0.357  0.00  0.00    +0.151 HD
ENDROOT
BRANCH  13  15
ATOM     15  C   UNL     1       0.174  -2.693  -1.044  0.00  0.00    -0.022 A 
ATOM     16  C   UNL     1       0.585  -2.835  -2.357  0.00  0.00    +0.009 A 
ATOM     17  C   UNL     1      -0.304  -3.285  -3.314  0.00  0.00    +0.046 A 
ATOM     18  C   UNL     1      -1.612  -3.583  -2.960  0.00  0.00    +0.120 A 
ATOM     19  C   UNL     1      -2.022  -3.434  -1.643  0.00  0.00    +0.046 A 
ATOM     20  C   UNL     1      -1.128  -2.990  -0.688  0.00  0.00    +0.009 A 
BRANCH  18  21
ATOM     21  O   UNL     1      -2.489  -4.020  -3.901  0.00  0.00    -0.495 OA
ATOM     22  C   UNL     1      -1.997  -4.150  -5.236  0.00  0.00    +0.277 C 
ENDBRANCH  18  21
ENDBRANCH  13  15
BRANCH   1  24
ATOM     23  C   UNL     1       3.832  -5.767  -3.071  0.00  0.00    +0.040 C 
ATOM     24  C   UNL     1       3.592  -6.122  -1.602  0.00  0.00    +0.180 C 
BRANCH  24  25
ATOM     25  C   UNL     1       4.715  -6.997  -1.107  0.00  0.00    +0.327 C 
ATOM     26  O   UNL     1       5.402  -6.632  -0.183  0.00  0.00    -0.249 OA
BRANCH  25  27
ATOM     27  O   UNL     1       4.951  -8.182  -1.692  0.00  0.00    -0.467 OA
ATOM     28  C   UNL     1       6.048  -8.972  -1.163  0.00  0.00    +0.280 C 
ENDBRANCH  25  27
ENDBRANCH  24  25
ENDBRANCH   1  24
BRANCH  10  29
ATOM     29  O   UNL     1      -0.329   2.320  -0.955  0.00  0.00    -0.491 OA
ATOM     30  C   UNL     1      -1.648   1.771  -0.939  0.00  0.00    +0.277 C 
ENDBRANCH  10  29
BRANCH   9  31
ATOM     31  O   UNL     1       2.274   3.238  -0.957  0.00  0.00    -0.491 OA
ATOM     32  C   UNL     1       3.646   3.638  -0.949  0.00  0.00    +0.277 C 
ENDBRANCH   9  31
TORSDOF 7
