REMARK  Name = ZINC09391509
REMARK  17 active torsions:
REMARK  status: ('A' for Active; 'I' for Inactive)
REMARK    1  A    between atoms: C_1  and  C_2
REMARK    2  A    between atoms: C_2  and  C_3
REMARK    3  A    between atoms: C_3  and  C_4
REMARK    4  A    between atoms: C_4  and  N_5
REMARK    5  A    between atoms: N_5  and  C_6
REMARK    6  A    between atoms: N_5  and  S_7
REMARK    7  A    between atoms: S_7  and  C_10
REMARK    8  A    between atoms: C_13  and  C_16
REMARK    9  A    between atoms: N_18  and  C_19
REMARK   10  A    between atoms: C_20  and  C_31
REMARK   11  A    between atoms: C_24  and  C_29
REMARK   12  A    between atoms: C_24  and  C_30
REMARK   13  A    between atoms: C_25  and  C_27
REMARK   14  A    between atoms: C_25  and  C_28
REMARK   15  A    between atoms: C_31  and  O_33
REMARK   16  A    between atoms: O_33  and  C_34
REMARK   17  A    between atoms: C_34  and  C_35
REMARK                            x       y       z     vdW  Elec       q    Type
REMARK                         _______ _______ _______ _____ _____    ______ ____
ROOT
ATOM      1  C   UNL     1      -3.635   4.662   6.554  0.00  0.00    +0.086 A 
ATOM      2  C   UNL     1      -3.568   5.863   7.255  0.00  0.00    +0.091 A 
ATOM      3  C   UNL     1      -4.436   6.010   8.404  0.00  0.00    -0.024 A 
ATOM      4  C   UNL     1      -5.222   4.945   8.682  0.00  0.00    -0.016 A 
ATOM      5  S   UNL     1      -4.828   3.759   7.429  0.00  0.00    -0.079 S 
ATOM      6  C   UNL     1      -6.192   4.826   9.813  0.00  0.00    -0.041 C 
ATOM      7  C   UNL     1      -5.974   7.313   9.821  0.00  0.00    -0.069 C 
ATOM      8  C   UNL     1      -4.535   7.240   9.296  0.00  0.00    +0.024 C 
ATOM      9  C   UNL     1      -6.922   7.612   8.656  0.00  0.00    -0.010 C 
ATOM     10  C   UNL     1      -6.056   8.489  10.812  0.00  0.00    -0.010 C 
ATOM     11  C   UNL     1      -7.540   4.324   9.277  0.00  0.00    -0.005 C 
ATOM     12  C   UNL     1      -5.654   3.776  10.804  0.00  0.00    -0.005 C 
ATOM     13  N   UNL     1      -6.386   6.097  10.568  0.00  0.00    +0.389 N 
ATOM     14  H   UNL     1      -5.833   6.046  11.432  0.00  0.00    -0.084 HD
ATOM     15  H   UNL     1      -7.381   6.184  10.803  0.00  0.00    -0.084 HD
ENDROOT
BRANCH   1  18
ATOM     16  C   UNL     1      -3.120   3.066   4.884  0.00  0.00    +0.249 C 
ATOM     17  O   UNL     1      -3.929   2.304   5.377  0.00  0.00    -0.270 OA
ATOM     18  N   UNL     1      -2.920   4.281   5.431  0.00  0.00    -0.275 N 
ATOM     19  H   UNL     1      -2.275   4.890   5.039  0.00  0.00    +0.156 HD
BRANCH  16  23
ATOM     20  C   UNL     1      -0.927   1.900   1.439  0.00  0.00    +0.106 A 
ATOM     21  C   UNL     1      -0.715   3.147   2.002  0.00  0.00    +0.029 A 
ATOM     22  C   UNL     1      -1.427   3.534   3.118  0.00  0.00    +0.015 A 
ATOM     23  C   UNL     1      -2.357   2.660   3.686  0.00  0.00    +0.037 A 
ATOM     24  C   UNL     1      -2.562   1.402   3.117  0.00  0.00    +0.015 A 
ATOM     25  C   UNL     1      -1.846   1.030   1.998  0.00  0.00    +0.029 A 
BRANCH  20  26
ATOM     26  S   UNL     1      -0.017   1.417   0.010  0.00  0.00    +0.061 S 
ATOM     27  O   UNL     1       0.002  -0.004   0.002  0.00  0.00    -0.153 OA
ATOM     28  O   UNL     1       1.172   2.195   0.003  0.00  0.00    -0.153 OA
BRANCH  26  29
ATOM     29  N   UNL     1      -0.897   1.885  -1.312  0.00  0.00    -0.180 NA
ATOM     30  C   UNL     1      -0.691   3.213  -1.897  0.00  0.00    +0.131 C 
BRANCH  29  31
ATOM     31  C   UNL     1      -1.883   0.973  -1.897  0.00  0.00    +0.109 C 
BRANCH  31  32
ATOM     32  C   UNL     1      -3.267   1.280  -1.323  0.00  0.00    +0.017 C 
BRANCH  32  34
ATOM     33  C   UNL     1      -5.680   0.634  -1.359  0.00  0.00    +0.004 C 
ATOM     34  C   UNL     1      -4.296   0.327  -1.934  0.00  0.00    -0.002 C 
ENDBRANCH  32  34
ENDBRANCH  31  32
ENDBRANCH  29  31
ENDBRANCH  26  29
ENDBRANCH  20  26
ENDBRANCH  16  23
ENDBRANCH   1  18
BRANCH   2  35
ATOM     35  C   UNL     1      -2.650   6.925   6.838  0.00  0.00    +0.342 C 
ATOM     36  O   UNL     1      -3.018   7.770   6.044  0.00  0.00    -0.245 OA
BRANCH  35  37
ATOM     37  O   UNL     1      -1.396   6.965   7.334  0.00  0.00    -0.461 OA
BRANCH  37  38
ATOM     38  C   UNL     1      -0.541   8.046   6.876  0.00  0.00    +0.229 C 
ATOM     39  C   UNL     1       0.831   7.927   7.542  0.00  0.00    +0.048 C 
ENDBRANCH  37  38
ENDBRANCH  35  37
ENDBRANCH   2  35
TORSDOF 10
