REMARK  Name = ZINC15946050
REMARK  9 active torsions:
REMARK  status: ('A' for Active; 'I' for Inactive)
REMARK    1  A    between atoms: C_1  and  C_2
REMARK    2  A    between atoms: C_2  and  C_3
REMARK    3  A    between atoms: C_2  and  C_4
REMARK    4  A    between atoms: C_2  and  C_5
REMARK    5  A    between atoms: C_12  and  N_23
REMARK    6  A    between atoms: C_13  and  C_14
REMARK    7  A    between atoms: N_16  and  C_17
REMARK    8  A    between atoms: C_24  and  C_26
REMARK    9  A    between atoms: C_26  and  N_70
REMARK                            x       y       z     vdW  Elec       q    Type
REMARK                         _______ _______ _______ _____ _____    ______ ____
ROOT
ATOM      1  C   UNL     1       4.003  -1.316  -0.885  0.00  0.00    -0.000 C 
ATOM      2  C   UNL     1       4.645  -0.174  -0.092  0.00  0.00    +0.009 C 
ATOM      3  C   UNL     1       3.921   1.139  -0.394  0.00  0.00    +0.037 C 
ATOM      4  C   UNL     1       2.427   0.938  -0.175  0.00  0.00    -0.023 A 
ATOM      5  C   UNL     1       1.890  -0.301  -0.141  0.00  0.00    -0.004 A 
ATOM      6  S   UNL     1       0.161  -0.037   0.133  0.00  0.00    -0.077 S 
ATOM      7  C   UNL     1       0.150   1.694   0.202  0.00  0.00    +0.084 A 
ATOM      8  C   UNL     1       1.483   2.027   0.011  0.00  0.00    +0.069 A 
ATOM      9  C   UNL     1       2.612  -1.603  -0.302  0.00  0.00    +0.046 C 
ENDROOT
BRANCH   1  11
ATOM     10  C   UNL     1       4.221  -3.714  -1.555  0.00  0.00    +0.011 C 
ATOM     11  C   UNL     1       4.873  -2.570  -0.776  0.00  0.00    -0.035 C 
ATOM     12  C   UNL     1       6.258  -2.281  -1.358  0.00  0.00    +0.011 C 
ATOM     13  C   UNL     1       5.011  -2.968   0.695  0.00  0.00    +0.011 C 
ENDBRANCH   1  11
BRANCH   8  14
ATOM     14  C   UNL     1       1.924   3.425  -0.002  0.00  0.00    +0.251 C 
ATOM     15  O   UNL     1       2.266   3.965   1.033  0.00  0.00    -0.270 OA
ATOM     16  N   UNL     1       1.950   4.113  -1.161  0.00  0.00    -0.281 N 
ATOM     17  H   UNL     1       1.751   3.662  -1.997  0.00  0.00    +0.155 HD
BRANCH  16  18
ATOM     18  C   UNL     1       2.264   5.476  -1.159  0.00  0.00    +0.034 A 
ATOM     19  C   UNL     1       1.885   6.275  -0.088  0.00  0.00    +0.023 A 
ATOM     20  C   UNL     1       2.202   7.619  -0.086  0.00  0.00    +0.002 A 
ATOM     21  C   UNL     1       2.885   8.172  -1.154  0.00  0.00    +0.000 A 
ATOM     22  C   UNL     1       3.258   7.380  -2.224  0.00  0.00    +0.002 A 
ATOM     23  C   UNL     1       2.949   6.034  -2.230  0.00  0.00    +0.023 A 
ENDBRANCH  16  18
ENDBRANCH   8  14
BRANCH   7  24
ATOM     24  N   UNL     1      -0.931   2.542   0.394  0.00  0.00    -0.281 N 
ATOM     25  C   UNL     1      -2.167   2.031   0.558  0.00  0.00    +0.201 C 
ATOM     26  O   UNL     1      -2.335   0.830   0.537  0.00  0.00    -0.278 OA
ATOM     27  H   UNL     1      -0.797   3.503   0.411  0.00  0.00    +0.155 HD
BRANCH  25  28
ATOM     28  C   UNL     1      -3.341   2.953   0.767  0.00  0.00    +0.019 C 
BRANCH  28  35
ATOM     29  C   UNL     1      -4.834   1.358  -0.298  0.00  0.00    -0.078 C 
ATOM     30  C   UNL     1      -6.207   0.742  -0.302  0.00  0.00    -0.019 C 
ATOM     31  C   UNL     1      -7.167   1.690  -1.051  0.00  0.00    -0.002 C 
ATOM     32  C   UNL     1      -7.587   2.815  -0.224  0.00  0.00    -0.002 C 
ATOM     33  C   UNL     1      -6.395   3.690   0.219  0.00  0.00    -0.019 C 
ATOM     34  C   UNL     1      -5.697   3.004   1.361  0.00  0.00    -0.078 C 
ATOM     35  N   UNL     1      -4.544   2.127   0.960  0.00  0.00    +0.385 N 
ATOM     36  H   UNL     1      -4.369   1.456   1.716  0.00  0.00    -0.081 HD
ENDBRANCH  28  35
ENDBRANCH  25  28
ENDBRANCH   7  24
TORSDOF 6
