REMARK  Name = ZINC02659607
REMARK  9 active torsions:
REMARK  status: ('A' for Active; 'I' for Inactive)
REMARK    1  A    between atoms: C_1  and  C_2
REMARK    2  A    between atoms: C_3  and  C_36
REMARK    3  A    between atoms: C_5  and  N_28
REMARK    4  A    between atoms: C_6  and  C_7
REMARK    5  A    between atoms: C_7  and  C_9
REMARK    6  A    between atoms: C_7  and  N_66
REMARK    7  A    between atoms: C_20  and  C_27
REMARK    8  A    between atoms: C_23  and  C_26
REMARK    9  A    between atoms: C_29  and  C_31
REMARK                            x       y       z     vdW  Elec       q    Type
REMARK                         _______ _______ _______ _____ _____    ______ ____
ROOT
ATOM      1  C   UNL     1       3.676  -0.687  -0.043  0.00  0.00    -0.004 C 
ENDROOT
BRANCH   1   2
ATOM      2  C   UNL     1       2.397   0.109  -0.050  0.00  0.00    -0.053 A 
ATOM      3  C   UNL     1       2.444   1.491  -0.031  0.00  0.00    +0.006 A 
ATOM      4  C   UNL     1       1.273   2.224  -0.035  0.00  0.00    +0.049 A 
ATOM      5  C   UNL     1       0.047   1.576  -0.059  0.00  0.00    +0.162 A 
ATOM      6  C   UNL     1      -0.001   0.187  -0.082  0.00  0.00    +0.162 A 
ATOM      7  C   UNL     1       1.179  -0.543  -0.076  0.00  0.00    +0.051 A 
ATOM      8  O   UNL     1      -1.193  -0.469  -0.114  0.00  0.00    -0.485 OA
ATOM      9  C   UNL     1      -2.351   0.284   0.261  0.00  0.00    +0.270 C 
ATOM     10  C   UNL     1      -2.297   1.639  -0.458  0.00  0.00    +0.270 C 
ATOM     11  O   UNL     1      -1.098   2.312  -0.055  0.00  0.00    -0.485 OA
ENDBRANCH   1   2
BRANCH   1  19
ATOM     12  C   UNL     1       4.215   0.161   2.159  0.00  0.00    -0.074 C 
ATOM     13  C   UNL     1       5.218   1.011   2.943  0.00  0.00    -0.031 C 
ATOM     14  C   UNL     1       6.588   0.328   2.919  0.00  0.00    +0.003 C 
ATOM     15  C   UNL     1       7.027   0.135   1.465  0.00  0.00    -0.031 C 
ATOM     16  C   UNL     1       5.972  -0.690   0.724  0.00  0.00    -0.074 C 
ATOM     17  C   UNL     1       8.369  -0.600   1.430  0.00  0.00    +0.005 C 
ATOM     18  C   UNL     1       4.744   1.154   4.391  0.00  0.00    +0.005 C 
ATOM     19  N   UNL     1       4.684   0.033   0.762  0.00  0.00    +0.387 N 
ATOM     20  H   UNL     1       4.816   0.972   0.368  0.00  0.00    -0.080 HD
ENDBRANCH   1  19
BRANCH   1  26
ATOM     21  C   UNL     1       3.329  -3.185  -1.504  0.00  0.00    +0.045 C 
ATOM     22  C   UNL     1       4.023  -2.012  -2.148  0.00  0.00    -0.037 A 
ATOM     23  C   UNL     1       4.490  -2.103  -3.416  0.00  0.00    -0.008 A 
ATOM     24  S   UNL     1       5.203  -0.486  -3.668  0.00  0.00    -0.078 S 
ATOM     25  C   UNL     1       4.826   0.208  -2.067  0.00  0.00    +0.074 A 
ATOM     26  C   UNL     1       4.188  -0.828  -1.454  0.00  0.00    -0.025 A 
ATOM     27  C   UNL     1       4.428  -3.270  -4.368  0.00  0.00    +0.052 C 
BRANCH  25  28
ATOM     28  N   UNL     1       5.110   1.483  -1.572  0.00  0.00    -0.273 N 
ATOM     29  C   UNL     1       5.648   2.416  -2.382  0.00  0.00    +0.284 C 
ATOM     30  O   UNL     1       5.886   2.148  -3.546  0.00  0.00    -0.266 OA
ATOM     31  H   UNL     1       4.921   1.696  -0.645  0.00  0.00    +0.156 HD
BRANCH  29  32
ATOM     32  C   UNL     1       5.947   3.754  -1.862  0.00  0.00    +0.189 A 
ATOM     33  C   UNL     1       6.489   4.788  -2.571  0.00  0.00    +0.054 A 
ATOM     34  C   UNL     1       6.599   5.871  -1.685  0.00  0.00    +0.042 A 
ATOM     35  C   UNL     1       6.125   5.456  -0.489  0.00  0.00    +0.196 A 
ATOM     36  O   UNL     1       5.728   4.182  -0.602  0.00  0.00    -0.458 OA
ENDBRANCH  29  32
ENDBRANCH  25  28
ENDBRANCH   1  26
TORSDOF 5
