REMARK  Name = ZINC02996706
REMARK  12 active torsions:
REMARK  status: ('A' for Active; 'I' for Inactive)
REMARK    1  A    between atoms: C_1  and  C_2
REMARK    2  A    between atoms: C_3  and  C_32
REMARK    3  A    between atoms: C_4  and  C_23
REMARK    4  A    between atoms: C_10  and  C_15
REMARK    5  A    between atoms: C_20  and  O_21
REMARK    6  A    between atoms: O_21  and  C_22
REMARK    7  A    between atoms: C_26  and  N_29
REMARK    8  A    between atoms: C_32  and  O_34
REMARK    9  A    between atoms: O_34  and  C_35
REMARK   10  A    between atoms: C_35  and  C_36
REMARK   11  A    between atoms: C_36  and  O_37
REMARK   12  A    between atoms: O_37  and  C_38
REMARK                            x       y       z     vdW  Elec       q    Type
REMARK                         _______ _______ _______ _____ _____    ______ ____
ROOT
ATOM      1  C   UNL     1      -0.314  10.057  -3.712  0.00  0.00    +0.061 C 
ATOM      2  C   UNL     1      -0.659   9.401  -2.400  0.00  0.00    +0.016 C 
ATOM      3  C   UNL     1      -0.442  10.057  -1.247  0.00  0.00    +0.065 C 
ATOM      4  C   UNL     1      -0.779   9.438   0.077  0.00  0.00    +0.092 C 
ATOM      5  C   UNL     1      -0.942   7.944  -0.051  0.00  0.00    +0.024 C 
ATOM      6  C   UNL     1      -1.147   7.374  -1.257  0.00  0.00    +0.016 C 
ATOM      7  N   UNL     1      -1.191   8.142  -2.390  0.00  0.00    -0.321 N 
ATOM      8  C   UNL     1      -1.336   5.883  -1.390  0.00  0.00    +0.060 C 
ATOM      9  C   UNL     1      -0.542   5.166  -0.296  0.00  0.00    +0.035 C 
ATOM     10  C   UNL     1      -1.027   5.670   1.067  0.00  0.00    +0.088 C 
ATOM     11  C   UNL     1      -0.880   7.166   1.118  0.00  0.00    +0.162 C 
ATOM     12  O   UNL     1      -0.705   7.712   2.189  0.00  0.00    -0.292 OA
ATOM     13  H   UNL     1      -1.660   7.736  -3.299  0.00  0.00    +0.152 HD
ENDROOT
BRANCH   9  14
ATOM     14  C   UNL     1      -0.769   3.680  -0.397  0.00  0.00    -0.002 A 
ATOM     15  C   UNL     1      -2.048   3.167  -0.292  0.00  0.00    +0.007 A 
ATOM     16  C   UNL     1      -2.257   1.804  -0.390  0.00  0.00    +0.001 A 
ATOM     17  C   UNL     1      -1.187   0.950  -0.584  0.00  0.00    +0.004 A 
ATOM     18  C   UNL     1       0.093   1.457  -0.690  0.00  0.00    +0.046 A 
ATOM     19  C   UNL     1       0.305   2.825  -0.597  0.00  0.00    +0.124 A 
BRANCH  19  20
ATOM     20  O   UNL     1       1.564   3.327  -0.700  0.00  0.00    -0.495 OA
ATOM     21  C   UNL     1       2.622   2.388  -0.904  0.00  0.00    +0.277 C 
ENDBRANCH  19  20
ENDBRANCH   9  14
BRANCH   4  22
ATOM     22  C   UNL     1      -2.064  10.034   0.590  0.00  0.00    -0.035 A 
ATOM     23  C   UNL     1      -3.232   9.888  -0.136  0.00  0.00    +0.007 A 
ATOM     24  C   UNL     1      -4.412  10.431   0.337  0.00  0.00    +0.033 A 
ATOM     25  C   UNL     1      -4.422  11.130   1.529  0.00  0.00    +0.126 A 
ATOM     26  C   UNL     1      -3.254  11.281   2.252  0.00  0.00    +0.033 A 
ATOM     27  C   UNL     1      -2.075  10.733   1.782  0.00  0.00    +0.007 A 
BRANCH  25  28
ATOM     28  N   UNL     1      -5.685  11.716   2.032  0.00  0.00    +0.056 N 
ATOM     29  O   UNL     1      -5.694  12.332   3.083  0.00  0.00    -0.126 OA
ATOM     30  O   UNL     1      -6.715  11.583   1.395  0.00  0.00    -0.126 OA
ENDBRANCH  25  28
ENDBRANCH   4  22
BRANCH   3  31
ATOM     31  C   UNL     1       0.116  11.357  -1.284  0.00  0.00    +0.338 C 
ATOM     32  O   UNL     1       0.507  11.822  -2.338  0.00  0.00    -0.245 OA
BRANCH  31  33
ATOM     33  O   UNL     1       0.215  12.081  -0.149  0.00  0.00    -0.459 OA
BRANCH  33  34
ATOM     34  C   UNL     1       0.788  13.385  -0.259  0.00  0.00    +0.260 C 
BRANCH  34  35
ATOM     35  C   UNL     1       0.816  14.048   1.119  0.00  0.00    +0.200 C 
BRANCH  35  36
ATOM     36  O   UNL     1       1.694  13.320   1.980  0.00  0.00    -0.380 OA
ATOM     37  C   UNL     1       1.793  13.860   3.300  0.00  0.00    +0.194 C 
ENDBRANCH  35  36
ENDBRANCH  34  35
ENDBRANCH  33  34
ENDBRANCH  31  33
ENDBRANCH   3  31
TORSDOF 9
