REMARK  Name = ZINC51675709
REMARK  5 active torsions:
REMARK  status: ('A' for Active; 'I' for Inactive)
REMARK    1  A    between atoms: C_1  and  C_2
REMARK    2  A    between atoms: C_7  and  N_12
REMARK    3  A    between atoms: C_9  and  C_11
REMARK    4  A    between atoms: C_19  and  C_22
REMARK    5  A    between atoms: N_24  and  C_25
REMARK                            x       y       z     vdW  Elec       q    Type
REMARK                         _______ _______ _______ _____ _____    ______ ____
ROOT
ATOM      1  N   UNL     1       1.989  -4.508   1.300  0.00  0.00    -0.296 N 
ATOM      2  C   UNL     1       2.056  -3.740   2.406  0.00  0.00    +0.302 C 
ATOM      3  O   UNL     1       1.609  -2.610   2.389  0.00  0.00    -0.253 OA
ATOM      4  N   UNL     1       2.620  -4.225   3.530  0.00  0.00    -0.285 N 
ATOM      5  C   UNL     1       2.598  -3.446   4.775  0.00  0.00    +0.109 C 
ATOM      6  C   UNL     1       2.001  -4.312   5.889  0.00  0.00    +0.020 C 
ATOM      7  C   UNL     1       2.784  -5.624   5.983  0.00  0.00    +0.016 C 
ATOM      8  C   UNL     1       2.664  -6.387   4.661  0.00  0.00    +0.092 C 
ATOM      9  C   UNL     1       3.263  -5.546   3.535  0.00  0.00    +0.122 C 
ATOM     10  H   UNL     1       2.410  -5.382   1.290  0.00  0.00    +0.151 HD
ENDROOT
BRANCH   1  16
ATOM     11  C   UNL     1      -0.408  -5.902  -2.793  0.00  0.00    +0.008 C 
ATOM     12  C   UNL     1       0.065  -4.709  -1.959  0.00  0.00    -0.009 C 
ATOM     13  C   UNL     1       1.006  -3.842  -2.797  0.00  0.00    +0.003 C 
ATOM     14  C   UNL     1       1.479  -2.649  -1.963  0.00  0.00    +0.002 C 
ATOM     15  C   UNL     1       2.220  -3.155  -0.724  0.00  0.00    +0.022 C 
ATOM     16  C   UNL     1       1.279  -4.023   0.114  0.00  0.00    +0.078 C 
ATOM     17  C   UNL     1       0.806  -5.216  -0.720  0.00  0.00    +0.009 C 
ATOM     18  C   UNL     1       2.016  -6.046  -1.153  0.00  0.00    +0.009 C 
ENDBRANCH   1  16
BRANCH   8  19
ATOM     19  C   UNL     1       3.407  -7.694   4.766  0.00  0.00    +0.218 C 
ATOM     20  O   UNL     1       3.976  -7.987   5.796  0.00  0.00    -0.275 OA
ATOM     21  N   UNL     1       3.439  -8.537   3.715  0.00  0.00    -0.312 N 
ATOM     22  H   UNL     1       2.984  -8.302   2.891  0.00  0.00    +0.149 HD
BRANCH  21  23
ATOM     23  C   UNL     1       4.161  -9.808   3.817  0.00  0.00    +0.073 C 
ATOM     24  C   UNL     1       5.035 -10.220   2.631  0.00  0.00    +0.024 C 
ATOM     25  C   UNL     1       3.716 -10.948   2.899  0.00  0.00    +0.024 C 
ENDBRANCH  21  23
ENDBRANCH   8  19
TORSDOF 3
