REMARK  Name = ZINC09355055
REMARK  11 active torsions:
REMARK  status: ('A' for Active; 'I' for Inactive)
REMARK    1  A    between atoms: C_1  and  C_2
REMARK    2  A    between atoms: C_2  and  O_3
REMARK    3  A    between atoms: O_3  and  C_4
REMARK    4  A    between atoms: C_4  and  C_6
REMARK    5  A    between atoms: C_7  and  C_38
REMARK    6  A    between atoms: C_14  and  C_15
REMARK    7  A    between atoms: C_18  and  N_20
REMARK    8  A    between atoms: C_27  and  C_29
REMARK    9  A    between atoms: C_32  and  N_35
REMARK   10  A    between atoms: N_35  and  C_36
REMARK   11  A    between atoms: N_35  and  C_37
REMARK                            x       y       z     vdW  Elec       q    Type
REMARK                         _______ _______ _______ _____ _____    ______ ____
ROOT
ATOM      1  C   UNL     1       2.890  -2.502  -0.552  0.00  0.00    +0.085 C 
ATOM      2  C   UNL     1       3.857  -1.593  -0.223  0.00  0.00    +0.053 C 
ATOM      3  N   UNL     1       3.540  -0.329   0.024  0.00  0.00    -0.228 NA
ATOM      4  C   UNL     1       2.324   0.159  -0.020  0.00  0.00    +0.178 A 
ATOM      5  N   UNL     1       1.209  -0.584  -0.330  0.00  0.00    -0.275 N 
ATOM      6  C   UNL     1       0.021   0.034  -0.340  0.00  0.00    +0.268 A 
ATOM      7  O   UNL     1      -1.000  -0.575  -0.608  0.00  0.00    -0.266 OA
ATOM      8  C   UNL     1      -0.015   1.416  -0.032  0.00  0.00    +0.084 A 
ATOM      9  C   UNL     1      -1.095   2.272   0.020  0.00  0.00    +0.067 C 
ATOM     10  S   UNL     1       1.712   1.754   0.264  0.00  0.00    -0.046 S 
ATOM     11  C   UNL     1       1.458  -2.022  -0.624  0.00  0.00    +0.162 C 
ATOM     12  C   UNL     1       5.297  -2.030  -0.140  0.00  0.00    +0.066 C 
ENDROOT
BRANCH  11  13
ATOM     13  C   UNL     1       0.645  -2.842   0.344  0.00  0.00    -0.020 A 
ATOM     14  C   UNL     1       0.545  -2.449   1.666  0.00  0.00    +0.008 A 
ATOM     15  C   UNL     1      -0.204  -3.194   2.555  0.00  0.00    +0.023 A 
ATOM     16  C   UNL     1      -0.849  -4.346   2.123  0.00  0.00    +0.029 A 
ATOM     17  C   UNL     1      -0.742  -4.741   0.795  0.00  0.00    +0.023 A 
ATOM     18  C   UNL     1       0.004  -3.988  -0.090  0.00  0.00    +0.008 A 
BRANCH  16  19
ATOM     19  N   UNL     1      -1.603  -5.105   3.020  0.00  0.00    -0.336 N 
ATOM     20  C   UNL     1      -2.282  -6.320   2.562  0.00  0.00    +0.129 C 
ATOM     21  C   UNL     1      -1.714  -4.687   4.420  0.00  0.00    +0.129 C 
ENDBRANCH  16  19
ENDBRANCH  11  13
BRANCH   9  22
ATOM     22  C   UNL     1      -2.402   1.762  -0.082  0.00  0.00    +0.131 A 
ATOM     23  C   UNL     1      -3.563   2.511  -0.183  0.00  0.00    +0.051 A 
ATOM     24  C   UNL     1      -4.620   1.602  -0.262  0.00  0.00    +0.066 A 
ATOM     25  C   UNL     1      -4.081   0.349  -0.209  0.00  0.00    +0.189 A 
ATOM     26  O   UNL     1      -2.747   0.455  -0.106  0.00  0.00    -0.442 OA
BRANCH  25  27
ATOM     27  N   UNL     1      -4.791  -0.834  -0.258  0.00  0.00    -0.301 N 
ATOM     28  C   UNL     1      -5.811  -0.879   0.797  0.00  0.00    +0.108 C 
ATOM     29  C   UNL     1      -6.671  -2.132   0.624  0.00  0.00    +0.019 C 
ATOM     30  C   UNL     1      -5.777  -3.373   0.699  0.00  0.00    +0.003 C 
ATOM     31  C   UNL     1      -4.694  -3.278  -0.378  0.00  0.00    +0.019 C 
ATOM     32  C   UNL     1      -3.891  -1.991  -0.176  0.00  0.00    +0.108 C 
ENDBRANCH  25  27
ENDBRANCH   9  22
BRANCH   1  33
ATOM     33  C   UNL     1       3.217  -3.842  -0.814  0.00  0.00    +0.339 C 
ATOM     34  O   UNL     1       4.377  -4.209  -0.750  0.00  0.00    -0.245 OA
BRANCH  33  35
ATOM     35  O   UNL     1       2.246  -4.723  -1.137  0.00  0.00    -0.462 OA
BRANCH  35  37
ATOM     36  C   UNL     1       1.423  -6.915  -1.738  0.00  0.00    +0.048 C 
ATOM     37  C   UNL     1       2.651  -6.070  -1.390  0.00  0.00    +0.229 C 
ENDBRANCH  35  37
ENDBRANCH  33  35
ENDBRANCH   1  33
TORSDOF 7
