REMARK  Name = ZINC04143024
REMARK  7 active torsions:
REMARK  status: ('A' for Active; 'I' for Inactive)
REMARK    1  A    between atoms: C_3  and  C_6
REMARK    2  A    between atoms: C_6  and  N_7
REMARK    3  A    between atoms: N_7  and  C_8
REMARK    4  A    between atoms: C_10  and  N_17
REMARK    5  A    between atoms: C_13  and  N_14
REMARK    6  A    between atoms: N_20  and  S_23
REMARK    7  A    between atoms: S_23  and  C_26
REMARK                            x       y       z     vdW  Elec       q    Type
REMARK                         _______ _______ _______ _____ _____    ______ ____
ROOT
ATOM      1  C   UNL     1      -2.799   3.222   1.666  0.00  0.00    +0.060 A 
ATOM      2  C   UNL     1      -3.483   3.831   0.623  0.00  0.00    +0.048 A 
ATOM      3  C   UNL     1      -4.566   4.654   0.895  0.00  0.00    +0.032 A 
ATOM      4  C   UNL     1      -4.963   4.866   2.210  0.00  0.00    +0.025 A 
ATOM      5  C   UNL     1      -4.280   4.259   3.245  0.00  0.00    +0.036 A 
ATOM      6  C   UNL     1      -3.205   3.434   2.978  0.00  0.00    +0.147 A 
ENDROOT
BRANCH   3   7
ATOM      7  N   UNL     1      -5.257   5.269  -0.152  0.00  0.00    -0.327 N 
ATOM      8  C   UNL     1      -4.348   6.060  -0.991  0.00  0.00    +0.122 C 
ATOM      9  C   UNL     1      -5.105   6.567  -2.223  0.00  0.00    +0.128 C 
ATOM     10  N   UNL     1      -6.310   7.277  -1.771  0.00  0.00    -0.174 NA
ATOM     11  C   UNL     1      -7.203   6.598  -0.819  0.00  0.00    +0.128 C 
ATOM     12  C   UNL     1      -6.363   6.091   0.358  0.00  0.00    +0.122 C 
BRANCH  10  13
ATOM     13  S   UNL     1      -6.654   8.802  -2.319  0.00  0.00    +0.061 S 
ATOM     14  O   UNL     1      -5.988   8.945  -3.566  0.00  0.00    -0.153 OA
ATOM     15  O   UNL     1      -8.057   8.977  -2.180  0.00  0.00    -0.153 OA
BRANCH  13  16
ATOM     16  C   UNL     1      -5.893   9.938  -1.208  0.00  0.00    +0.106 A 
ATOM     17  C   UNL     1      -6.591  10.404  -0.110  0.00  0.00    +0.030 A 
ATOM     18  C   UNL     1      -5.993  11.291   0.765  0.00  0.00    +0.022 A 
ATOM     19  C   UNL     1      -4.699  11.722   0.535  0.00  0.00    +0.041 A 
ATOM     20  C   UNL     1      -4.002  11.261  -0.568  0.00  0.00    +0.022 A 
ATOM     21  C   UNL     1      -4.600  10.369  -1.439  0.00  0.00    +0.030 A 
ATOM     22 CL   UNL     1      -3.949  12.841   1.630  0.00  0.00    -0.084 Cl
ENDBRANCH  13  16
ENDBRANCH  10  13
ENDBRANCH   3   7
BRANCH   6  23
ATOM     23  N   UNL     1      -2.480   2.780   4.090  0.00  0.00    +0.058 N 
ATOM     24  O   UNL     1      -3.093   2.370   5.059  0.00  0.00    -0.126 OA
ATOM     25  O   UNL     1      -1.270   2.652   4.037  0.00  0.00    -0.126 OA
ENDBRANCH   6  23
BRANCH   1  26
ATOM     26  N   UNL     1      -1.707   2.393   1.397  0.00  0.00    -0.335 N 
ATOM     27  H   UNL     1      -1.283   1.901   2.117  0.00  0.00    +0.147 HD
BRANCH  26  28
ATOM     28  C   UNL     1      -1.203   2.268   0.027  0.00  0.00    +0.176 C 
BRANCH  28  31
ATOM     29  C   UNL     1       1.230  -0.496  -0.125  0.00  0.00    +0.041 A 
ATOM     30  C   UNL     1      -0.097  -0.009  -0.175  0.00  0.00    +0.046 A 
ATOM     31  C   UNL     1      -0.030   1.322   0.008  0.00  0.00    +0.122 A 
ATOM     32  O   UNL     1       1.258   1.665   0.165  0.00  0.00    -0.466 OA
ATOM     33  C   UNL     1       2.027   0.566   0.086  0.00  0.00    +0.195 A 
ENDBRANCH  28  31
ENDBRANCH  26  28
ENDBRANCH   1  26
TORSDOF 7
