REMARK  Name = ZINC13129680
REMARK  15 active torsions:
REMARK  status: ('A' for Active; 'I' for Inactive)
REMARK    1  A    between atoms: C_1  and  C_2
REMARK    2  A    between atoms: C_2  and  O_3
REMARK    3  A    between atoms: O_3  and  C_4
REMARK    4  A    between atoms: C_4  and  C_6
REMARK    5  A    between atoms: C_7  and  C_35
REMARK    6  A    between atoms: C_8  and  C_32
REMARK    7  A    between atoms: C_10  and  N_11
REMARK    8  A    between atoms: C_12  and  C_14
REMARK    9  A    between atoms: C_14  and  O_15
REMARK   10  A    between atoms: O_15  and  C_16
REMARK   11  A    between atoms: C_16  and  C_18
REMARK   12  A    between atoms: C_18  and  C_19
REMARK   13  A    between atoms: C_19  and  C_21
REMARK   14  A    between atoms: C_19  and  N_28
REMARK   15  A    between atoms: C_32  and  C_34
REMARK                            x       y       z     vdW  Elec       q    Type
REMARK                         _______ _______ _______ _____ _____    ______ ____
ROOT
ATOM      1  C   UNL     1      -1.062   2.087   4.792  0.00  0.00    +0.328 C 
ENDROOT
BRANCH   1   3
ATOM      2  N   UNL     1      -0.912   2.667   7.192  0.00  0.00    -0.277 N 
ATOM      3  C   UNL     1      -0.951   3.089   5.913  0.00  0.00    +0.255 C 
ATOM      4  O   UNL     1      -0.897   4.274   5.663  0.00  0.00    -0.272 OA
ATOM      5  H   UNL     1      -0.956   1.719   7.392  0.00  0.00    +0.155 HD
BRANCH   2  10
ATOM      6  C   UNL     1      -0.757   3.346   9.597  0.00  0.00    +0.091 A 
ATOM      7  C   UNL     1      -0.655   4.439  10.439  0.00  0.00    -0.017 A 
ATOM      8  C   UNL     1      -0.613   5.692   9.852  0.00  0.00    +0.060 A 
ATOM      9  S   UNL     1      -0.711   5.311   8.113  0.00  0.00    -0.070 S 
ATOM     10  C   UNL     1      -0.811   3.584   8.218  0.00  0.00    +0.087 A 
ATOM     11  C   UNL     1      -0.592   4.273  11.935  0.00  0.00    +0.046 C 
BRANCH   8  12
ATOM     12  C   UNL     1      -0.512   6.954  10.474  0.00  0.00    +0.167 C 
ATOM     13  O   UNL     1      -0.449   7.031  11.684  0.00  0.00    -0.292 OA
ATOM     14  C   UNL     1      -0.482   8.206   9.636  0.00  0.00    +0.092 C 
ENDBRANCH   8  12
BRANCH   6  15
ATOM     15  C   UNL     1      -0.808   1.980  10.132  0.00  0.00    +0.342 C 
ATOM     16  O   UNL     1       0.221   1.355  10.303  0.00  0.00    -0.245 OA
BRANCH  15  17
ATOM     17  O   UNL     1      -1.996   1.419  10.434  0.00  0.00    -0.461 OA
BRANCH  17  19
ATOM     18  C   UNL     1      -3.401  -0.400  11.240  0.00  0.00    +0.048 C 
ATOM     19  C   UNL     1      -1.971   0.065  10.959  0.00  0.00    +0.229 C 
ENDBRANCH  17  19
ENDBRANCH  15  17
ENDBRANCH   6  15
ENDBRANCH   2  10
ENDBRANCH   1   3
BRANCH   1  20
ATOM     20  O   UNL     1      -1.085   2.785   3.519  0.00  0.00    -0.455 OA
BRANCH  20  21
ATOM     21  C   UNL     1      -1.181   2.031   2.413  0.00  0.00    +0.310 C 
ATOM     22  O   UNL     1      -1.244   0.828   2.505  0.00  0.00    -0.251 OA
BRANCH  21  23
ATOM     23  C   UNL     1      -1.210   2.686   1.056  0.00  0.00    +0.147 C 
BRANCH  23  24
ATOM     24  C   UNL     1      -1.323   1.610  -0.027  0.00  0.00    +0.115 C 
BRANCH  24  25
ATOM     25  C   UNL     1      -1.476   2.268  -1.374  0.00  0.00    -0.027 A 
ATOM     26  C   UNL     1      -0.378   2.833  -1.996  0.00  0.00    +0.007 A 
ATOM     27  C   UNL     1      -0.517   3.431  -3.234  0.00  0.00    +0.020 A 
ATOM     28  C   UNL     1      -1.757   3.474  -3.846  0.00  0.00    +0.041 A 
ATOM     29  C   UNL     1      -2.856   2.913  -3.221  0.00  0.00    +0.020 A 
ATOM     30  C   UNL     1      -2.715   2.311  -1.986  0.00  0.00    +0.007 A 
ATOM     31 CL   UNL     1      -1.933   4.232  -5.398  0.00  0.00    -0.084 Cl
ENDBRANCH  24  25
BRANCH  24  32
ATOM     32  N   UNL     1      -0.114   0.783  -0.022  0.00  0.00    -0.292 N 
ATOM     33  C   UNL     1      -0.165  -0.486  -0.472  0.00  0.00    +0.298 C 
ATOM     34  O   UNL     1      -1.229  -0.973  -0.802  0.00  0.00    -0.253 OA
ATOM     35  N   UNL     1       0.965  -1.217  -0.555  0.00  0.00    -0.313 N 
ATOM     36  H   UNL     1       0.721   1.148   0.309  0.00  0.00    +0.151 HD
ATOM     37  H   UNL     1       1.814  -0.829  -0.291  0.00  0.00    +0.146 HD
ATOM     38  H   UNL     1       0.929  -2.131  -0.879  0.00  0.00    +0.146 HD
ENDBRANCH  24  32
ENDBRANCH  23  24
ENDBRANCH  21  23
ENDBRANCH  20  21
ENDBRANCH   1  20
TORSDOF 12
