REMARK  Name = ZINC20322962
REMARK  12 active torsions:
REMARK  status: ('A' for Active; 'I' for Inactive)
REMARK    1  A    between atoms: C_1  and  C_2
REMARK    2  A    between atoms: C_3  and  S_9
REMARK    3  A    between atoms: C_4  and  C_8
REMARK    4  A    between atoms: N_5  and  C_7
REMARK    5  A    between atoms: S_9  and  N_12
REMARK    6  A    between atoms: N_12  and  C_13
REMARK    7  A    between atoms: N_12  and  C_28
REMARK    8  A    between atoms: C_13  and  C_14
REMARK    9  A    between atoms: C_19  and  N_22
REMARK   10  A    between atoms: C_31  and  C_34
REMARK   11  A    between atoms: C_34  and  C_35
REMARK   12  A    between atoms: C_34  and  C_36
REMARK                            x       y       z     vdW  Elec       q    Type
REMARK                         _______ _______ _______ _____ _____    ______ ____
ROOT
ATOM      1  N   UNL     1      -0.737   1.520  -1.137  0.00  0.00    -0.194 N 
ENDROOT
BRANCH   1   2
ATOM      2  C   UNL     1      -0.214   2.814  -1.079  0.00  0.00    +0.052 A 
ATOM      3  C   UNL     1      -0.643   3.779  -1.982  0.00  0.00    +0.025 A 
ATOM      4  C   UNL     1      -0.127   5.059  -1.919  0.00  0.00    +0.006 A 
ATOM      5  C   UNL     1       0.822   5.377  -0.965  0.00  0.00    -0.045 A 
ATOM      6  C   UNL     1       1.255   4.418  -0.068  0.00  0.00    +0.006 A 
ATOM      7  C   UNL     1       0.740   3.137  -0.122  0.00  0.00    +0.025 A 
BRANCH   5   8
ATOM      8  C   UNL     1       1.386   6.773  -0.903  0.00  0.00    +0.013 C 
ATOM      9  C   UNL     1       2.069   7.107  -2.231  0.00  0.00    +0.012 C 
ATOM     10  C   UNL     1       0.254   7.770  -0.646  0.00  0.00    +0.012 C 
ENDBRANCH   5   8
ENDBRANCH   1   2
BRANCH   1  11
ATOM     11  S   UNL     1       0.021   0.361  -2.044  0.00  0.00    +0.079 S 
ATOM     12  O   UNL     1      -0.981  -0.567  -2.438  0.00  0.00    -0.150 OA
ATOM     13  O   UNL     1       0.834   1.048  -2.985  0.00  0.00    -0.150 OA
BRANCH  11  16
ATOM     14  C   UNL     1      -0.483  -2.432  -0.311  0.00  0.00    +0.069 C 
ATOM     15  C   UNL     1       0.825  -1.684  -0.274  0.00  0.00    +0.087 A 
ATOM     16  C   UNL     1       1.117  -0.507  -0.972  0.00  0.00    +0.152 A 
ATOM     17  C   UNL     1       2.391  -0.156  -0.681  0.00  0.00    +0.063 A 
ATOM     18  N   UNL     1       2.885  -1.073   0.177  0.00  0.00    -0.269 N 
ATOM     19  N   UNL     1       1.885  -2.024   0.414  0.00  0.00    -0.174 NA
ATOM     20  C   UNL     1       4.232  -1.077   0.753  0.00  0.00    +0.172 C 
ATOM     21  C   UNL     1       3.125   1.047  -1.216  0.00  0.00    +0.067 C 
ENDBRANCH  11  16
ENDBRANCH   1  11
BRANCH   1  22
ATOM     22  C   UNL     1      -1.956   1.188  -0.395  0.00  0.00    +0.227 C 
BRANCH  22  23
ATOM     23  C   UNL     1      -3.162   1.557  -1.219  0.00  0.00    +0.235 C 
ATOM     24  O   UNL     1      -3.018   2.049  -2.318  0.00  0.00    -0.274 OA
ATOM     25  N   UNL     1      -4.401   1.341  -0.735  0.00  0.00    -0.300 N 
ATOM     26  C   UNL     1      -4.591   0.741   0.593  0.00  0.00    +0.106 C 
ATOM     27  C   UNL     1      -5.509   1.658   1.416  0.00  0.00    +0.004 C 
ATOM     28  C   UNL     1      -6.808   1.898   0.643  0.00  0.00    -0.066 C 
ATOM     29  C   UNL     1      -6.493   2.596  -0.682  0.00  0.00    +0.004 C 
ATOM     30  C   UNL     1      -5.587   1.695  -1.527  0.00  0.00    +0.106 C 
BRANCH  28  31
ATOM     31  N   UNL     1      -7.703   2.745   1.442  0.00  0.00    +0.382 N 
ATOM     32  C   UNL     1      -7.074   4.036   1.746  0.00  0.00    -0.078 C 
ATOM     33  C   UNL     1      -8.084   4.944   2.451  0.00  0.00    -0.019 C 
ATOM     34  C   UNL     1      -8.557   4.269   3.741  0.00  0.00    -0.004 C 
ATOM     35  C   UNL     1      -9.164   2.905   3.402  0.00  0.00    -0.019 C 
ATOM     36  C   UNL     1      -8.123   2.056   2.670  0.00  0.00    -0.078 C 
ATOM     37  H   UNL     1      -8.605   2.944   0.845  0.00  0.00    -0.081 HD
ENDBRANCH  28  31
ENDBRANCH  22  23
ENDBRANCH   1  22
TORSDOF 7
