REMARK  Name = ZINC39467588
REMARK  5 active torsions:
REMARK  status: ('A' for Active; 'I' for Inactive)
REMARK    1  A    between atoms: C_4  and  O_7
REMARK    2  A    between atoms: O_7  and  S_8
REMARK    3  A    between atoms: S_8  and  C_11
REMARK    4  A    between atoms: P_20  and  C_30
REMARK    5  A    between atoms: C_35  and  O_36
REMARK                            x       y       z     vdW  Elec       q    Type
REMARK                         _______ _______ _______ _____ _____    ______ ____
ROOT
ATOM      1  C   UNL     1       3.071  -2.384   1.880  0.00  0.00    +0.142 C 
ATOM      2  C   UNL     1       3.651  -3.558   2.104  0.00  0.00    +0.009 C 
ATOM      3  C   UNL     1       2.813  -4.732   2.553  0.00  0.00    +0.018 C 
ATOM      4  C   UNL     1       2.158  -5.366   1.325  0.00  0.00    -0.003 C 
ATOM      5  C   UNL     1       1.192  -6.480   1.745  0.00  0.00    -0.020 C 
ATOM      6  C   UNL     1       0.583  -7.056   0.460  0.00  0.00    +0.157 C 
ATOM      7  O   UNL     1      -0.297  -8.146   0.792  0.00  0.00    -0.316 OA
ATOM      8  P   UNL     1      -1.420  -7.887   1.941  0.00  0.00    +0.291 P 
ATOM      9  O   UNL     1      -1.852  -9.171   2.535  0.00  0.00    -0.269 OA
ATOM     10  N   UNL     1      -0.669  -6.955   3.077  0.00  0.00    -0.288 NA
ATOM     11  N   UNL     1       0.156  -5.943   2.631  0.00  0.00    +0.398 N 
ATOM     12  C   UNL     1       0.766  -5.362   3.837  0.00  0.00    -0.046 C 
ATOM     13  C   UNL     1       1.721  -4.223   3.499  0.00  0.00    +0.006 C 
ATOM     14  C   UNL     1       0.962  -3.106   2.834  0.00  0.00    -0.003 C 
ATOM     15  C   UNL     1       1.616  -2.238   2.066  0.00  0.00    +0.065 C 
ATOM     16 CL   UNL     1       0.758  -0.947   1.284  0.00  0.00    -0.082 Cl
ATOM     17  H   UNL     1      -0.806  -7.112   4.024  0.00  0.00    +0.111 HD
ATOM     18  H   UNL     1      -0.386  -5.249   2.139  0.00  0.00    -0.055 HD
ENDROOT
BRANCH   8  19
ATOM     19  C   UNL     1      -2.844  -7.008   1.242  0.00  0.00    +0.091 A 
ATOM     20  C   UNL     1      -2.870  -5.626   1.237  0.00  0.00    +0.018 A 
ATOM     21  C   UNL     1      -3.955  -4.955   0.705  0.00  0.00    +0.001 A 
ATOM     22  C   UNL     1      -5.018  -5.665   0.175  0.00  0.00    +0.004 A 
ATOM     23  C   UNL     1      -4.997  -7.046   0.177  0.00  0.00    +0.046 A 
ATOM     24  C   UNL     1      -3.906  -7.721   0.706  0.00  0.00    +0.131 A 
BRANCH  24  25
ATOM     25  O   UNL     1      -3.880  -9.080   0.704  0.00  0.00    -0.506 OA
ATOM     26  H   UNL     1      -4.266  -9.482   1.494  0.00  0.00    +0.292 HD
ENDBRANCH  24  25
ENDBRANCH   8  19
BRANCH   1  27
ATOM     27  S   UNL     1       4.038  -1.003   1.368  0.00  0.00    +0.152 S 
ATOM     28  O   UNL     1       5.393  -1.431   1.376  0.00  0.00    -0.131 OA
ATOM     29  O   UNL     1       3.588   0.112   2.125  0.00  0.00    -0.131 OA
BRANCH  27  30
ATOM     30  O   UNL     1       3.681  -0.716  -0.083  0.00  0.00    -0.342 OA
BRANCH  30  34
ATOM     31  C   UNL     1       5.294  -3.398  -2.771  0.00  0.00    +0.000 A 
ATOM     32  C   UNL     1       4.051  -3.641  -2.215  0.00  0.00    +0.004 A 
ATOM     33  C   UNL     1       3.509  -2.744  -1.315  0.00  0.00    +0.048 A 
ATOM     34  C   UNL     1       4.213  -1.600  -0.968  0.00  0.00    +0.157 A 
ATOM     35  C   UNL     1       5.459  -1.359  -1.527  0.00  0.00    +0.048 A 
ATOM     36  C   UNL     1       5.997  -2.259  -2.428  0.00  0.00    +0.004 A 
ENDBRANCH  30  34
ENDBRANCH  27  30
ENDBRANCH   1  27
TORSDOF 5
