REMARK  Name = ZINC05621196
REMARK  5 active torsions:
REMARK  status: ('A' for Active; 'I' for Inactive)
REMARK    1  A    between atoms: C_1  and  C_2
REMARK    2  A    between atoms: C_2  and  C_14
REMARK    3  A    between atoms: N_3  and  N_4
REMARK    4  A    between atoms: C_5  and  C_7
REMARK    5  A    between atoms: C_12  and  O_13
REMARK                            x       y       z     vdW  Elec       q    Type
REMARK                         _______ _______ _______ _____ _____    ______ ____
ROOT
ATOM      1  N   UNL     1       1.183  -0.662   0.080  0.00  0.00    -0.203 N 
ATOM      2  C   UNL     1       0.012  -0.005   0.193  0.00  0.00    +0.267 C 
ATOM      3  O   UNL     1      -1.028  -0.628   0.287  0.00  0.00    -0.268 OA
ATOM      4  H   UNL     1       2.013  -0.166   0.004  0.00  0.00    +0.178 HD
ENDROOT
BRANCH   2   5
ATOM      5  C   UNL     1      -0.008   1.470   0.201  0.00  0.00    +0.080 A 
ATOM      6  C   UNL     1       1.185   2.189   0.092  0.00  0.00    +0.017 A 
ATOM      7  C   UNL     1       1.159   3.567   0.100  0.00  0.00    +0.001 A 
ATOM      8  C   UNL     1      -0.045   4.243   0.215  0.00  0.00    +0.004 A 
ATOM      9  C   UNL     1      -1.231   3.545   0.324  0.00  0.00    +0.046 A 
ATOM     10  C   UNL     1      -1.224   2.158   0.312  0.00  0.00    +0.129 A 
BRANCH  10  11
ATOM     11  O   UNL     1      -2.389   1.470   0.412  0.00  0.00    -0.506 OA
ATOM     12  H   UNL     1      -2.649   1.267   1.321  0.00  0.00    +0.292 HD
ENDBRANCH  10  11
ENDBRANCH   2   5
BRANCH   1  15
ATOM     13  C   UNL     1       3.603  -1.916  -0.152  0.00  0.00    +0.062 C 
ATOM     14  C   UNL     1       2.314  -2.688  -0.035  0.00  0.00    +0.037 C 
ATOM     15  N   UNL     1       1.202  -2.063   0.072  0.00  0.00    -0.189 NA
BRANCH  14  16
ATOM     16  C   UNL     1       2.335  -4.195  -0.043  0.00  0.00    +0.038 C 
ATOM     17  C   UNL     1       0.918  -4.754   0.219  0.00  0.00    +0.013 C 
ATOM     18  C   UNL     1       0.573  -5.570  -1.064  0.00  0.00    -0.010 C 
ATOM     19  C   UNL     1       0.372  -4.491  -2.171  0.00  0.00    +0.004 C 
ATOM     20  C   UNL     1       1.789  -3.931  -2.433  0.00  0.00    +0.004 C 
ATOM     21  C   UNL     1       2.712  -4.725  -1.460  0.00  0.00    -0.002 C 
ATOM     22  C   UNL     1       1.992  -6.120  -1.448  0.00  0.00    +0.007 C 
ENDBRANCH  14  16
ENDBRANCH   1  15
TORSDOF 4
