REMARK  Name = ZINC38650935
REMARK  12 active torsions:
REMARK  status: ('A' for Active; 'I' for Inactive)
REMARK    1  A    between atoms: C_1  and  C_2
REMARK    2  A    between atoms: C_2  and  O_3
REMARK    3  A    between atoms: O_3  and  C_4
REMARK    4  A    between atoms: C_8  and  C_10
REMARK    5  A    between atoms: C_10  and  O_12
REMARK    6  A    between atoms: O_12  and  C_13
REMARK    7  A    between atoms: C_20  and  N_40
REMARK    8  A    between atoms: C_21  and  C_38
REMARK    9  A    between atoms: C_22  and  C_24
REMARK   10  A    between atoms: C_27  and  O_30
REMARK   11  A    between atoms: O_30  and  C_31
REMARK   12  A    between atoms: C_31  and  C_32
REMARK                            x       y       z     vdW  Elec       q    Type
REMARK                         _______ _______ _______ _____ _____    ______ ____
ROOT
ATOM      1  C   UNL     1       2.897  -6.157  -5.043  0.00  0.00    +0.135 A 
ATOM      2  C   UNL     1       3.488  -5.350  -6.005  0.00  0.00    +0.047 A 
ATOM      3  C   UNL     1       4.086  -5.920  -7.112  0.00  0.00    +0.012 A 
ATOM      4  C   UNL     1       4.099  -7.295  -7.267  0.00  0.00    +0.008 A 
ATOM      5  C   UNL     1       3.510  -8.106  -6.309  0.00  0.00    +0.138 A 
ATOM      6  C   UNL     1       2.914  -7.534  -5.192  0.00  0.00    +0.093 A 
ATOM      7  O   UNL     1       3.513  -9.455  -6.443  0.00  0.00    -0.441 OA
ATOM      8  C   UNL     1       3.728 -10.008  -7.648  0.00  0.00    +0.199 C 
ATOM      9  C   UNL     1       4.313  -9.322  -8.658  0.00  0.00    +0.098 C 
ATOM     10  C   UNL     1       4.756  -7.897  -8.480  0.00  0.00    +0.098 C 
ENDROOT
BRANCH  10  11
ATOM     11  C   UNL     1       6.253  -7.857  -8.309  0.00  0.00    -0.034 A 
ATOM     12  C   UNL     1       6.844  -8.519  -7.249  0.00  0.00    +0.008 A 
ATOM     13  C   UNL     1       8.215  -8.484  -7.089  0.00  0.00    +0.046 A 
ATOM     14  C   UNL     1       9.000  -7.784  -7.995  0.00  0.00    +0.121 A 
ATOM     15  C   UNL     1       8.405  -7.121  -9.058  0.00  0.00    +0.046 A 
ATOM     16  C   UNL     1       7.033  -7.164  -9.216  0.00  0.00    +0.008 A 
BRANCH  14  17
ATOM     17  O   UNL     1      10.350  -7.748  -7.840  0.00  0.00    -0.487 OA
BRANCH  17  18
ATOM     18  C   UNL     1      11.094  -7.008  -8.809  0.00  0.00    +0.264 C 
BRANCH  18  19
ATOM     19  C   UNL     1      12.562  -7.080  -8.477  0.00  0.00    -0.010 A 
ATOM     20  C   UNL     1      13.131  -6.131  -7.648  0.00  0.00    +0.007 A 
ATOM     21  C   UNL     1      14.477  -6.197  -7.343  0.00  0.00    +0.000 A 
ATOM     22  C   UNL     1      15.256  -7.212  -7.867  0.00  0.00    +0.000 A 
ATOM     23  C   UNL     1      14.687  -8.161  -8.695  0.00  0.00    +0.000 A 
ATOM     24  C   UNL     1      13.339  -8.098  -8.997  0.00  0.00    +0.007 A 
ENDBRANCH  18  19
ENDBRANCH  17  18
ENDBRANCH  14  17
ENDBRANCH  10  11
BRANCH   8  25
ATOM     25  N   UNL     1       3.343 -11.308  -7.862  0.00  0.00    -0.328 N 
ATOM     26  H   UNL     1       2.923 -11.813  -7.148  0.00  0.00    +0.145 HD
ATOM     27  H   UNL     1       3.491 -11.722  -8.726  0.00  0.00    +0.145 HD
ENDBRANCH   8  25
BRANCH   9  28
ATOM     28  C   UNL     1       4.513  -9.967  -9.921  0.00  0.00    +0.101 C 
ATOM     29  N   UNL     1       4.673 -10.479 -10.922  0.00  0.00    -0.191 NA
ENDBRANCH   9  28
BRANCH   1  30
ATOM     30  O   UNL     1       2.309  -5.597  -3.953  0.00  0.00    -0.422 OA
BRANCH  30  31
ATOM     31  C   UNL     1       1.091  -5.042  -4.108  0.00  0.00    +0.345 C 
ATOM     32  O   UNL     1       0.591  -4.971  -5.213  0.00  0.00    -0.245 OA
BRANCH  31  37
ATOM     33  C   UNL     1      -1.574  -3.455  -1.985  0.00  0.00    +0.121 A 
ATOM     34  C   UNL     1      -0.997  -3.539  -0.725  0.00  0.00    +0.046 A 
ATOM     35  C   UNL     1       0.253  -4.109  -0.567  0.00  0.00    +0.004 A 
ATOM     36  C   UNL     1       0.935  -4.599  -1.662  0.00  0.00    +0.015 A 
ATOM     37  C   UNL     1       0.363  -4.519  -2.933  0.00  0.00    +0.063 A 
ATOM     38  C   UNL     1      -0.901  -3.948  -3.089  0.00  0.00    +0.060 A 
BRANCH  33  39
ATOM     39  O   UNL     1      -2.802  -2.893  -2.133  0.00  0.00    -0.492 OA
BRANCH  39  41
ATOM     40  C   UNL     1      -4.803  -1.812  -1.313  0.00  0.00    +0.048 C 
ATOM     41  C   UNL     1      -3.440  -2.405  -0.951  0.00  0.00    +0.225 C 
ENDBRANCH  39  41
ENDBRANCH  33  39
ENDBRANCH  31  37
ENDBRANCH  30  31
ENDBRANCH   1  30
TORSDOF 11
