REMARK  Name = ZINC28617794
REMARK  8 active torsions:
REMARK  status: ('A' for Active; 'I' for Inactive)
REMARK    1  A    between atoms: C_1  and  C_2
REMARK    2  A    between atoms: C_5  and  C_16
REMARK    3  A    between atoms: C_5  and  C_31
REMARK    4  A    between atoms: C_6  and  C_9
REMARK    5  A    between atoms: N_18  and  N_19
REMARK    6  A    between atoms: C_20  and  C_21
REMARK    7  A    between atoms: C_24  and  C_28
REMARK    8  A    between atoms: C_24  and  C_29
REMARK                            x       y       z     vdW  Elec       q    Type
REMARK                         _______ _______ _______ _____ _____    ______ ____
ROOT
ATOM      1  C   UNL     1      -4.828   3.453  -3.557  0.00  0.00    +0.039 C 
ATOM      2  C   UNL     1      -4.277   3.566  -2.158  0.00  0.00    -0.076 C 
ATOM      3  C   UNL     1      -5.082   3.944  -1.218  0.00  0.00    -0.026 C 
ATOM      4  C   UNL     1      -4.678   4.112   0.218  0.00  0.00    +0.055 C 
ATOM      5  C   UNL     1      -3.357   3.387   0.481  0.00  0.00    +0.159 C 
ATOM      6  C   UNL     1      -2.353   3.797  -0.604  0.00  0.00    +0.049 C 
ATOM      7  C   UNL     1      -2.830   3.232  -1.943  0.00  0.00    +0.040 C 
ENDROOT
BRANCH   6   8
ATOM      8  C   UNL     1      -0.993   3.236  -0.273  0.00  0.00    -0.042 A 
ATOM      9  C   UNL     1      -0.782   1.871  -0.306  0.00  0.00    +0.005 A 
ATOM     10  C   UNL     1       0.464   1.356   0.002  0.00  0.00    +0.015 A 
ATOM     11  C   UNL     1       1.502   2.209   0.332  0.00  0.00    +0.018 A 
ATOM     12  C   UNL     1       1.291   3.576   0.359  0.00  0.00    +0.015 A 
ATOM     13  C   UNL     1       0.044   4.089   0.056  0.00  0.00    +0.005 A 
ATOM     14 BR   UNL     1       3.207   1.506   0.747  0.00  0.00    -0.050 Br
ENDBRANCH   6   8
BRANCH   5  15
ATOM     15  C   UNL     1      -2.826   3.777   1.837  0.00  0.00    +0.250 C 
ATOM     16  O   UNL     1      -1.750   4.330   1.930  0.00  0.00    -0.273 OA
ATOM     17  N   UNL     1      -3.546   3.513   2.945  0.00  0.00    -0.206 N 
ATOM     18  H   UNL     1      -4.522   3.012   2.860  0.00  0.00    +0.177 HD
BRANCH  17  19
ATOM     19  N   UNL     1      -3.053   3.876   4.204  0.00  0.00    -0.187 NA
ATOM     20  C   UNL     1      -3.747   3.622   5.271  0.00  0.00    +0.145 C 
BRANCH  20  21
ATOM     21  C   UNL     1      -3.227   4.004   6.597  0.00  0.00    +0.079 C 
ATOM     22  C   UNL     1      -3.913   3.636   7.713  0.00  0.00    +0.169 C 
ATOM     23  C   UNL     1      -3.415   4.001   9.086  0.00  0.00    +0.086 C 
ATOM     24  C   UNL     1      -2.635   5.317   9.014  0.00  0.00    -0.021 C 
ATOM     25  C   UNL     1      -1.476   5.155   8.026  0.00  0.00    +0.086 C 
ATOM     26  C   UNL     1      -2.022   4.742   6.683  0.00  0.00    +0.169 C 
ATOM     27  O   UNL     1      -1.427   5.047   5.670  0.00  0.00    -0.292 OA
ATOM     28  C   UNL     1      -3.562   6.436   8.536  0.00  0.00    +0.012 C 
ATOM     29  C   UNL     1      -2.085   5.663  10.399  0.00  0.00    +0.012 C 
ATOM     30  O   UNL     1      -5.054   2.935   7.588  0.00  0.00    -0.292 OA
ENDBRANCH  20  21
ENDBRANCH  17  19
ENDBRANCH   5  15
BRANCH   5  31
ATOM     31  C   UNL     1      -3.578   1.897   0.430  0.00  0.00    +0.372 C 
ATOM     32  O   UNL     1      -3.208   1.199   1.344  0.00  0.00    -0.245 OA
ATOM     33  O   UNL     1      -4.186   1.345  -0.632  0.00  0.00    -0.245 OA
ENDBRANCH   5  31
TORSDOF 5
