REMARK  Name = ZINC37349664
REMARK  3 active torsions:
REMARK  status: ('A' for Active; 'I' for Inactive)
REMARK    1  A    between atoms: C_6  and  C_7
REMARK    2  A    between atoms: C_8  and  C_14
REMARK    3  A    between atoms: C_12  and  N_13
REMARK                            x       y       z     vdW  Elec       q    Type
REMARK                         _______ _______ _______ _____ _____    ______ ____
ROOT
ATOM      1  C   UNL     1      -1.271  -0.765   0.009  0.00  0.00    +0.044 A 
ATOM      2  C   UNL     1      -2.228  -0.783   1.043  0.00  0.00    +0.075 A 
ATOM      3  N   UNL     1      -3.208  -1.567   0.680  0.00  0.00    -0.176 NA
ATOM      4  N   UNL     1      -2.930  -2.084  -0.590  0.00  0.00    -0.264 N 
ATOM      5  H   UNL     1      -3.495  -2.692  -1.092  0.00  0.00    +0.190 HD
ATOM      6  C   UNL     1      -1.743  -1.584  -1.001  0.00  0.00    +0.120 A 
ENDROOT
BRANCH   1  12
ATOM      7  C   UNL     1      -0.017   1.389   0.010  0.00  0.00    +0.012 A 
ATOM      8  C   UNL     1       1.169   2.095   0.002  0.00  0.00    +0.050 A 
ATOM      9  C   UNL     1       2.383   1.422  -0.013  0.00  0.00    +0.162 A 
ATOM     10  C   UNL     1       2.408   0.032  -0.018  0.00  0.00    +0.163 A 
ATOM     11  C   UNL     1       1.220  -0.681  -0.012  0.00  0.00    +0.058 A 
ATOM     12  C   UNL     1       0.002  -0.004   0.002  0.00  0.00    -0.009 A 
ATOM     13  O   UNL     1       3.589  -0.644  -0.025  0.00  0.00    -0.485 OA
ATOM     14  C   UNL     1       4.753   0.098  -0.406  0.00  0.00    +0.270 C 
ATOM     15  C   UNL     1       4.735   1.438   0.341  0.00  0.00    +0.270 C 
ATOM     16  O   UNL     1       3.541   2.139  -0.024  0.00  0.00    -0.485 OA
ENDBRANCH   1  12
BRANCH   6  17
ATOM     17  N   UNL     1      -1.113  -1.847  -2.211  0.00  0.00    -0.343 N 
ATOM     18  H   UNL     1      -0.256  -1.438  -2.410  0.00  0.00    +0.144 HD
ATOM     19  H   UNL     1      -1.530  -2.440  -2.856  0.00  0.00    +0.144 HD
ENDBRANCH   6  17
BRANCH   2  20
ATOM     20  C   UNL     1      -2.136  -0.028   2.344  0.00  0.00    +0.040 C 
ATOM     21  C   UNL     1      -3.181  -0.340   3.417  0.00  0.00    +0.010 C 
ATOM     22  C   UNL     1      -3.240   0.985   2.653  0.00  0.00    +0.010 C 
ENDBRANCH   2  20
TORSDOF 3
