REMARK  Name = ZINC15390855
REMARK  7 active torsions:
REMARK  status: ('A' for Active; 'I' for Inactive)
REMARK    1  A    between atoms: C_1  and  C_2
REMARK    2  A    between atoms: C_5  and  S_8
REMARK    3  A    between atoms: S_8  and  N_11
REMARK    4  A    between atoms: C_16  and  C_18
REMARK    5  A    between atoms: C_18  and  C_19
REMARK    6  A    between atoms: N_21  and  C_22
REMARK    7  A    between atoms: C_27  and  C_28
REMARK                            x       y       z     vdW  Elec       q    Type
REMARK                         _______ _______ _______ _____ _____    ______ ____
ROOT
ATOM      1  N   UNL     1       0.105   0.854  -1.600  0.00  0.00    -0.173 NA
ATOM      2  C   UNL     1       0.982   0.486  -0.480  0.00  0.00    +0.110 C 
ATOM      3  C   UNL     1       0.289   0.858   0.835  0.00  0.00    +0.017 C 
ATOM      4  C   UNL     1      -1.097   0.202   0.876  0.00  0.00    +0.003 C 
ATOM      5  C   UNL     1      -1.946   0.723  -0.285  0.00  0.00    +0.021 C 
ATOM      6  C   UNL     1      -1.275   0.351  -1.611  0.00  0.00    +0.089 C 
ENDROOT
BRANCH   1   7
ATOM      7  S   UNL     1       0.662   1.816  -2.827  0.00  0.00    +0.061 S 
ATOM      8  O   UNL     1      -0.447   2.581  -3.279  0.00  0.00    -0.153 OA
ATOM      9  O   UNL     1       1.862   2.417  -2.358  0.00  0.00    -0.153 OA
BRANCH   7  14
ATOM     10  C   UNL     1       2.221  -1.819  -7.383  0.00  0.00    +0.044 C 
ATOM     11  C   UNL     1       1.832  -0.911  -6.245  0.00  0.00    -0.050 A 
ATOM     12  C   UNL     1       0.620  -0.247  -6.274  0.00  0.00    +0.005 A 
ATOM     13  C   UNL     1       0.263   0.586  -5.230  0.00  0.00    +0.029 A 
ATOM     14  C   UNL     1       1.117   0.754  -4.157  0.00  0.00    +0.106 A 
ATOM     15  C   UNL     1       2.331   0.094  -4.130  0.00  0.00    +0.029 A 
ATOM     16  C   UNL     1       2.686  -0.743  -5.171  0.00  0.00    +0.005 A 
ENDBRANCH   7  14
ENDBRANCH   1   7
BRANCH   6  17
ATOM     17  C   UNL     1      -2.043   0.984  -2.773  0.00  0.00    +0.116 C 
BRANCH  17  18
ATOM     18  C   UNL     1      -3.382   0.310  -2.918  0.00  0.00    +0.219 C 
ATOM     19  O   UNL     1      -3.677  -0.615  -2.191  0.00  0.00    -0.275 OA
ATOM     20  N   UNL     1      -4.253   0.735  -3.855  0.00  0.00    -0.285 N 
ATOM     21  H   UNL     1      -4.056   1.529  -4.375  0.00  0.00    +0.155 HD
BRANCH  20  22
ATOM     22  C   UNL     1      -5.441   0.029  -4.077  0.00  0.00    +0.036 A 
ATOM     23  C   UNL     1      -5.968  -0.779  -3.078  0.00  0.00    +0.024 A 
ATOM     24  C   UNL     1      -7.142  -1.471  -3.298  0.00  0.00    +0.017 A 
ATOM     25  C   UNL     1      -7.790  -1.367  -4.517  0.00  0.00    +0.018 A 
ATOM     26  C   UNL     1      -7.265  -0.566  -5.516  0.00  0.00    +0.020 A 
ATOM     27  C   UNL     1      -6.093   0.132  -5.299  0.00  0.00    -0.028 A 
ATOM     28  C   UNL     1      -5.522   1.004  -6.387  0.00  0.00    +0.046 C 
ATOM     29 BR   UNL     1      -9.394  -2.321  -4.818  0.00  0.00    -0.050 Br
ENDBRANCH  20  22
ENDBRANCH  17  18
ENDBRANCH   6  17
TORSDOF 5
