REMARK  Name = ZINC13398463
REMARK  6 active torsions:
REMARK  status: ('A' for Active; 'I' for Inactive)
REMARK    1  A    between atoms: C_3  and  N_28
REMARK    2  A    between atoms: C_6  and  C_7
REMARK    3  A    between atoms: N_9  and  C_10
REMARK    4  A    between atoms: C_13  and  S_16
REMARK    5  A    between atoms: S_16  and  N_19
REMARK    6  A    between atoms: C_23  and  C_26
REMARK                            x       y       z     vdW  Elec       q    Type
REMARK                         _______ _______ _______ _____ _____    ______ ____
ROOT
ATOM      1  C   UNL     1      -2.827   2.706   3.419  0.00  0.00    +0.034 A 
ATOM      2  C   UNL     1      -3.433   1.870   2.490  0.00  0.00    +0.025 A 
ATOM      3  C   UNL     1      -2.725   1.443   1.383  0.00  0.00    +0.030 A 
ATOM      4  C   UNL     1      -1.416   1.848   1.199  0.00  0.00    +0.106 A 
ATOM      5  C   UNL     1      -0.808   2.676   2.125  0.00  0.00    +0.030 A 
ATOM      6  C   UNL     1      -1.512   3.111   3.231  0.00  0.00    +0.025 A 
ENDROOT
BRANCH   1   9
ATOM      7  C   UNL     1      -3.282   4.350   5.077  0.00  0.00    +0.248 C 
ATOM      8  O   UNL     1      -2.500   5.103   4.530  0.00  0.00    -0.270 OA
ATOM      9  N   UNL     1      -3.540   3.141   4.541  0.00  0.00    -0.282 N 
ATOM     10  H   UNL     1      -4.221   2.572   4.933  0.00  0.00    +0.155 HD
BRANCH   7  16
ATOM     11  C   UNL     1      -4.850   3.897   6.957  0.00  0.00    +0.015 A 
ATOM     12  C   UNL     1      -5.465   4.280   8.127  0.00  0.00    +0.024 A 
ATOM     13  C   UNL     1      -5.197   5.528   8.680  0.00  0.00    +0.036 A 
ATOM     14  C   UNL     1      -4.302   6.391   8.055  0.00  0.00    +0.024 A 
ATOM     15  C   UNL     1      -3.680   6.013   6.887  0.00  0.00    +0.015 A 
ATOM     16  C   UNL     1      -3.947   4.759   6.329  0.00  0.00    +0.037 A 
BRANCH  13  17
ATOM     17  N   UNL     1      -5.825   5.915   9.863  0.00  0.00    -0.271 N 
ATOM     18  C   UNL     1      -5.146   5.633  11.121  0.00  0.00    +0.113 C 
ATOM     19  C   UNL     1      -5.707   6.515  12.240  0.00  0.00    +0.020 C 
ATOM     20  C   UNL     1      -7.236   6.385  12.242  0.00  0.00    +0.011 C 
ATOM     21  C   UNL     1      -7.777   7.025  10.960  0.00  0.00    +0.096 C 
ATOM     22  C   UNL     1      -7.013   6.514   9.773  0.00  0.00    +0.220 C 
ATOM     23  O   UNL     1      -7.503   6.655   8.672  0.00  0.00    -0.275 OA
ENDBRANCH  13  17
ENDBRANCH   7  16
ENDBRANCH   1   9
BRANCH   4  24
ATOM     24  S   UNL     1      -0.518   1.301  -0.215  0.00  0.00    +0.061 S 
ATOM     25  O   UNL     1      -1.130   0.092  -0.642  0.00  0.00    -0.153 OA
ATOM     26  O   UNL     1       0.860   1.378   0.125  0.00  0.00    -0.153 OA
BRANCH  24  27
ATOM     27  N   UNL     1      -0.772   2.412  -1.416  0.00  0.00    -0.176 NA
ATOM     28  C   UNL     1      -1.894   2.258  -2.353  0.00  0.00    +0.109 C 
ATOM     29  C   UNL     1      -2.717   3.555  -2.347  0.00  0.00    +0.018 C 
ATOM     30  C   UNL     1      -1.797   4.737  -2.658  0.00  0.00    +0.017 C 
ATOM     31  C   UNL     1      -0.720   4.846  -1.576  0.00  0.00    +0.118 C 
ATOM     32  C   UNL     1       0.123   3.567  -1.570  0.00  0.00    +0.124 C 
BRANCH  31  33
ATOM     33  C   UNL     1       0.166   6.030  -1.866  0.00  0.00    +0.360 C 
ATOM     34  O   UNL     1       1.350   5.869  -2.049  0.00  0.00    -0.246 OA
ATOM     35  O   UNL     1      -0.359   7.264  -1.921  0.00  0.00    -0.246 OA
ENDBRANCH  31  33
ENDBRANCH  24  27
ENDBRANCH   4  24
TORSDOF 6
