REMARK  Name = ZINC09510542
REMARK  8 active torsions:
REMARK  status: ('A' for Active; 'I' for Inactive)
REMARK    1  A    between atoms: C_1  and  O_2
REMARK    2  A    between atoms: O_2  and  C_3
REMARK    3  A    between atoms: C_6  and  C_11
REMARK    4  A    between atoms: C_8  and  O_9
REMARK    5  A    between atoms: O_9  and  C_10
REMARK    6  A    between atoms: C_12  and  O_13
REMARK    7  A    between atoms: C_23  and  C_25
REMARK    8  A    between atoms: C_29  and  N_31
REMARK                            x       y       z     vdW  Elec       q    Type
REMARK                         _______ _______ _______ _____ _____    ______ ____
ROOT
ATOM      1  C   UNL     1      -4.968  -2.617   0.037  0.00  0.00    +0.082 A 
ATOM      2  C   UNL     1      -5.362  -3.397  -1.048  0.00  0.00    +0.140 A 
ATOM      3  C   UNL     1      -6.674  -4.052  -0.979  0.00  0.00    +0.061 A 
ATOM      4  C   UNL     1      -7.135  -4.850  -2.031  0.00  0.00    +0.035 A 
ATOM      5  C   UNL     1      -8.370  -5.453  -1.937  0.00  0.00    +0.042 A 
ATOM      6  C   UNL     1      -9.155  -5.270  -0.806  0.00  0.00    +0.023 A 
ATOM      7  C   UNL     1      -8.712  -4.486   0.238  0.00  0.00    +0.048 A 
ATOM      8  C   UNL     1      -7.469  -3.868   0.165  0.00  0.00    +0.141 A 
ATOM      9  O   UNL     1      -7.026  -3.099   1.182  0.00  0.00    -0.440 OA
ATOM     10  C   UNL     1      -5.829  -2.493   1.147  0.00  0.00    +0.204 A 
ATOM     11  N   UNL     1      -5.447  -1.752   2.184  0.00  0.00    -0.252 N 
ATOM     12  C   UNL     1      -6.249  -1.623   3.245  0.00  0.00    +0.250 C 
ATOM     13  O   UNL     1      -7.331  -2.184   3.262  0.00  0.00    -0.270 OA
ATOM     14 CL   UNL     1      -8.949  -6.445  -3.239  0.00  0.00    -0.084 Cl
ATOM     15  H   UNL     1      -4.586  -1.305   2.170  0.00  0.00    +0.158 HD
ENDROOT
BRANCH   1  19
ATOM     16  C   UNL     1      -1.201  -0.638   0.010  0.00  0.00    +0.162 A 
ATOM     17  C   UNL     1      -2.373   0.103   0.020  0.00  0.00    +0.050 A 
ATOM     18  C   UNL     1      -3.596  -0.536   0.028  0.00  0.00    +0.012 A 
ATOM     19  C   UNL     1      -3.656  -1.930   0.027  0.00  0.00    -0.006 A 
ATOM     20  C   UNL     1      -2.477  -2.675   0.017  0.00  0.00    +0.058 A 
ATOM     21  C   UNL     1      -1.254  -2.029   0.003  0.00  0.00    +0.162 A 
BRANCH  16  23
ATOM     22  C   UNL     1      -0.017   1.425   0.010  0.00  0.00    +0.277 C 
ATOM     23  O   UNL     1       0.002  -0.004   0.002  0.00  0.00    -0.491 OA
ENDBRANCH  16  23
BRANCH  21  24
ATOM     24  O   UNL     1      -0.103  -2.753  -0.012  0.00  0.00    -0.491 OA
ATOM     25  C   UNL     1      -0.231  -4.176  -0.018  0.00  0.00    +0.277 C 
ENDBRANCH  21  24
ENDBRANCH   1  19
BRANCH  12  26
ATOM     26  C   UNL     1      -5.824  -0.798   4.399  0.00  0.00    +0.039 A 
ATOM     27  C   UNL     1      -4.589  -0.149   4.380  0.00  0.00    +0.013 A 
ATOM     28  C   UNL     1      -4.199   0.618   5.457  0.00  0.00    +0.003 A 
ATOM     29  C   UNL     1      -5.030   0.745   6.557  0.00  0.00    +0.033 A 
ATOM     30  C   UNL     1      -6.255   0.104   6.582  0.00  0.00    +0.127 A 
ATOM     31  C   UNL     1      -6.660  -0.661   5.508  0.00  0.00    +0.045 A 
BRANCH  30  32
ATOM     32  N   UNL     1      -7.138   0.245   7.762  0.00  0.00    +0.056 N 
ATOM     33  O   UNL     1      -6.787   0.919   8.702  0.00  0.00    -0.126 OA
ATOM     34  O   UNL     1      -8.209  -0.314   7.786  0.00  0.00    -0.126 OA
ENDBRANCH  30  32
ENDBRANCH  12  26
BRANCH   2  35
ATOM     35  O   UNL     1      -4.564  -3.545  -2.128  0.00  0.00    -0.505 OA
ATOM     36  H   UNL     1      -4.938  -4.108  -2.820  0.00  0.00    +0.292 HD
ENDBRANCH   2  35
TORSDOF 6
