REMARK  Name = ZINC19943539
REMARK  6 active torsions:
REMARK  status: ('A' for Active; 'I' for Inactive)
REMARK    1  A    between atoms: C_1  and  N_2
REMARK    2  A    between atoms: C_9  and  C_21
REMARK    3  A    between atoms: C_11  and  C_17
REMARK    4  A    between atoms: C_11  and  C_19
REMARK    5  A    between atoms: C_12  and  N_16
REMARK    6  A    between atoms: C_13  and  C_14
REMARK                            x       y       z     vdW  Elec       q    Type
REMARK                         _______ _______ _______ _____ _____    ______ ____
ROOT
ATOM      1  C   UNL     1       0.988   1.238   0.021  0.00  0.00    +0.105 C 
ATOM      2  N   UNL     1       0.716  -0.205   0.031  0.00  0.00    -0.301 NA
ATOM      3  C   UNL     1       1.343  -0.868  -1.126  0.00  0.00    +0.111 C 
ATOM      4  C   UNL     1       0.848  -2.297  -1.135  0.00  0.00    -0.007 C 
ATOM      5  C   UNL     1       0.615  -2.924   0.003  0.00  0.00    -0.026 C 
ATOM      6  C   UNL     1       0.837  -2.290   1.347  0.00  0.00    +0.044 C 
ATOM      7  C   UNL     1       1.179  -0.819   1.278  0.00  0.00    +0.093 C 
ATOM      8  C   UNL     1      -0.416  -2.546   2.187  0.00  0.00    +0.069 C 
ATOM      9  C   UNL     1      -0.557  -4.054   2.415  0.00  0.00    +0.188 C 
ATOM     10  C   UNL     1      -0.496  -4.805   1.119  0.00  0.00    +0.054 C 
ATOM     11  C   UNL     1       0.057  -4.299  -0.013  0.00  0.00    +0.074 C 
ENDROOT
BRANCH   8  12
ATOM     12  C   UNL     1      -0.276  -1.859   3.522  0.00  0.00    -0.020 A 
ATOM     13  C   UNL     1       0.851  -2.073   4.294  0.00  0.00    +0.005 A 
ATOM     14  C   UNL     1       0.983  -1.440   5.516  0.00  0.00    +0.003 A 
ATOM     15  C   UNL     1      -0.016  -0.601   5.972  0.00  0.00    +0.040 A 
ATOM     16  C   UNL     1      -1.148  -0.390   5.203  0.00  0.00    +0.142 A 
ATOM     17  C   UNL     1      -1.277  -1.020   3.976  0.00  0.00    +0.080 A 
ATOM     18 CL   UNL     1      -2.695  -0.757   3.009  0.00  0.00    -0.080 Cl
ATOM     19  F   UNL     1      -2.125   0.430   5.648  0.00  0.00    -0.204 F 
ENDBRANCH   8  12
BRANCH  10  20
ATOM     20  N   UNL     1      -1.024  -6.064   1.075  0.00  0.00    -0.358 N 
ATOM     21  H   UNL     1      -0.994  -6.641   0.138  0.00  0.00    +0.142 HD
ATOM     22  H   UNL     1      -1.478  -6.502   1.976  0.00  0.00    +0.142 HD
ENDBRANCH  10  20
BRANCH  11  23
ATOM     23  C   UNL     1       0.102  -5.085  -1.210  0.00  0.00    +0.101 C 
ATOM     24  N   UNL     1       0.138  -5.708  -2.159  0.00  0.00    -0.191 NA
ENDBRANCH  11  23
BRANCH   9  25
ATOM     25  C   UNL     1      -1.853  -4.318   3.061  0.00  0.00    +0.091 C 
ATOM     26  N   UNL     1      -2.854  -4.522   3.560  0.00  0.00    -0.194 NA
ENDBRANCH   9  25
BRANCH   9  27
ATOM     27  C   UNL     1       0.522  -4.529   3.296  0.00  0.00    +0.091 C 
ATOM     28  N   UNL     1       1.355  -4.896   3.976  0.00  0.00    -0.194 NA
ENDBRANCH   9  27
TORSDOF 5
