REMARK  Name = ZINC11789816
REMARK  9 active torsions:
REMARK  status: ('A' for Active; 'I' for Inactive)
REMARK    1  A    between atoms: C_3  and  C_11
REMARK    2  A    between atoms: C_5  and  C_7
REMARK    3  A    between atoms: C_11  and  N_55
REMARK    4  A    between atoms: C_12  and  C_13
REMARK    5  A    between atoms: C_12  and  N_55
REMARK    6  A    between atoms: C_13  and  C_14
REMARK    7  A    between atoms: N_20  and  C_21
REMARK    8  A    between atoms: C_21  and  C_22
REMARK    9  A    between atoms: C_22  and  C_23
REMARK                            x       y       z     vdW  Elec       q    Type
REMARK                         _______ _______ _______ _____ _____    ______ ____
ROOT
ATOM      1  C   UNL     1       1.434  -0.325  -0.679  0.00  0.00    +0.075 C 
ATOM      2  C   UNL     1       0.039  -0.191  -0.029  0.00  0.00    +0.031 C 
ATOM      3  C   UNL     1      -0.157   1.343  -0.016  0.00  0.00    +0.098 C 
ATOM      4  C   UNL     1       1.251   1.897  -0.028  0.00  0.00    +0.216 C 
ATOM      5  O   UNL     1       1.551   3.038   0.254  0.00  0.00    -0.276 OA
ATOM      6  N   UNL     1       2.121   0.941  -0.397  0.00  0.00    -0.298 N 
ENDROOT
BRANCH   1   7
ATOM      7  C   UNL     1       1.296  -0.529  -2.189  0.00  0.00    +0.003 C 
BRANCH   7   8
ATOM      8  C   UNL     1       0.621  -1.875  -2.462  0.00  0.00    -0.080 C 
BRANCH   8   9
ATOM      9  N   UNL     1       0.605  -2.122  -3.916  0.00  0.00    +0.382 N 
ATOM     10  H   UNL     1       0.084  -1.369  -4.382  0.00  0.00    -0.085 HD
ATOM     11  H   UNL     1       1.569  -2.138  -4.267  0.00  0.00    -0.085 HD
BRANCH   9  12
ATOM     12  C   UNL     1      -0.042  -3.415  -4.209  0.00  0.00    -0.047 C 
BRANCH  12  15
ATOM     13  C   UNL     1       1.014  -4.499  -7.668  0.00  0.00    +0.001 A 
ATOM     14  C   UNL     1       1.016  -4.292  -6.301  0.00  0.00    +0.002 A 
ATOM     15  C   UNL     1      -0.044  -3.640  -5.699  0.00  0.00    -0.064 A 
ATOM     16  C   UNL     1      -1.108  -3.199  -6.463  0.00  0.00    +0.014 A 
ATOM     17  C   UNL     1      -1.107  -3.401  -7.831  0.00  0.00    +0.055 A 
ATOM     18  C   UNL     1      -0.048  -4.053  -8.432  0.00  0.00    +0.012 A 
BRANCH  17  19
ATOM     19  C   UNL     1      -2.265  -2.916  -8.664  0.00  0.00    +0.417 C 
ATOM     20  F   UNL     1      -2.041  -3.239 -10.007  0.00  0.00    -0.166 F 
ATOM     21  F   UNL     1      -3.444  -3.530  -8.228  0.00  0.00    -0.166 F 
ATOM     22  F   UNL     1      -2.386  -1.528  -8.533  0.00  0.00    -0.166 F 
ENDBRANCH  17  19
ENDBRANCH  12  15
ENDBRANCH   9  12
ENDBRANCH   8   9
ENDBRANCH   7   8
ENDBRANCH   1   7
BRANCH   6  23
ATOM     23  C   UNL     1       3.569   1.138  -0.504  0.00  0.00    +0.116 C 
BRANCH  23  24
ATOM     24  C   UNL     1       3.904   1.725  -1.877  0.00  0.00    +0.093 C 
BRANCH  24  25
ATOM     25  C   UNL     1       5.375   2.042  -1.942  0.00  0.00    +0.110 A 
ATOM     26  N   UNL     1       6.231   1.579  -2.893  0.00  0.00    -0.342 N 
ATOM     27  H   UNL     1       5.998   0.979  -3.659  0.00  0.00    +0.167 HD
ATOM     28  C   UNL     1       7.481   2.092  -2.606  0.00  0.00    +0.066 A 
ATOM     29  C   UNL     1       8.730   1.980  -3.200  0.00  0.00    +0.029 A 
ATOM     30  C   UNL     1       9.812   2.635  -2.653  0.00  0.00    +0.022 A 
ATOM     31  C   UNL     1       9.661   3.409  -1.510  0.00  0.00    +0.043 A 
ATOM     32  C   UNL     1       8.429   3.533  -0.907  0.00  0.00    +0.050 A 
ATOM     33  C   UNL     1       7.322   2.873  -1.449  0.00  0.00    +0.090 A 
ATOM     34  N   UNL     1       6.012   2.803  -1.101  0.00  0.00    -0.232 NA
ATOM     35 CL   UNL     1      11.035   4.228  -0.836  0.00  0.00    -0.083 Cl
ENDBRANCH  24  25
ENDBRANCH  23  24
ENDBRANCH   6  23
TORSDOF 9
