REMARK  Name = ZINC65480741
REMARK  10 active torsions:
REMARK  status: ('A' for Active; 'I' for Inactive)
REMARK    1  A    between atoms: C_1  and  C_2
REMARK    2  A    between atoms: N_5  and  C_8
REMARK    3  A    between atoms: C_8  and  C_9
REMARK    4  A    between atoms: C_8  and  C_10
REMARK    5  A    between atoms: C_10  and  N_11
REMARK    6  A    between atoms: N_14  and  N_15
REMARK    7  A    between atoms: C_16  and  C_18
REMARK    8  A    between atoms: C_18  and  C_19
REMARK    9  A    between atoms: C_18  and  O_20
REMARK   10  A    between atoms: O_20  and  C_21
REMARK                            x       y       z     vdW  Elec       q    Type
REMARK                         _______ _______ _______ _____ _____    ______ ____
ROOT
ATOM      1  N   UNL     1       1.823  -4.251   2.475  0.00  0.00    -0.300 N 
ATOM      2  C   UNL     1       2.373  -4.572   3.664  0.00  0.00    +0.316 C 
ATOM      3  O   UNL     1       3.383  -5.246   3.704  0.00  0.00    -0.251 OA
ATOM      4  N   UNL     1       1.802  -4.144   4.807  0.00  0.00    -0.218 N 
ATOM      5  H   UNL     1       1.017  -3.713   2.443  0.00  0.00    +0.150 HD
ATOM      6  H   UNL     1       2.197  -4.375   5.662  0.00  0.00    +0.174 HD
ENDROOT
BRANCH   4   7
ATOM      7  N   UNL     1       0.637  -3.367   4.761  0.00  0.00    -0.230 N 
ATOM      8  C   UNL     1       0.066  -2.939   5.904  0.00  0.00    +0.270 C 
ATOM      9  O   UNL     1       0.560  -3.228   6.973  0.00  0.00    -0.270 OA
ATOM     10  H   UNL     1       0.241  -3.136   3.905  0.00  0.00    +0.173 HD
BRANCH   8  11
ATOM     11  C   UNL     1      -1.187  -2.103   5.854  0.00  0.00    +0.257 C 
ATOM     12  C   UNL     1      -2.332  -2.935   5.272  0.00  0.00    +0.062 C 
BRANCH  11  13
ATOM     13  O   UNL     1      -1.530  -1.680   7.175  0.00  0.00    -0.477 OA
BRANCH  13  14
ATOM     14  C   UNL     1      -2.258  -0.537   7.287  0.00  0.00    +0.157 A 
ATOM     15  C   UNL     1      -2.722   0.105   6.150  0.00  0.00    +0.048 A 
ATOM     16  C   UNL     1      -3.462   1.267   6.266  0.00  0.00    +0.004 A 
ATOM     17  C   UNL     1      -3.739   1.790   7.515  0.00  0.00    +0.003 A 
ATOM     18  C   UNL     1      -3.277   1.153   8.652  0.00  0.00    +0.042 A 
ATOM     19  C   UNL     1      -2.542  -0.014   8.542  0.00  0.00    +0.165 A 
ATOM     20  F   UNL     1      -2.096  -0.640   9.653  0.00  0.00    -0.202 F 
ENDBRANCH  13  14
ENDBRANCH  11  13
ENDBRANCH   8  11
ENDBRANCH   4   7
BRANCH   1  21
ATOM     21  C   UNL     1       2.444  -4.716   1.232  0.00  0.00    +0.090 C 
BRANCH  21  22
ATOM     22  C   UNL     1       1.708  -4.108   0.036  0.00  0.00    -0.054 C 
ATOM     23  C   UNL     1       2.421  -4.506  -1.257  0.00  0.00    -0.012 C 
BRANCH  22  28
ATOM     24  C   UNL     1       2.148   1.547  -0.555  0.00  0.00    +0.007 C 
ATOM     25  C   UNL     1       2.212   0.039  -0.805  0.00  0.00    -0.018 C 
ATOM     26  C   UNL     1       3.080  -0.622   0.270  0.00  0.00    -0.016 C 
ATOM     27  C   UNL     1       3.074  -2.138   0.061  0.00  0.00    -0.078 C 
ATOM     28  N   UNL     1       1.700  -2.644   0.160  0.00  0.00    +0.382 N 
ATOM     29  C   UNL     1       0.878  -2.069  -0.912  0.00  0.00    -0.078 C 
ATOM     30  C   UNL     1       0.800  -0.550  -0.741  0.00  0.00    -0.016 C 
ATOM     31  H   UNL     1       1.311  -2.386   1.055  0.00  0.00    -0.081 HD
ENDBRANCH  22  28
ENDBRANCH  21  22
ENDBRANCH   1  21
TORSDOF 7
