REMARK  Name = ZINC02203283
REMARK  11 active torsions:
REMARK  status: ('A' for Active; 'I' for Inactive)
REMARK    1  A    between atoms: C_1  and  C_2
REMARK    2  A    between atoms: C_2  and  O_3
REMARK    3  A    between atoms: O_3  and  C_4
REMARK    4  A    between atoms: C_6  and  C_19
REMARK    5  A    between atoms: C_9  and  O_10
REMARK    6  A    between atoms: O_10  and  C_11
REMARK    7  A    between atoms: C_11  and  C_12
REMARK    8  A    between atoms: C_20  and  C_21
REMARK    9  A    between atoms: C_22  and  C_35
REMARK   10  A    between atoms: C_22  and  C_36
REMARK   11  A    between atoms: C_32  and  O_34
REMARK                            x       y       z     vdW  Elec       q    Type
REMARK                         _______ _______ _______ _____ _____    ______ ____
ROOT
ATOM      1  C   UNL     1       0.623  -4.951  -0.019  0.00  0.00    +0.008 C 
ATOM      2  C   UNL     1       0.462  -6.267  -0.025  0.00  0.00    +0.024 C 
ENDROOT
BRANCH   2   3
ATOM      3  C   UNL     1       1.666  -7.173  -0.035  0.00  0.00    +0.159 C 
ATOM      4  C   UNL     1       1.696  -8.008  -1.322  0.00  0.00    +0.037 C 
ATOM      5  C   UNL     1       2.845  -7.436  -2.105  0.00  0.00    -0.016 A 
ATOM      6  C   UNL     1       3.271  -7.741  -3.384  0.00  0.00    +0.006 A 
ATOM      7  C   UNL     1       4.366  -7.039  -3.873  0.00  0.00    +0.000 A 
ATOM      8  C   UNL     1       5.000  -6.078  -3.112  0.00  0.00    +0.002 A 
ATOM      9  C   UNL     1       4.585  -5.770  -1.827  0.00  0.00    +0.023 A 
ATOM     10  C   UNL     1       3.487  -6.473  -1.320  0.00  0.00    +0.036 A 
ATOM     11  N   UNL     1       2.910  -6.378  -0.073  0.00  0.00    -0.301 N 
ATOM     12  C   UNL     1       3.406  -5.692   1.131  0.00  0.00    +0.117 C 
ATOM     13  C   UNL     1       3.603  -6.781   2.195  0.00  0.00    +0.114 C 
ATOM     14  C   UNL     1       2.527  -7.818   2.117  0.00  0.00    +0.186 C 
ATOM     15  N   UNL     1       1.697  -7.991   1.170  0.00  0.00    -0.224 NA
ATOM     16  C   UNL     1       1.950  -9.482  -0.999  0.00  0.00    +0.020 C 
ATOM     17  C   UNL     1       0.387  -7.846  -2.097  0.00  0.00    +0.020 C 
BRANCH  14  18
ATOM     18  O   UNL     1       2.414  -8.647   3.176  0.00  0.00    -0.496 OA
ATOM     19  H   UNL     1       1.708  -9.302   3.088  0.00  0.00    +0.293 HD
ENDBRANCH  14  18
ENDBRANCH   2   3
BRANCH   1  22
ATOM     20  C   UNL     1      -1.498  -1.849   0.006  0.00  0.00    +0.162 A 
ATOM     21  C   UNL     1      -0.391  -2.677  -0.003  0.00  0.00    +0.057 A 
ATOM     22  C   UNL     1      -0.558  -4.062  -0.009  0.00  0.00    -0.022 A 
ATOM     23  C   UNL     1      -1.843  -4.607  -0.005  0.00  0.00    +0.012 A 
ATOM     24  C   UNL     1      -2.944  -3.776   0.004  0.00  0.00    +0.050 A 
ATOM     25  C   UNL     1      -2.778  -2.399   0.016  0.00  0.00    +0.162 A 
BRANCH  20  26
ATOM     26  O   UNL     1      -1.339  -0.499   0.012  0.00  0.00    -0.489 OA
BRANCH  26  28
ATOM     27  C   UNL     1      -0.019   1.526   0.010  0.00  0.00    +0.048 C 
ATOM     28  C   UNL     1       0.002  -0.004   0.002  0.00  0.00    +0.226 C 
ENDBRANCH  26  28
ENDBRANCH  20  26
BRANCH  25  29
ATOM     29  O   UNL     1      -3.866  -1.584   0.030  0.00  0.00    -0.484 OA
BRANCH  29  30
ATOM     30  C   UNL     1      -5.149  -2.215   0.039  0.00  0.00    +0.264 C 
BRANCH  30  31
ATOM     31  C   UNL     1      -6.226  -1.162   0.055  0.00  0.00    -0.010 A 
ATOM     32  C   UNL     1      -6.705  -0.681   1.260  0.00  0.00    +0.008 A 
ATOM     33  C   UNL     1      -7.693   0.285   1.275  0.00  0.00    +0.020 A 
ATOM     34  C   UNL     1      -8.204   0.771   0.085  0.00  0.00    +0.041 A 
ATOM     35  C   UNL     1      -7.724   0.290  -1.121  0.00  0.00    +0.020 A 
ATOM     36  C   UNL     1      -6.732  -0.672  -1.135  0.00  0.00    +0.008 A 
ATOM     37 CL   UNL     1      -9.445   1.984   0.103  0.00  0.00    -0.084 Cl
ENDBRANCH  30  31
ENDBRANCH  29  30
ENDBRANCH  25  29
ENDBRANCH   1  22
TORSDOF 8
