REMARK  Name = ZINC40967467
REMARK  5 active torsions:
REMARK  status: ('A' for Active; 'I' for Inactive)
REMARK    1  A    between atoms: C_1  and  C_2
REMARK    2  A    between atoms: C_5  and  N_8
REMARK    3  A    between atoms: N_8  and  S_18
REMARK    4  A    between atoms: C_9  and  C_11
REMARK    5  A    between atoms: S_18  and  C_21
REMARK                            x       y       z     vdW  Elec       q    Type
REMARK                         _______ _______ _______ _____ _____    ______ ____
ROOT
ATOM      1  N   UNL     1      -0.395  -4.242  -0.276  0.00  0.00    -0.135 N 
ATOM      2  C   UNL     1       0.640  -4.793  -0.941  0.00  0.00    +0.271 C 
ATOM      3  O   UNL     1       1.083  -5.869  -0.591  0.00  0.00    -0.268 OA
ENDROOT
BRANCH   1   8
ATOM      4  C   UNL     1      -2.562   0.709  -1.999  0.00  0.00    +0.044 C 
ATOM      5  C   UNL     1      -1.986  -0.606  -1.541  0.00  0.00    -0.050 A 
ATOM      6  C   UNL     1      -1.768  -1.620  -2.456  0.00  0.00    +0.005 A 
ATOM      7  C   UNL     1      -1.240  -2.826  -2.040  0.00  0.00    +0.025 A 
ATOM      8  C   UNL     1      -0.929  -3.021  -0.701  0.00  0.00    +0.060 A 
ATOM      9  C   UNL     1      -1.149  -2.001   0.216  0.00  0.00    +0.025 A 
ATOM     10  C   UNL     1      -1.672  -0.795  -0.208  0.00  0.00    +0.005 A 
ENDBRANCH   1   8
BRANCH   2  11
ATOM     11  C   UNL     1       1.235  -4.089  -2.095  0.00  0.00    +0.053 A 
ATOM     12  C   UNL     1       1.097  -2.705  -2.220  0.00  0.00    +0.014 A 
ATOM     13  C   UNL     1       1.655  -2.054  -3.300  0.00  0.00    +0.001 A 
ATOM     14  C   UNL     1       2.352  -2.768  -4.259  0.00  0.00    +0.001 A 
ATOM     15  C   UNL     1       2.493  -4.139  -4.143  0.00  0.00    +0.016 A 
ATOM     16  C   UNL     1       1.944  -4.803  -3.064  0.00  0.00    +0.030 A 
ATOM     17 BR   UNL     1       2.145  -6.677  -2.902  0.00  0.00    -0.050 Br
ENDBRANCH   2  11
BRANCH   1  18
ATOM     18  S   UNL     1      -1.035  -5.011   1.044  0.00  0.00    +0.081 S 
ATOM     19  O   UNL     1      -2.336  -4.474   1.236  0.00  0.00    -0.149 OA
ATOM     20  O   UNL     1      -0.804  -6.401   0.856  0.00  0.00    -0.149 OA
BRANCH  18  21
ATOM     21  C   UNL     1      -0.079  -4.527   2.443  0.00  0.00    +0.109 A 
ATOM     22  C   UNL     1       1.119  -5.162   2.714  0.00  0.00    +0.029 A 
ATOM     23  C   UNL     1       1.869  -4.782   3.812  0.00  0.00    +0.002 A 
ATOM     24  C   UNL     1       1.421  -3.767   4.637  0.00  0.00    +0.000 A 
ATOM     25  C   UNL     1       0.224  -3.132   4.365  0.00  0.00    +0.002 A 
ATOM     26  C   UNL     1      -0.524  -3.509   3.265  0.00  0.00    +0.029 A 
ENDBRANCH  18  21
ENDBRANCH   1  18
TORSDOF 4
