REMARK  Name = ZINC13024889
REMARK  11 active torsions:
REMARK  status: ('A' for Active; 'I' for Inactive)
REMARK    1  A    between atoms: C_1  and  C_2
REMARK    2  A    between atoms: C_2  and  C_3
REMARK    3  A    between atoms: C_3  and  C_4
REMARK    4  A    between atoms: C_3  and  C_5
REMARK    5  A    between atoms: C_3  and  N_6
REMARK    6  A    between atoms: C_7  and  C_9
REMARK    7  A    between atoms: C_9  and  C_11
REMARK    8  A    between atoms: C_9  and  N_17
REMARK    9  A    between atoms: N_17  and  C_18
REMARK   10  A    between atoms: C_28  and  C_30
REMARK   11  A    between atoms: C_30  and  N_31
REMARK                            x       y       z     vdW  Elec       q    Type
REMARK                         _______ _______ _______ _____ _____    ______ ____
ROOT
ATOM      1  N   UNL     1       3.673  -0.722  -0.562  0.00  0.00    -0.254 N 
ATOM      2  C   UNL     1       4.815  -0.020  -0.705  0.00  0.00    +0.242 C 
ATOM      3  O   UNL     1       5.879  -0.529  -0.421  0.00  0.00    -0.273 OA
ENDROOT
BRANCH   1   4
ATOM      4  C   UNL     1       2.456  -0.173  -0.988  0.00  0.00    +0.041 A 
ATOM      5  C   UNL     1       1.803  -0.704  -2.092  0.00  0.00    +0.027 A 
ATOM      6  C   UNL     1       0.605  -0.163  -2.514  0.00  0.00    +0.051 A 
ATOM      7  C   UNL     1       0.050   0.913  -1.836  0.00  0.00    +0.162 A 
ATOM      8  C   UNL     1       0.700   1.446  -0.729  0.00  0.00    +0.164 A 
ATOM      9  C   UNL     1       1.903   0.902  -0.307  0.00  0.00    +0.073 A 
ATOM     10  O   UNL     1       0.166   2.495  -0.047  0.00  0.00    -0.485 OA
ATOM     11  C   UNL     1      -0.848   3.251  -0.718  0.00  0.00    +0.270 C 
ATOM     12  C   UNL     1      -1.843   2.268  -1.347  0.00  0.00    +0.270 C 
ATOM     13  O   UNL     1      -1.129   1.439  -2.272  0.00  0.00    -0.485 OA
ENDBRANCH   1   4
BRANCH   1  14
ATOM     14  C   UNL     1       3.704  -2.057   0.038  0.00  0.00    +0.197 C 
BRANCH  14  15
ATOM     15  C   UNL     1       2.332  -2.677  -0.044  0.00  0.00    -0.018 A 
ATOM     16  C   UNL     1       1.243  -2.018   0.494  0.00  0.00    +0.006 A 
ATOM     17  C   UNL     1      -0.016  -2.585   0.414  0.00  0.00    +0.000 A 
ATOM     18  C   UNL     1      -0.183  -3.814  -0.196  0.00  0.00    +0.000 A 
ATOM     19  C   UNL     1       0.907  -4.475  -0.730  0.00  0.00    +0.000 A 
ATOM     20  C   UNL     1       2.165  -3.906  -0.654  0.00  0.00    +0.006 A 
ENDBRANCH  14  15
BRANCH  14  22
ATOM     21  N   UNL     1       4.218  -3.060   2.240  0.00  0.00    -0.308 N 
ATOM     22  C   UNL     1       4.120  -1.950   1.483  0.00  0.00    +0.239 C 
ATOM     23  O   UNL     1       4.366  -0.864   1.963  0.00  0.00    -0.273 OA
ATOM     24  H   UNL     1       4.021  -3.928   1.856  0.00  0.00    +0.149 HD
BRANCH  21  25
ATOM     25  C   UNL     1       4.622  -2.955   3.645  0.00  0.00    +0.029 C 
ATOM     26  C   UNL     1       6.015  -2.326   3.728  0.00  0.00    +0.031 C 
ATOM     27  C   UNL     1       3.621  -2.079   4.400  0.00  0.00    +0.031 C 
BRANCH  25  29
ATOM     28  C   UNL     1       5.077  -4.241   5.738  0.00  0.00    +0.006 C 
ATOM     29  C   UNL     1       4.654  -4.350   4.272  0.00  0.00    +0.022 C 
ENDBRANCH  25  29
ENDBRANCH  21  25
ENDBRANCH  14  22
ENDBRANCH   1  14
BRANCH   2  30
ATOM     30  C   UNL     1       4.771   1.396  -1.217  0.00  0.00    +0.242 C 
BRANCH  30  31
ATOM     31  N   UNL     1       6.117   1.973  -1.176  0.00  0.00    -0.235 N 
ATOM     32  C   UNL     1       6.684   2.665  -0.133  0.00  0.00    +0.090 A 
ATOM     33  C   UNL     1       6.249   3.025   1.138  0.00  0.00    +0.029 A 
ATOM     34  C   UNL     1       7.079   3.726   1.967  0.00  0.00    +0.002 A 
ATOM     35  C   UNL     1       8.357   4.079   1.554  0.00  0.00    +0.002 A 
ATOM     36  C   UNL     1       8.810   3.733   0.314  0.00  0.00    +0.032 A 
ATOM     37  C   UNL     1       7.979   3.014  -0.555  0.00  0.00    +0.113 A 
ATOM     38  N   UNL     1       8.142   2.542  -1.807  0.00  0.00    -0.129 NA
ATOM     39  N   UNL     1       7.079   1.932  -2.197  0.00  0.00    -0.064 NA
ENDBRANCH  30  31
ENDBRANCH   2  30
TORSDOF 8
