REMARK  Name = ZINC15675574
REMARK  6 active torsions:
REMARK  status: ('A' for Active; 'I' for Inactive)
REMARK    1  A    between atoms: C_4  and  C_7
REMARK    2  A    between atoms: C_7  and  N_8
REMARK    3  A    between atoms: C_17  and  C_19
REMARK    4  A    between atoms: C_21  and  C_24
REMARK    5  A    between atoms: C_27  and  O_30
REMARK    6  A    between atoms: O_30  and  C_31
REMARK                            x       y       z     vdW  Elec       q    Type
REMARK                         _______ _______ _______ _____ _____    ______ ____
ROOT
ATOM      1  N   UNL     1       4.153  -0.953   1.342  0.00  0.00    -0.281 NA
ATOM      2  C   UNL     1       4.453   0.312   2.033  0.00  0.00    +0.140 C 
ATOM      3  C   UNL     1       4.999  -0.014   3.401  0.00  0.00    +0.051 A 
ATOM      4  C   UNL     1       5.463  -1.238   3.742  0.00  0.00    +0.040 A 
ATOM      5  N   UNL     1       5.869  -1.166   5.037  0.00  0.00    -0.349 N 
ATOM      6  H   UNL     1       6.248  -1.887   5.564  0.00  0.00    +0.166 HD
ATOM      7  C   UNL     1       5.643   0.103   5.452  0.00  0.00    +0.171 A 
ATOM      8  N   UNL     1       5.122   0.783   4.463  0.00  0.00    -0.349 N 
ATOM      9  C   UNL     1       5.492  -2.410   2.796  0.00  0.00    +0.083 C 
ATOM     10  C   UNL     1       5.302  -1.869   1.371  0.00  0.00    +0.152 C 
ATOM     11  H   UNL     1       4.867   1.718   4.497  0.00  0.00    +0.166 HD
ENDROOT
BRANCH  10  12
ATOM     12  C   UNL     1       5.053  -3.017   0.427  0.00  0.00    +0.245 A 
ATOM     13  N   UNL     1       5.914  -3.507  -0.418  0.00  0.00    -0.190 NA
ATOM     14  C   UNL     1       5.360  -4.525  -1.101  0.00  0.00    +0.202 A 
ATOM     15  N   UNL     1       4.128  -4.687  -0.686  0.00  0.00    -0.056 NA
ATOM     16  O   UNL     1       3.912  -3.709   0.321  0.00  0.00    -0.336 OA
BRANCH  14  17
ATOM     17  C   UNL     1       6.032  -5.330  -2.151  0.00  0.00    +0.023 A 
ATOM     18  C   UNL     1       7.354  -5.059  -2.499  0.00  0.00    +0.015 A 
ATOM     19  C   UNL     1       7.976  -5.809  -3.474  0.00  0.00    +0.046 A 
ATOM     20  C   UNL     1       7.287  -6.834  -4.110  0.00  0.00    +0.130 A 
ATOM     21  C   UNL     1       5.969  -7.106  -3.765  0.00  0.00    +0.046 A 
ATOM     22  C   UNL     1       5.344  -6.363  -2.786  0.00  0.00    +0.015 A 
BRANCH  20  23
ATOM     23  O   UNL     1       7.902  -7.571  -5.071  0.00  0.00    -0.406 OA
BRANCH  23  24
ATOM     24  C   UNL     1       7.134  -8.609  -5.683  0.00  0.00    +0.575 C 
ATOM     25  F   UNL     1       6.007  -8.054  -6.299  0.00  0.00    -0.133 F 
ATOM     26  F   UNL     1       7.915  -9.263  -6.642  0.00  0.00    -0.133 F 
ATOM     27  F   UNL     1       6.728  -9.526  -4.708  0.00  0.00    -0.133 F 
ENDBRANCH  23  24
ENDBRANCH  20  23
ENDBRANCH  14  17
ENDBRANCH  10  12
BRANCH   1  28
ATOM     28  C   UNL     1       3.711  -0.707  -0.038  0.00  0.00    +0.120 C 
BRANCH  28  32
ATOM     29  C   UNL     1      -0.017   1.378   0.010  0.00  0.00    +0.000 A 
ATOM     30  C   UNL     1       1.171   2.086   0.002  0.00  0.00    +0.000 A 
ATOM     31  C   UNL     1       2.377   1.411  -0.013  0.00  0.00    +0.005 A 
ATOM     32  C   UNL     1       2.396   0.029  -0.020  0.00  0.00    -0.033 A 
ATOM     33  C   UNL     1       1.208  -0.679  -0.012  0.00  0.00    +0.005 A 
ATOM     34  C   UNL     1       0.002  -0.004   0.002  0.00  0.00    +0.000 A 
ENDBRANCH  28  32
ENDBRANCH   1  28
TORSDOF 6
