REMARK  Name = ZINC16184821
REMARK  4 active torsions:
REMARK  status: ('A' for Active; 'I' for Inactive)
REMARK    1  A    between atoms: C_10  and  O_11
REMARK    2  A    between atoms: O_11  and  C_12
REMARK    3  A    between atoms: C_12  and  C_14
REMARK    4  A    between atoms: C_18  and  N_20
REMARK                            x       y       z     vdW  Elec       q    Type
REMARK                         _______ _______ _______ _____ _____    ______ ____
ROOT
ATOM      1  C   UNL     1      -0.057   3.855   0.111  0.00  0.00    +0.061 A 
ATOM      2  C   UNL     1       1.151   3.160   0.013  0.00  0.00    +0.015 A 
ATOM      3  C   UNL     1       1.154   1.780   0.010  0.00  0.00    +0.003 A 
ATOM      4  C   UNL     1      -0.035   1.082   0.104  0.00  0.00    +0.024 A 
ATOM      5  C   UNL     1      -1.242   1.764   0.197  0.00  0.00    +0.045 A 
ATOM      6  C   UNL     1      -1.256   3.149   0.206  0.00  0.00    +0.039 A 
ENDROOT
BRANCH   5   7
ATOM      7  N   UNL     1      -2.444   1.051   0.286  0.00  0.00    -0.210 N 
ATOM      8  C   UNL     1      -2.509  -0.326   0.289  0.00  0.00    +0.231 C 
ATOM      9  O   UNL     1      -1.622  -1.130   0.460  0.00  0.00    -0.274 OA
ATOM     10  C   UNL     1      -3.929  -0.561   0.029  0.00  0.00    +0.095 C 
ATOM     11  C   UNL     1      -4.772  -1.775  -0.189  0.00  0.00    +0.027 C 
ATOM     12  C   UNL     1      -5.618  -1.129  -1.356  0.00  0.00    -0.026 C 
ATOM     13  C   UNL     1      -6.217  -0.012  -0.984  0.00  0.00    -0.026 C 
ATOM     14  C   UNL     1      -6.052   0.552   0.419  0.00  0.00    +0.027 C 
ATOM     15  C   UNL     1      -4.598   0.546   0.878  0.00  0.00    +0.095 C 
ATOM     16  C   UNL     1      -3.674   1.647   0.373  0.00  0.00    +0.231 C 
ATOM     17  O   UNL     1      -3.971   2.789   0.110  0.00  0.00    -0.274 OA
ATOM     18  C   UNL     1      -6.638  -0.645   1.264  0.00  0.00    +0.001 C 
ATOM     19  C   UNL     1      -5.871  -1.934   0.886  0.00  0.00    +0.001 C 
ATOM     20  C   UNL     1      -5.715  -1.334   2.262  0.00  0.00    +0.009 C 
ENDBRANCH   5   7
BRANCH   1  21
ATOM     21  C   UNL     1      -0.063   5.332   0.115  0.00  0.00    +0.345 C 
ATOM     22  O   UNL     1      -1.115   5.935   0.200  0.00  0.00    -0.245 OA
BRANCH  21  23
ATOM     23  O   UNL     1       1.097   6.012   0.023  0.00  0.00    -0.422 OA
BRANCH  23  33
ATOM     24  C   UNL     1       0.772   9.757   3.348  0.00  0.00    +0.001 A 
ATOM     25  C   UNL     1       0.857   8.371   3.470  0.00  0.00    +0.001 A 
ATOM     26  C   UNL     1       0.935   7.575   2.368  0.00  0.00    +0.012 A 
ATOM     27  C   UNL     1       0.933   8.155   1.089  0.00  0.00    +0.025 A 
ATOM     28  C   UNL     1       0.847   9.564   0.965  0.00  0.00    -0.014 A 
ATOM     29  C   UNL     1       0.767  10.354   2.125  0.00  0.00    +0.008 A 
ATOM     30  C   UNL     1       0.844  10.145  -0.314  0.00  0.00    +0.009 A 
ATOM     31  C   UNL     1       0.922   9.350  -1.417  0.00  0.00    +0.004 A 
ATOM     32  C   UNL     1       1.013   7.966  -1.301  0.00  0.00    +0.047 A 
ATOM     33  C   UNL     1       1.013   7.364  -0.074  0.00  0.00    +0.140 A 
ENDBRANCH  23  33
ENDBRANCH  21  23
ENDBRANCH   1  21
TORSDOF 4
