REMARK  Name = ZINC59165168
REMARK  6 active torsions:
REMARK  status: ('A' for Active; 'I' for Inactive)
REMARK    1  A    between atoms: C_4  and  C_7
REMARK    2  A    between atoms: C_7  and  C_8
REMARK    3  A    between atoms: C_8  and  N_9
REMARK    4  A    between atoms: N_17  and  N_18
REMARK    5  A    between atoms: N_18  and  S_19
REMARK    6  A    between atoms: S_19  and  C_22
REMARK                            x       y       z     vdW  Elec       q    Type
REMARK                         _______ _______ _______ _____ _____    ______ ____
ROOT
ATOM      1  N   UNL     1       5.450  -1.678   1.382  0.00  0.00    -0.265 N 
ATOM      2  C   UNL     1       5.572  -3.063   1.368  0.00  0.00    +0.046 A 
ATOM      3  C   UNL     1       4.619  -4.076   1.367  0.00  0.00    +0.025 A 
ATOM      4  C   UNL     1       5.013  -5.399   1.353  0.00  0.00    +0.017 A 
ATOM      5  C   UNL     1       6.358  -5.734   1.339  0.00  0.00    +0.019 A 
ATOM      6  C   UNL     1       7.318  -4.741   1.339  0.00  0.00    +0.027 A 
ATOM      7  C   UNL     1       6.930  -3.406   1.353  0.00  0.00    +0.030 A 
ATOM      8  C   UNL     1       7.684  -2.131   1.359  0.00  0.00    +0.156 C 
ATOM      9  N   UNL     1       8.987  -1.972   1.349  0.00  0.00    -0.136 NA
ATOM     10  C   UNL     1       6.652  -1.079   1.372  0.00  0.00    +0.271 C 
ATOM     11  O   UNL     1       6.854   0.122   1.375  0.00  0.00    -0.268 OA
ATOM     12 BR   UNL     1       6.878  -7.552   1.320  0.00  0.00    -0.050 Br
ENDROOT
BRANCH   1  13
ATOM     13  C   UNL     1       4.171  -0.963   1.399  0.00  0.00    +0.118 C 
BRANCH  13  14
ATOM     14  C   UNL     1       3.711  -0.707  -0.038  0.00  0.00    +0.054 C 
BRANCH  14  18
ATOM     15  C   UNL     1      -0.017   1.378   0.010  0.00  0.00    +0.000 A 
ATOM     16  C   UNL     1       1.171   2.086   0.002  0.00  0.00    +0.000 A 
ATOM     17  C   UNL     1       2.377   1.411  -0.013  0.00  0.00    +0.004 A 
ATOM     18  C   UNL     1       2.396   0.029  -0.020  0.00  0.00    -0.046 A 
ATOM     19  C   UNL     1       1.208  -0.679  -0.012  0.00  0.00    +0.004 A 
ATOM     20  C   UNL     1       0.002  -0.004   0.002  0.00  0.00    +0.000 A 
ENDBRANCH  14  18
ENDBRANCH  13  14
ENDBRANCH   1  13
BRANCH   9  21
ATOM     21  N   UNL     1       9.493  -0.785   1.355  0.00  0.00    +0.007 NA
BRANCH  21  22
ATOM     22  S   UNL     1      11.136  -0.585   1.342  0.00  0.00    +0.108 S 
ATOM     23  O   UNL     1      11.617  -1.095   2.578  0.00  0.00    -0.147 OA
ATOM     24  O   UNL     1      11.595  -1.071   0.088  0.00  0.00    -0.147 OA
BRANCH  22  25
ATOM     25  C   UNL     1      11.450   1.149   1.356  0.00  0.00    +0.112 A 
ATOM     26  C   UNL     1      11.557   1.841   0.164  0.00  0.00    +0.032 A 
ATOM     27  C   UNL     1      11.803   3.201   0.173  0.00  0.00    +0.040 A 
ATOM     28  C   UNL     1      11.942   3.870   1.377  0.00  0.00    +0.124 A 
ATOM     29  C   UNL     1      11.835   3.176   2.570  0.00  0.00    +0.040 A 
ATOM     30  C   UNL     1      11.584   1.817   2.558  0.00  0.00    +0.032 A 
ATOM     31  F   UNL     1      12.183   5.199   1.387  0.00  0.00    -0.205 F 
ENDBRANCH  22  25
ENDBRANCH  21  22
ENDBRANCH   9  21
TORSDOF 6
