REMARK  Name = ZINC12244249
REMARK  7 active torsions:
REMARK  status: ('A' for Active; 'I' for Inactive)
REMARK    1  A    between atoms: C_4  and  C_7
REMARK    2  A    between atoms: C_7  and  C_8
REMARK    3  A    between atoms: C_8  and  C_21
REMARK    4  A    between atoms: N_11  and  C_15
REMARK    5  A    between atoms: C_15  and  C_16
REMARK    6  A    between atoms: C_16  and  N_73
REMARK    7  A    between atoms: C_27  and  C_29
REMARK                            x       y       z     vdW  Elec       q    Type
REMARK                         _______ _______ _______ _____ _____    ______ ____
ROOT
ATOM      1  C   UNL     1      -0.759   1.588   1.274  0.00  0.00    +0.119 C 
ATOM      2  C   UNL     1      -0.804   3.103   1.303  0.00  0.00    +0.247 C 
ATOM      3  O   UNL     1       0.140   3.863   1.321  0.00  0.00    -0.273 OA
ATOM      4  N   UNL     1      -2.112   3.428   1.305  0.00  0.00    -0.226 N 
ATOM      5  C   UNL     1      -2.891   2.341   1.281  0.00  0.00    +0.309 C 
ATOM      6  O   UNL     1      -4.106   2.380   1.278  0.00  0.00    -0.252 OA
ATOM      7  N   UNL     1      -2.180   1.199   1.262  0.00  0.00    -0.284 N 
ATOM      8  H   UNL     1      -2.534   0.296   1.243  0.00  0.00    +0.151 HD
ENDROOT
BRANCH   1   9
ATOM      9  C   UNL     1      -0.060   1.046   2.523  0.00  0.00    +0.025 C 
ATOM     10  C   UNL     1      -0.091  -0.483   2.502  0.00  0.00    +0.025 C 
ATOM     11  C   UNL     1       0.640  -1.022   3.735  0.00  0.00    +0.108 C 
ATOM     12  N   UNL     1       0.043  -0.424   4.937  0.00  0.00    -0.301 N 
ATOM     13  C   UNL     1      -0.060   1.040   5.021  0.00  0.00    +0.108 C 
ATOM     14  C   UNL     1      -0.783   1.555   3.772  0.00  0.00    +0.025 C 
ATOM     15  C   UNL     1      -0.402  -1.202   5.943  0.00  0.00    +0.219 C 
ATOM     16  O   UNL     1      -0.814  -0.696   6.965  0.00  0.00    -0.275 OA
BRANCH  15  17
ATOM     17  C   UNL     1      -0.387  -2.702   5.799  0.00  0.00    +0.079 C 
ATOM     18  C   UNL     1      -1.656  -3.163   5.071  0.00  0.00    +0.017 C 
ATOM     19  C   UNL     1      -1.531  -4.660   4.781  0.00  0.00    +0.027 C 
ATOM     20  C   UNL     1      -1.124  -5.396   6.024  0.00  0.00    -0.031 C 
ATOM     21  C   UNL     1      -0.611  -4.827   7.067  0.00  0.00    -0.030 C 
ATOM     22  C   UNL     1      -0.360  -3.352   7.184  0.00  0.00    +0.039 C 
ENDBRANCH  15  17
ENDBRANCH   1   9
BRANCH   1  23
ATOM     23  C   UNL     1      -0.055   1.094   0.009  0.00  0.00    +0.070 C 
BRANCH  23  27
ATOM     24  C   UNL     1      -2.145   2.521  -3.433  0.00  0.00    +0.000 A 
ATOM     25  C   UNL     1      -1.126   3.275  -2.881  0.00  0.00    +0.000 A 
ATOM     26  C   UNL     1      -0.450   2.813  -1.767  0.00  0.00    +0.004 A 
ATOM     27  C   UNL     1      -0.793   1.598  -1.205  0.00  0.00    -0.045 A 
ATOM     28  C   UNL     1      -1.808   0.842  -1.760  0.00  0.00    +0.004 A 
ATOM     29  C   UNL     1      -2.488   1.306  -2.871  0.00  0.00    +0.000 A 
ENDBRANCH  23  27
ENDBRANCH   1  23
BRANCH   4  30
ATOM     30  C   UNL     1      -2.618   4.803   1.330  0.00  0.00    +0.099 C 
BRANCH  30  31
ATOM     31  C   UNL     1      -2.789   5.310  -0.103  0.00  0.00    -0.059 C 
BRANCH  31  36
ATOM     32  C   UNL     1      -2.449   7.551   0.784  0.00  0.00    -0.079 C 
ATOM     33  C   UNL     1      -2.781   8.982   0.289  0.00  0.00    -0.020 C 
ATOM     34  C   UNL     1      -2.937   8.791  -1.238  0.00  0.00    -0.020 C 
ATOM     35  C   UNL     1      -3.250   7.295  -1.426  0.00  0.00    -0.079 C 
ATOM     36  N   UNL     1      -3.294   6.716  -0.083  0.00  0.00    +0.381 N 
ATOM     37  H   UNL     1      -4.260   6.721   0.265  0.00  0.00    -0.082 HD
ENDBRANCH  31  36
ENDBRANCH  30  31
ENDBRANCH   4  30
TORSDOF 7
