REMARK  Name = ZINC20917623
REMARK  14 active torsions:
REMARK  status: ('A' for Active; 'I' for Inactive)
REMARK    1  A    between atoms: C_1  and  C_2
REMARK    2  A    between atoms: C_2  and  N_3
REMARK    3  A    between atoms: N_3  and  C_4
REMARK    4  A    between atoms: N_3  and  S_6
REMARK    5  A    between atoms: C_4  and  C_5
REMARK    6  A    between atoms: S_6  and  C_9
REMARK    7  A    between atoms: C_12  and  N_15
REMARK    8  A    between atoms: C_16  and  C_18
REMARK    9  A    between atoms: C_18  and  S_19
REMARK   10  A    between atoms: S_19  and  C_20
REMARK   11  A    between atoms: N_24  and  N_25
REMARK   12  A    between atoms: N_26  and  N_27
REMARK   13  A    between atoms: C_28  and  C_29
REMARK   14  A    between atoms: C_32  and  C_35
REMARK                            x       y       z     vdW  Elec       q    Type
REMARK                         _______ _______ _______ _____ _____    ______ ____
ROOT
ATOM      1  S   UNL     1       1.655   4.934   0.009  0.00  0.00    -0.075 S 
ENDROOT
BRANCH   1   2
ATOM      2  C   UNL     1       0.638   3.495   0.001  0.00  0.00    +0.210 A 
ATOM      3  N   UNL     1      -0.673   3.478   0.004  0.00  0.00    -0.119 NA
ATOM      4  N   UNL     1      -1.089   2.140  -0.010  0.00  0.00    -0.109 NA
ATOM      5  C   UNL     1      -0.018   1.383  -0.013  0.00  0.00    +0.254 A 
ATOM      6  N   UNL     1       1.078   2.202  -0.009  0.00  0.00    -0.211 N 
ATOM      7  N   UNL     1       0.001  -0.004  -0.024  0.00  0.00    -0.204 N 
ATOM      8  H   UNL     1       0.961  -0.541  -0.031  0.00  0.00    +0.177 HD
BRANCH   6   9
ATOM      9  N   UNL     1       2.382   1.797  -0.015  0.00  0.00    -0.294 N 
ATOM     10  H   UNL     1       2.625   0.724  -0.024  0.00  0.00    +0.163 HD
ATOM     11  H   UNL     1       3.190   2.544  -0.011  0.00  0.00    +0.163 HD
ENDBRANCH   6   9
BRANCH   7  12
ATOM     12  N   UNL     1      -1.203  -0.721  -0.027  0.00  0.00    -0.188 NA
ATOM     13  C   UNL     1      -1.185  -2.019  -0.037  0.00  0.00    +0.138 C 
BRANCH  13  14
ATOM     14  C   UNL     1      -2.452  -2.773  -0.040  0.00  0.00    -0.005 A 
ATOM     15  C   UNL     1      -3.673  -2.095  -0.026  0.00  0.00    +0.010 A 
ATOM     16  C   UNL     1      -4.854  -2.807  -0.033  0.00  0.00    +0.004 A 
ATOM     17  C   UNL     1      -4.832  -4.190  -0.044  0.00  0.00    -0.050 A 
ATOM     18  C   UNL     1      -3.626  -4.869  -0.053  0.00  0.00    +0.004 A 
ATOM     19  C   UNL     1      -2.437  -4.170  -0.051  0.00  0.00    +0.010 A 
ATOM     20  C   UNL     1      -6.127  -4.961  -0.045  0.00  0.00    +0.044 C 
ENDBRANCH  13  14
ENDBRANCH   7  12
ENDBRANCH   1   2
BRANCH   1  21
ATOM     21  C   UNL     1       0.470   6.308   0.022  0.00  0.00    +0.173 C 
BRANCH  21  23
ATOM     22  N   UNL     1       0.540   8.781   0.041  0.00  0.00    -0.285 N 
ATOM     23  C   UNL     1       1.219   7.616   0.030  0.00  0.00    +0.227 C 
ATOM     24  O   UNL     1       2.432   7.621   0.028  0.00  0.00    -0.275 OA
ATOM     25  H   UNL     1      -0.557   8.778  -0.034  0.00  0.00    +0.155 HD
BRANCH  22  29
ATOM     26  C   UNL     1       2.599  12.389   0.354  0.00  0.00    +0.106 A 
ATOM     27  C   UNL     1       3.154  11.337  -0.351  0.00  0.00    +0.030 A 
ATOM     28  C   UNL     1       2.474  10.139  -0.456  0.00  0.00    +0.025 A 
ATOM     29  C   UNL     1       1.232   9.993   0.146  0.00  0.00    +0.034 A 
ATOM     30  C   UNL     1       0.674  11.053   0.848  0.00  0.00    +0.025 A 
ATOM     31  C   UNL     1       1.362  12.246   0.955  0.00  0.00    +0.030 A 
BRANCH  26  32
ATOM     32  S   UNL     1       3.470  13.915   0.486  0.00  0.00    +0.061 S 
ATOM     33  O   UNL     1       2.983  14.560   1.655  0.00  0.00    -0.153 OA
ATOM     34  O   UNL     1       4.846  13.615   0.299  0.00  0.00    -0.153 OA
BRANCH  32  35
ATOM     35  N   UNL     1       3.011  14.854  -0.799  0.00  0.00    -0.177 NA
BRANCH  35  37
ATOM     36  C   UNL     1       2.341  17.151  -0.294  0.00  0.00    +0.022 C 
ATOM     37  C   UNL     1       1.859  15.751  -0.676  0.00  0.00    +0.106 C 
ENDBRANCH  35  37
BRANCH  35  38
ATOM     38  C   UNL     1       3.757  14.787  -2.058  0.00  0.00    +0.106 C 
ATOM     39  C   UNL     1       3.073  13.799  -3.004  0.00  0.00    +0.022 C 
ENDBRANCH  35  38
ENDBRANCH  32  35
ENDBRANCH  26  32
ENDBRANCH  22  29
ENDBRANCH  21  23
ENDBRANCH   1  21
TORSDOF 11
