REMARK  Name = ZINC35885911
REMARK  8 active torsions:
REMARK  status: ('A' for Active; 'I' for Inactive)
REMARK    1  A    between atoms: C_1  and  O_2
REMARK    2  A    between atoms: O_2  and  C_3
REMARK    3  A    between atoms: C_6  and  C_9
REMARK    4  A    between atoms: C_9  and  C_10
REMARK    5  A    between atoms: C_14  and  C_29
REMARK    6  A    between atoms: C_16  and  C_19
REMARK    7  A    between atoms: C_23  and  C_25
REMARK    8  A    between atoms: C_29  and  N_30
REMARK                            x       y       z     vdW  Elec       q    Type
REMARK                         _______ _______ _______ _____ _____    ______ ____
ROOT
ATOM      1  C   UNL     1      -5.424  -3.015  -0.802  0.00  0.00    +0.220 C 
ATOM      2  O   UNL     1      -4.703  -2.427  -1.581  0.00  0.00    -0.275 OA
ATOM      3  N   UNL     1      -6.596  -3.529  -1.226  0.00  0.00    -0.300 N 
ATOM      4  C   UNL     1      -7.168  -3.482  -2.591  0.00  0.00    +0.110 C 
ATOM      5  C   UNL     1      -7.806  -4.873  -2.794  0.00  0.00    -0.001 C 
ATOM      6  C   UNL     1      -8.094  -5.391  -1.369  0.00  0.00    +0.039 C 
ATOM      7  C   UNL     1      -7.601  -4.273  -0.432  0.00  0.00    +0.116 C 
ENDROOT
BRANCH   6   8
ATOM      8  C   UNL     1      -9.571  -5.625  -1.185  0.00  0.00    -0.042 A 
ATOM      9  C   UNL     1     -10.068  -6.914  -1.148  0.00  0.00    +0.004 A 
ATOM     10  C   UNL     1     -11.423  -7.128  -0.979  0.00  0.00    +0.001 A 
ATOM     11  C   UNL     1     -12.281  -6.053  -0.846  0.00  0.00    +0.012 A 
ATOM     12  C   UNL     1     -11.785  -4.764  -0.882  0.00  0.00    +0.055 A 
ATOM     13  C   UNL     1     -10.429  -4.550  -1.047  0.00  0.00    +0.016 A 
BRANCH  12  14
ATOM     14  C   UNL     1     -12.721  -3.591  -0.738  0.00  0.00    +0.417 C 
ATOM     15  F   UNL     1     -14.030  -4.057  -0.581  0.00  0.00    -0.166 F 
ATOM     16  F   UNL     1     -12.356  -2.839   0.384  0.00  0.00    -0.166 F 
ATOM     17  F   UNL     1     -12.645  -2.790  -1.882  0.00  0.00    -0.166 F 
ENDBRANCH  12  14
ENDBRANCH   6   8
BRANCH   1  18
ATOM     18  C   UNL     1      -5.009  -3.172   0.638  0.00  0.00    +0.131 C 
BRANCH  18  22
ATOM     19  C   UNL     1      -1.211  -1.307   1.237  0.00  0.00    +0.120 A 
ATOM     20  C   UNL     1      -2.378  -0.578   1.411  0.00  0.00    +0.046 A 
ATOM     21  C   UNL     1      -3.605  -1.183   1.216  0.00  0.00    +0.007 A 
ATOM     22  C   UNL     1      -3.669  -2.514   0.849  0.00  0.00    -0.038 A 
ATOM     23  C   UNL     1      -2.507  -3.243   0.676  0.00  0.00    +0.007 A 
ATOM     24  C   UNL     1      -1.278  -2.641   0.863  0.00  0.00    +0.046 A 
BRANCH  19  26
ATOM     25  C   UNL     1      -0.010   0.663   1.812  0.00  0.00    +0.277 C 
ATOM     26  O   UNL     1      -0.003  -0.713   1.427  0.00  0.00    -0.495 OA
ENDBRANCH  19  26
ENDBRANCH  18  22
ENDBRANCH   1  18
BRANCH   5  27
ATOM     27  C   UNL     1      -9.107  -4.751  -3.590  0.00  0.00    -0.073 C 
BRANCH  27  28
ATOM     28  N   UNL     1      -8.806  -4.287  -4.951  0.00  0.00    +0.383 N 
ATOM     29  C   UNL     1     -10.062  -4.065  -5.685  0.00  0.00    -0.074 C 
ATOM     30  C   UNL     1      -9.747  -3.301  -6.971  0.00  0.00    +0.017 C 
ATOM     31  C   UNL     1      -8.632  -3.991  -7.715  0.00  0.00    -0.048 A 
ATOM     32  C   UNL     1      -8.426  -3.674  -9.048  0.00  0.00    +0.004 A 
ATOM     33  C   UNL     1      -7.413  -4.284  -9.761  0.00  0.00    +0.000 A 
ATOM     34  C   UNL     1      -6.600  -5.215  -9.141  0.00  0.00    +0.000 A 
ATOM     35  C   UNL     1      -6.805  -5.532  -7.813  0.00  0.00    +0.002 A 
ATOM     36  C   UNL     1      -7.824  -4.921  -7.096  0.00  0.00    -0.061 A 
ATOM     37  C   UNL     1      -8.017  -5.304  -5.653  0.00  0.00    -0.043 C 
ATOM     38  H   UNL     1      -8.283  -3.425  -4.906  0.00  0.00    -0.081 HD
ENDBRANCH  27  28
ENDBRANCH   5  27
TORSDOF 7
