REMARK  Name = ZINC18166941
REMARK  7 active torsions:
REMARK  status: ('A' for Active; 'I' for Inactive)
REMARK    1  A    between atoms: C_1  and  O_2
REMARK    2  A    between atoms: O_2  and  C_3
REMARK    3  A    between atoms: C_6  and  C_9
REMARK    4  A    between atoms: C_10  and  C_19
REMARK    5  A    between atoms: C_14  and  C_15
REMARK    6  A    between atoms: C_22  and  O_26
REMARK    7  A    between atoms: C_24  and  O_25
REMARK                            x       y       z     vdW  Elec       q    Type
REMARK                         _______ _______ _______ _____ _____    ______ ____
ROOT
ATOM      1  C   UNL     1      -4.988  -2.578   0.066  0.00  0.00    +0.039 A 
ATOM      2  C   UNL     1      -5.434  -3.514   1.032  0.00  0.00    +0.104 A 
ATOM      3  N   UNL     1      -6.615  -3.951   0.654  0.00  0.00    -0.173 NA
ATOM      4  N   UNL     1      -6.957  -3.320  -0.547  0.00  0.00    -0.272 N 
ATOM      5  H   UNL     1      -7.776  -3.458  -1.048  0.00  0.00    +0.189 HD
ATOM      6  C   UNL     1      -5.956  -2.482  -0.889  0.00  0.00    +0.147 A 
ENDROOT
BRANCH   1  10
ATOM      7  C   UNL     1      -1.308  -0.444   0.140  0.00  0.00    +0.120 A 
ATOM      8  C   UNL     1      -2.506   0.236   0.308  0.00  0.00    +0.046 A 
ATOM      9  C   UNL     1      -3.701  -0.453   0.285  0.00  0.00    +0.012 A 
ATOM     10  C   UNL     1      -3.704  -1.833   0.091  0.00  0.00    -0.014 A 
ATOM     11  C   UNL     1      -2.500  -2.513  -0.078  0.00  0.00    +0.012 A 
ATOM     12  C   UNL     1      -1.308  -1.818  -0.058  0.00  0.00    +0.046 A 
BRANCH   7  14
ATOM     13  C   UNL     1      -0.205   1.649   0.373  0.00  0.00    +0.277 C 
ATOM     14  O   UNL     1      -0.133   0.237   0.165  0.00  0.00    -0.495 OA
ENDBRANCH   7  14
ENDBRANCH   1  10
BRANCH   2  15
ATOM     15  C   UNL     1      -4.699  -3.925   2.253  0.00  0.00    +0.044 A 
ATOM     16  C   UNL     1      -4.130  -2.963   3.084  0.00  0.00    +0.017 A 
ATOM     17  C   UNL     1      -3.447  -3.349   4.219  0.00  0.00    +0.046 A 
ATOM     18  C   UNL     1      -3.325  -4.695   4.535  0.00  0.00    +0.120 A 
ATOM     19  C   UNL     1      -3.888  -5.660   3.713  0.00  0.00    +0.091 A 
ATOM     20  C   UNL     1      -4.581  -5.281   2.576  0.00  0.00    +0.130 A 
BRANCH  20  21
ATOM     21  O   UNL     1      -5.138  -6.224   1.772  0.00  0.00    -0.506 OA
ATOM     22  H   UNL     1      -4.550  -6.543   1.073  0.00  0.00    +0.292 HD
ENDBRANCH  20  21
BRANCH  18  23
ATOM     23  O   UNL     1      -2.650  -5.069   5.654  0.00  0.00    -0.507 OA
ATOM     24  H   UNL     1      -3.204  -5.136   6.444  0.00  0.00    +0.292 HD
ENDBRANCH  18  23
ENDBRANCH   2  15
BRANCH   6  25
ATOM     25  C   UNL     1      -5.914  -1.600  -2.110  0.00  0.00    +0.434 C 
ATOM     26  F   UNL     1      -7.087  -1.775  -2.852  0.00  0.00    -0.164 F 
ATOM     27  F   UNL     1      -5.808  -0.262  -1.715  0.00  0.00    -0.164 F 
ATOM     28  F   UNL     1      -4.809  -1.943  -2.896  0.00  0.00    -0.164 F 
ENDBRANCH   6  25
TORSDOF 6
