REMARK  Name = ZINC13127374
REMARK  6 active torsions:
REMARK  status: ('A' for Active; 'I' for Inactive)
REMARK    1  A    between atoms: C_12  and  C_14
REMARK    2  A    between atoms: C_14  and  S_15
REMARK    3  A    between atoms: S_15  and  C_16
REMARK    4  A    between atoms: C_19  and  C_27
REMARK    5  A    between atoms: N_20  and  C_21
REMARK    6  A    between atoms: C_27  and  C_28
REMARK                            x       y       z     vdW  Elec       q    Type
REMARK                         _______ _______ _______ _____ _____    ______ ____
ROOT
ATOM      1  S   UNL     1      -5.552  -4.209   3.582  0.00  0.00    -0.077 S 
ENDROOT
BRANCH   1   2
ATOM      2  C   UNL     1      -6.587  -3.358   4.725  0.00  0.00    +0.192 A 
ATOM      3  N   UNL     1      -6.726  -2.057   4.834  0.00  0.00    -0.122 NA
ATOM      4  N   UNL     1      -7.561  -1.784   5.771  0.00  0.00    -0.133 NA
ATOM      5  C   UNL     1      -8.002  -2.884   6.313  0.00  0.00    +0.139 A 
ATOM      6  N   UNL     1      -7.402  -3.926   5.662  0.00  0.00    -0.303 N 
BRANCH   6   7
ATOM      7  C   UNL     1      -7.590  -5.356   5.920  0.00  0.00    +0.091 C 
ATOM      8  C   UNL     1      -6.252  -5.985   6.313  0.00  0.00    +0.025 C 
ATOM      9  C   UNL     1      -6.449  -7.478   6.581  0.00  0.00    +0.002 C 
ATOM     10  C   UNL     1      -6.980  -8.158   5.318  0.00  0.00    +0.000 C 
ATOM     11  C   UNL     1      -8.319  -7.529   4.925  0.00  0.00    +0.002 C 
ATOM     12  C   UNL     1      -8.121  -6.036   4.656  0.00  0.00    +0.025 C 
ENDBRANCH   6   7
BRANCH   5  13
ATOM     13  C   UNL     1      -8.993  -2.989   7.443  0.00  0.00    +0.118 C 
BRANCH  13  14
ATOM     14  C   UNL     1     -10.390  -3.059   6.881  0.00  0.00    -0.003 A 
ATOM     15  C   UNL     1     -11.111  -4.148   6.520  0.00  0.00    +0.011 A 
ATOM     16  C   UNL     1     -12.390  -3.972   6.025  0.00  0.00    +0.008 A 
ATOM     17  C   UNL     1     -12.881  -2.714   5.907  0.00  0.00    +0.045 A 
ATOM     18  S   UNL     1     -11.521  -1.728   6.511  0.00  0.00    -0.101 S 
ENDBRANCH  13  14
ENDBRANCH   5  13
ENDBRANCH   1   2
BRANCH   1  19
ATOM     19  C   UNL     1      -4.827  -2.801   2.706  0.00  0.00    +0.173 C 
BRANCH  19  31
ATOM     20  C   UNL     1       1.182   2.076   0.002  0.00  0.00    +0.005 A 
ATOM     21  C   UNL     1       2.365   1.348  -0.013  0.00  0.00    +0.018 A 
ATOM     22  C   UNL     1       2.310  -0.031  -0.020  0.00  0.00    +0.084 A 
ATOM     23  C   UNL     1       0.002  -0.004   0.002  0.00  0.00    +0.099 A 
ATOM     24  C   UNL     1      -0.017   1.387   0.010  0.00  0.00    +0.042 A 
ATOM     25  N   UNL     1      -1.196  -0.709   0.010  0.00  0.00    -0.314 N 
ATOM     26  C   UNL     1      -2.030  -0.316   1.153  0.00  0.00    +0.125 C 
ATOM     27  C   UNL     1      -3.407  -0.977   1.028  0.00  0.00    +0.126 C 
ATOM     28  N   UNL     1      -3.217  -2.426   0.865  0.00  0.00    -0.298 N 
ATOM     29  C   UNL     1      -2.287  -2.894  -0.173  0.00  0.00    +0.126 C 
ATOM     30  C   UNL     1      -0.954  -2.158   0.000  0.00  0.00    +0.125 C 
ATOM     31  C   UNL     1      -3.878  -3.303   1.648  0.00  0.00    +0.226 C 
ATOM     32  O   UNL     1      -3.708  -4.494   1.500  0.00  0.00    -0.275 OA
ATOM     33  N   UNL     1       1.150  -0.741  -0.013  0.00  0.00    -0.350 N 
ATOM     34  H   UNL     1       1.139  -1.768  -0.018  0.00  0.00    +0.166 HD
ENDBRANCH  19  31
ENDBRANCH   1  19
TORSDOF 6
