REMARK  Name = ZINC02970008
REMARK  8 active torsions:
REMARK  status: ('A' for Active; 'I' for Inactive)
REMARK    1  A    between atoms: C_4  and  N_7
REMARK    2  A    between atoms: C_8  and  C_10
REMARK    3  A    between atoms: N_12  and  C_13
REMARK    4  A    between atoms: C_13  and  C_14
REMARK    5  A    between atoms: C_17  and  C_19
REMARK    6  A    between atoms: N_20  and  N_21
REMARK    7  A    between atoms: C_22  and  C_24
REMARK    8  A    between atoms: N_26  and  C_27
REMARK                            x       y       z     vdW  Elec       q    Type
REMARK                         _______ _______ _______ _____ _____    ______ ____
ROOT
ATOM      1  C   UNL     1       6.198  -6.239   0.469  0.00  0.00    +0.123 A 
ATOM      2  C   UNL     1       6.186  -7.096  -0.574  0.00  0.00    +0.047 A 
ATOM      3  C   UNL     1       5.968  -8.383  -0.050  0.00  0.00    +0.051 A 
ATOM      4  C   UNL     1       5.855  -8.241   1.304  0.00  0.00    +0.148 A 
ATOM      5  O   UNL     1       6.003  -6.934   1.601  0.00  0.00    -0.457 OA
ENDROOT
BRANCH   4   6
ATOM      6  C   UNL     1       5.622  -9.321   2.266  0.00  0.00    +0.176 C 
ATOM      7  N   UNL     1       5.534  -9.053   3.537  0.00  0.00    -0.184 NA
BRANCH   7   8
ATOM      8  N   UNL     1       5.310 -10.085   4.457  0.00  0.00    -0.199 N 
ATOM      9  C   UNL     1       5.219  -9.808   5.773  0.00  0.00    +0.318 C 
ATOM     10  O   UNL     1       5.331  -8.663   6.161  0.00  0.00    -0.263 OA
ATOM     11  H   UNL     1       5.220 -11.000   4.147  0.00  0.00    +0.178 HD
BRANCH   9  12
ATOM     12  C   UNL     1       4.981 -10.907   6.751  0.00  0.00    +0.305 C 
ATOM     13  O   UNL     1       4.869 -12.052   6.363  0.00  0.00    -0.265 OA
ATOM     14  N   UNL     1       4.890 -10.629   8.067  0.00  0.00    -0.277 N 
ATOM     15  H   UNL     1       4.902  -9.708   8.370  0.00  0.00    +0.155 HD
BRANCH  14  16
ATOM     16  C   UNL     1       4.778 -11.669   8.994  0.00  0.00    +0.048 A 
ATOM     17  C   UNL     1       5.199 -12.950   8.658  0.00  0.00    +0.024 A 
ATOM     18  C   UNL     1       5.087 -13.975   9.577  0.00  0.00    +0.002 A 
ATOM     19  C   UNL     1       4.556 -13.728  10.830  0.00  0.00    +0.001 A 
ATOM     20  C   UNL     1       4.136 -12.455  11.168  0.00  0.00    +0.017 A 
ATOM     21  C   UNL     1       4.251 -11.423  10.256  0.00  0.00    +0.039 A 
ATOM     22 BR   UNL     1       3.684  -9.680  10.723  0.00  0.00    -0.048 Br
ENDBRANCH  14  16
ENDBRANCH   9  12
ENDBRANCH   7   8
ENDBRANCH   4   6
BRANCH   1  23
ATOM     23  C   UNL     1       6.401  -4.749   0.378  0.00  0.00    +0.179 C 
BRANCH  23  26
ATOM     24  C   UNL     1       5.039  -2.745   0.121  0.00  0.00    +0.300 C 
ATOM     25  O   UNL     1       6.056  -2.084   0.157  0.00  0.00    -0.265 OA
ATOM     26  N   UNL     1       5.103  -4.087   0.224  0.00  0.00    -0.300 N 
ATOM     27  H   UNL     1       4.290  -4.615   0.195  0.00  0.00    +0.150 HD
BRANCH  24  29
ATOM     28  N   UNL     1       3.651  -0.728  -0.139  0.00  0.00    -0.278 N 
ATOM     29  C   UNL     1       3.716  -2.071  -0.036  0.00  0.00    +0.303 C 
ATOM     30  O   UNL     1       2.698  -2.731  -0.072  0.00  0.00    -0.265 OA
ATOM     31  H   UNL     1       4.467  -0.206  -0.188  0.00  0.00    +0.155 HD
BRANCH  28  35
ATOM     32  C   UNL     1      -0.050   1.178  -0.243  0.00  0.00    +0.000 A 
ATOM     33  C   UNL     1       0.113   0.026   0.505  0.00  0.00    +0.002 A 
ATOM     34  C   UNL     1       1.339  -0.608   0.542  0.00  0.00    +0.023 A 
ATOM     35  C   UNL     1       2.409  -0.089  -0.174  0.00  0.00    +0.034 A 
ATOM     36  C   UNL     1       2.243   1.067  -0.926  0.00  0.00    +0.023 A 
ATOM     37  C   UNL     1       1.014   1.697  -0.958  0.00  0.00    +0.002 A 
ENDBRANCH  28  35
ENDBRANCH  24  29
ENDBRANCH  23  26
ENDBRANCH   1  23
TORSDOF 8
