REMARK  Name = ZINC35091033
REMARK  12 active torsions:
REMARK  status: ('A' for Active; 'I' for Inactive)
REMARK    1  A    between atoms: C_1  and  C_2
REMARK    2  A    between atoms: C_2  and  C_3
REMARK    3  A    between atoms: C_6  and  N_9
REMARK    4  A    between atoms: C_19  and  C_20
REMARK    5  A    between atoms: C_20  and  C_22
REMARK    6  A    between atoms: C_20  and  N_23
REMARK    7  A    between atoms: N_23  and  C_24
REMARK    8  A    between atoms: C_24  and  C_25
REMARK    9  A    between atoms: C_25  and  O_26
REMARK   10  A    between atoms: O_26  and  C_27
REMARK   11  A    between atoms: N_30  and  C_31
REMARK   12  A    between atoms: C_34  and  C_37
REMARK                            x       y       z     vdW  Elec       q    Type
REMARK                         _______ _______ _______ _____ _____    ______ ____
ROOT
ATOM      1  N   UNL     1      -6.123  -3.477  -0.397  0.00  0.00    -0.263 N 
ATOM      2  C   UNL     1      -6.950  -3.761   0.636  0.00  0.00    +0.266 A 
ATOM      3  O   UNL     1      -6.872  -4.817   1.236  0.00  0.00    -0.267 OA
ATOM      4  C   UNL     1      -7.944  -2.743   1.007  0.00  0.00    +0.065 A 
ATOM      5  C   UNL     1      -8.841  -2.937   2.056  0.00  0.00    +0.015 A 
ATOM      6  C   UNL     1      -9.752  -1.950   2.361  0.00  0.00    +0.001 A 
ATOM      7  C   UNL     1      -9.783  -0.768   1.632  0.00  0.00    +0.002 A 
ATOM      8  C   UNL     1      -8.906  -0.557   0.592  0.00  0.00    +0.028 A 
ATOM      9  C   UNL     1      -7.972  -1.542   0.264  0.00  0.00    +0.078 A 
ATOM     10  N   UNL     1      -7.089  -1.375  -0.752  0.00  0.00    -0.231 NA
ATOM     11  C   UNL     1      -6.218  -2.289  -1.054  0.00  0.00    +0.138 A 
ENDROOT
BRANCH   1  15
ATOM     12  C   UNL     1      -3.251  -6.260  -1.569  0.00  0.00    -0.047 A 
ATOM     13  C   UNL     1      -4.556  -6.391  -2.005  0.00  0.00    +0.005 A 
ATOM     14  C   UNL     1      -5.511  -5.471  -1.618  0.00  0.00    +0.026 A 
ATOM     15  C   UNL     1      -5.158  -4.413  -0.790  0.00  0.00    +0.051 A 
ATOM     16  C   UNL     1      -3.846  -4.284  -0.354  0.00  0.00    +0.026 A 
ATOM     17  C   UNL     1      -2.897  -5.211  -0.740  0.00  0.00    +0.005 A 
BRANCH  12  19
ATOM     18  C   UNL     1      -2.171  -8.414  -0.981  0.00  0.00    +0.009 C 
ATOM     19  C   UNL     1      -2.212  -7.266  -1.992  0.00  0.00    +0.032 C 
ENDBRANCH  12  19
ENDBRANCH   1  15
BRANCH  11  20
ATOM     20  C   UNL     1      -5.268  -2.024  -2.193  0.00  0.00    +0.141 C 
ATOM     21  C   UNL     1      -4.504  -0.725  -1.927  0.00  0.00    +0.036 C 
BRANCH  20  22
ATOM     22  N   UNL     1      -6.024  -1.899  -3.441  0.00  0.00    -0.273 N 
ATOM     23  C   UNL     1      -5.783  -2.745  -4.462  0.00  0.00    +0.307 C 
ATOM     24  O   UNL     1      -4.938  -3.612  -4.348  0.00  0.00    -0.252 OA
ATOM     25  N   UNL     1      -6.479  -2.631  -5.611  0.00  0.00    -0.269 N 
ATOM     26  H   UNL     1      -7.208  -1.994  -5.675  0.00  0.00    +0.156 HD
BRANCH  25  27
ATOM     27  C   UNL     1      -6.151  -3.432  -6.710  0.00  0.00    +0.035 A 
ATOM     28  C   UNL     1      -7.142  -3.842  -7.593  0.00  0.00    +0.023 A 
ATOM     29  C   UNL     1      -6.815  -4.631  -8.678  0.00  0.00    +0.005 A 
ATOM     30  C   UNL     1      -5.502  -5.013  -8.886  0.00  0.00    -0.050 A 
ATOM     31  C   UNL     1      -4.513  -4.607  -8.009  0.00  0.00    +0.005 A 
ATOM     32  C   UNL     1      -4.833  -3.813  -6.925  0.00  0.00    +0.023 A 
ATOM     33  C   UNL     1      -5.149  -5.875 -10.070  0.00  0.00    +0.044 C 
ENDBRANCH  25  27
BRANCH  22  34
ATOM     34  C   UNL     1      -7.043  -0.856  -3.579  0.00  0.00    +0.138 C 
BRANCH  34  35
ATOM     35  C   UNL     1      -6.400   0.413  -4.142  0.00  0.00    +0.178 C 
BRANCH  35  36
ATOM     36  O   UNL     1      -5.933   0.163  -5.469  0.00  0.00    -0.381 OA
ATOM     37  C   UNL     1      -5.312   1.290  -6.089  0.00  0.00    +0.194 C 
ENDBRANCH  35  36
ENDBRANCH  34  35
ENDBRANCH  22  34
ENDBRANCH  20  22
ENDBRANCH  11  20
TORSDOF 8
