REMARK  Name = ZINC66998957
REMARK  7 active torsions:
REMARK  status: ('A' for Active; 'I' for Inactive)
REMARK    1  A    between atoms: C_1  and  C_2
REMARK    2  A    between atoms: C_12  and  C_14
REMARK    3  A    between atoms: N_16  and  C_17
REMARK    4  A    between atoms: N_16  and  C_20
REMARK    5  A    between atoms: C_17  and  C_18
REMARK    6  A    between atoms: C_18  and  O_19
REMARK    7  A    between atoms: C_20  and  C_21
REMARK                            x       y       z     vdW  Elec       q    Type
REMARK                         _______ _______ _______ _____ _____    ______ ____
ROOT
ATOM      1  C   UNL     1      -1.330   1.696   0.812  0.00  0.00    +0.046 C 
ATOM      2  C   UNL     1      -1.316   0.202   0.615  0.00  0.00    -0.026 A 
ATOM      3  C   UNL     1      -2.108  -0.372  -0.360  0.00  0.00    +0.043 A 
ATOM      4  C   UNL     1      -2.093  -1.745  -0.540  0.00  0.00    +0.124 A 
ATOM      5  C   UNL     1      -1.289  -2.541   0.256  0.00  0.00    +0.043 A 
ATOM      6  C   UNL     1      -0.494  -1.972   1.236  0.00  0.00    -0.023 A 
ATOM      7  C   UNL     1      -0.502  -0.596   1.410  0.00  0.00    +0.043 A 
ATOM      8  N   UNL     1       0.303   0.008   2.384  0.00  0.00    -0.263 N 
ATOM      9  C   UNL     1       0.930  -0.835   3.411  0.00  0.00    +0.114 C 
ATOM     10  C   UNL     1       1.515  -2.069   2.711  0.00  0.00    +0.024 C 
ATOM     11  C   UNL     1       0.365  -2.868   2.088  0.00  0.00    +0.038 C 
ATOM     12  C   UNL     1       0.500   1.342   2.379  0.00  0.00    +0.306 C 
ATOM     13  O   UNL     1       0.491   1.952   1.330  0.00  0.00    -0.265 OA
ATOM     14  F   UNL     1      -2.866  -2.308  -1.495  0.00  0.00    -0.205 F 
ENDROOT
BRANCH  12  15
ATOM     15  C   UNL     1       0.729   2.068   3.663  0.00  0.00    +0.302 C 
ATOM     16  O   UNL     1      -0.215   2.409   4.344  0.00  0.00    -0.265 OA
ATOM     17  N   UNL     1       1.986   2.344   4.066  0.00  0.00    -0.287 N 
BRANCH  17  18
ATOM     18  C   UNL     1       3.128   1.841   3.299  0.00  0.00    +0.136 C 
BRANCH  18  19
ATOM     19  C   UNL     1       3.592   2.914   2.312  0.00  0.00    +0.174 C 
BRANCH  19  20
ATOM     20  O   UNL     1       4.088   4.043   3.035  0.00  0.00    -0.393 OA
ATOM     21  H   UNL     1       4.400   4.764   2.471  0.00  0.00    +0.209 HD
ENDBRANCH  19  20
ENDBRANCH  18  19
ENDBRANCH  17  18
BRANCH  17  22
ATOM     22  C   UNL     1       2.208   3.146   5.272  0.00  0.00    +0.144 C 
BRANCH  22  23
ATOM     23  C   UNL     1       2.292   2.238   6.471  0.00  0.00    -0.023 A 
ATOM     24  C   UNL     1       1.154   1.907   7.181  0.00  0.00    +0.013 A 
ATOM     25  C   UNL     1       1.264   1.088   8.255  0.00  0.00    +0.045 A 
ATOM     26  S   UNL     1       3.018   0.758   8.290  0.00  0.00    -0.105 S 
ATOM     27  C   UNL     1       3.485   1.730   6.867  0.00  0.00    +0.050 A 
ENDBRANCH  22  23
ENDBRANCH  17  22
ENDBRANCH  12  15
TORSDOF 6
