REMARK  Name = ZINC09089177
REMARK  8 active torsions:
REMARK  status: ('A' for Active; 'I' for Inactive)
REMARK    1  A    between atoms: C_1  and  C_2
REMARK    2  A    between atoms: C_2  and  C_3
REMARK    3  A    between atoms: C_8  and  N_9
REMARK    4  A    between atoms: C_10  and  C_12
REMARK    5  A    between atoms: C_12  and  S_13
REMARK    6  A    between atoms: S_13  and  C_14
REMARK    7  A    between atoms: C_15  and  C_34
REMARK    8  A    between atoms: C_16  and  C_26
REMARK                            x       y       z     vdW  Elec       q    Type
REMARK                         _______ _______ _______ _____ _____    ______ ____
ROOT
ATOM      1  C   UNL     1       2.920   5.690   0.252  0.00  0.00    +0.111 C 
ATOM      2  C   UNL     1       4.059   6.459   0.265  0.00  0.00    +0.069 C 
ATOM      3  C   UNL     1       3.999   7.951   0.406  0.00  0.00    +0.079 C 
ATOM      4  C   UNL     1       2.575   8.428   0.526  0.00  0.00    +0.112 C 
ATOM      5  C   UNL     1       2.361   9.755   0.669  0.00  0.00    +0.143 C 
ATOM      6  C   UNL     1       0.978  10.328   0.795  0.00  0.00    +0.075 C 
ATOM      7  C   UNL     1       0.057   9.293   1.450  0.00  0.00    +0.013 C 
ATOM      8  C   UNL     1       0.081   8.018   0.604  0.00  0.00    +0.052 C 
ATOM      9  C   UNL     1       1.504   7.522   0.491  0.00  0.00    +0.031 C 
ATOM     10  N   UNL     1       1.702   6.231   0.357  0.00  0.00    -0.248 NA
ATOM     11  O   UNL     1       3.420  10.589   0.699  0.00  0.00    -0.297 OA
ENDROOT
BRANCH   3  12
ATOM     12  C   UNL     1       4.634   8.587  -0.804  0.00  0.00    -0.018 A 
ATOM     13  C   UNL     1       4.118   8.344  -2.064  0.00  0.00    +0.006 A 
ATOM     14  C   UNL     1       4.699   8.928  -3.174  0.00  0.00    +0.002 A 
ATOM     15  C   UNL     1       5.797   9.754  -3.026  0.00  0.00    +0.021 A 
ATOM     16  C   UNL     1       6.316   9.997  -1.767  0.00  0.00    +0.060 A 
ATOM     17  C   UNL     1       5.729   9.418  -0.654  0.00  0.00    +0.063 A 
ATOM     18 CL   UNL     1       6.373   9.729   0.928  0.00  0.00    -0.082 Cl
ATOM     19 CL   UNL     1       7.695  11.035  -1.581  0.00  0.00    -0.082 Cl
ENDBRANCH   3  12
BRANCH   2  20
ATOM     20  C   UNL     1       5.335   5.820   0.142  0.00  0.00    +0.098 C 
ATOM     21  N   UNL     1       6.347   5.313   0.044  0.00  0.00    -0.191 NA
ENDBRANCH   2  20
BRANCH   1  22
ATOM     22  S   UNL     1       3.068   3.942   0.086  0.00  0.00    -0.096 S 
BRANCH  22  23
ATOM     23  C   UNL     1       1.321   3.472   0.131  0.00  0.00    +0.172 C 
BRANCH  23  25
ATOM     24  N   UNL     1      -0.017   1.395   0.010  0.00  0.00    -0.285 N 
ATOM     25  C   UNL     1       1.199   1.976   0.002  0.00  0.00    +0.227 C 
ATOM     26  O   UNL     1       2.196   1.294  -0.110  0.00  0.00    -0.275 OA
ATOM     27  H   UNL     1      -0.816   1.944   0.029  0.00  0.00    +0.155 HD
BRANCH  24  33
ATOM     28  C   UNL     1      -1.158  -0.629   0.668  0.00  0.00    -0.026 A 
ATOM     29  C   UNL     1      -1.264  -2.006   0.640  0.00  0.00    +0.005 A 
ATOM     30  C   UNL     1      -0.344  -2.758  -0.067  0.00  0.00    +0.000 A 
ATOM     31  C   UNL     1       0.685  -2.134  -0.749  0.00  0.00    +0.002 A 
ATOM     32  C   UNL     1       0.793  -0.757  -0.730  0.00  0.00    +0.023 A 
ATOM     33  C   UNL     1      -0.127   0.000  -0.016  0.00  0.00    +0.037 A 
BRANCH  28  35
ATOM     34  C   UNL     1      -3.271   0.657   0.494  0.00  0.00    +0.009 C 
ATOM     35  C   UNL     1      -2.162   0.189   1.438  0.00  0.00    +0.033 C 
ENDBRANCH  28  35
ENDBRANCH  24  33
ENDBRANCH  23  25
ENDBRANCH  22  23
ENDBRANCH   1  22
TORSDOF 7
