REMARK  Name = ZINC32072136
REMARK  6 active torsions:
REMARK  status: ('A' for Active; 'I' for Inactive)
REMARK    1  A    between atoms: C_1  and  C_2
REMARK    2  A    between atoms: C_5  and  N_9
REMARK    3  A    between atoms: C_6  and  C_8
REMARK    4  A    between atoms: N_12  and  C_15
REMARK    5  A    between atoms: C_15  and  C_17
REMARK    6  A    between atoms: C_15  and  C_28
REMARK                            x       y       z     vdW  Elec       q    Type
REMARK                         _______ _______ _______ _____ _____    ______ ____
ROOT
ATOM      1  N   UNL     1      -5.602   3.222  -1.580  0.00  0.00    -0.333 N 
ATOM      2  C   UNL     1      -5.143   3.703  -0.270  0.00  0.00    +0.086 C 
ATOM      3  C   UNL     1      -3.689   4.168  -0.380  0.00  0.00    -0.058 C 
ATOM      4  N   UNL     1      -2.855   3.053  -0.850  0.00  0.00    +0.394 N 
ATOM      5  C   UNL     1      -3.314   2.571  -2.160  0.00  0.00    -0.058 C 
ATOM      6  C   UNL     1      -4.768   2.107  -2.050  0.00  0.00    +0.086 C 
ATOM      7  H   UNL     1      -2.956   2.226  -0.130  0.00  0.00    -0.080 HD
ENDROOT
BRANCH   1  12
ATOM      8  C   UNL     1     -11.072   1.738  -1.397  0.00  0.00    +0.044 C 
ATOM      9  C   UNL     1      -9.618   2.132  -1.446  0.00  0.00    -0.050 A 
ATOM     10  C   UNL     1      -8.686   1.424  -0.709  0.00  0.00    +0.005 A 
ATOM     11  C   UNL     1      -7.353   1.783  -0.751  0.00  0.00    +0.023 A 
ATOM     12  C   UNL     1      -6.949   2.856  -1.536  0.00  0.00    +0.033 A 
ATOM     13  C   UNL     1      -7.888   3.568  -2.271  0.00  0.00    -0.029 A 
ATOM     14  C   UNL     1      -9.219   3.200  -2.228  0.00  0.00    +0.008 A 
ATOM     15  C   UNL     1      -7.455   4.737  -3.118  0.00  0.00    +0.045 C 
ENDBRANCH   1  12
BRANCH   4  16
ATOM     16  C   UNL     1      -1.438   3.438  -0.897  0.00  0.00    +0.080 C 
BRANCH  16  17
ATOM     17  C   UNL     1      -0.970   3.798   0.489  0.00  0.00    -0.025 A 
ATOM     18  C   UNL     1      -1.475   3.343   1.647  0.00  0.00    +0.086 A 
ATOM     19  N   UNL     1      -0.797   3.894   2.700  0.00  0.00    -0.360 N 
ATOM     20  H   UNL     1      -1.082   3.639   3.732  0.00  0.00    +0.165 HD
ATOM     21  C   UNL     1       0.193   4.730   2.235  0.00  0.00    +0.048 A 
ATOM     22  C   UNL     1       0.128   4.707   0.829  0.00  0.00    +0.002 A 
ATOM     23  C   UNL     1       1.023   5.471   0.078  0.00  0.00    +0.011 A 
ATOM     24  C   UNL     1       1.959   6.238   0.712  0.00  0.00    +0.021 A 
ATOM     25  C   UNL     1       2.028   6.265   2.099  0.00  0.00    +0.043 A 
ATOM     26  C   UNL     1       1.153   5.519   2.860  0.00  0.00    +0.046 A 
ATOM     27 CL   UNL     1       3.226   7.247   2.881  0.00  0.00    -0.083 Cl
ENDBRANCH  16  17
BRANCH  16  28
ATOM     28  C   UNL     1      -0.621   2.284  -1.419  0.00  0.00    +0.347 C 
ATOM     29  O   UNL     1      -0.992   1.149  -1.234  0.00  0.00    -0.248 OA
ATOM     30  O   UNL     1       0.518   2.518  -2.089  0.00  0.00    -0.248 OA
ENDBRANCH  16  28
ENDBRANCH   4  16
TORSDOF 4
