REMARK  Name = ZINC36560713
REMARK  14 active torsions:
REMARK  status: ('A' for Active; 'I' for Inactive)
REMARK    1  A    between atoms: C_1  and  C_2
REMARK    2  A    between atoms: C_2  and  C_3
REMARK    3  A    between atoms: C_3  and  N_4
REMARK    4  A    between atoms: N_4  and  C_5
REMARK    5  A    between atoms: C_5  and  C_7
REMARK    6  A    between atoms: C_5  and  C_16
REMARK    7  A    between atoms: C_10  and  N_13
REMARK    8  A    between atoms: N_13  and  C_14
REMARK    9  A    between atoms: N_13  and  C_15
REMARK   10  A    between atoms: N_18  and  C_19
REMARK   11  A    between atoms: C_19  and  S_20
REMARK   12  A    between atoms: S_20  and  C_23
REMARK   13  A    between atoms: C_26  and  C_29
REMARK   14  A    between atoms: C_30  and  C_32
REMARK                            x       y       z     vdW  Elec       q    Type
REMARK                         _______ _______ _______ _____ _____    ______ ____
ROOT
ATOM      1  C   UNL     1      -1.196  -2.435   1.367  0.00  0.00    +0.192 C 
ENDROOT
BRANCH   1   2
ATOM      2  C   UNL     1       0.115  -2.215   2.077  0.00  0.00    -0.018 A 
ATOM      3  C   UNL     1       0.596  -0.931   2.254  0.00  0.00    +0.008 A 
ATOM      4  C   UNL     1       1.798  -0.726   2.904  0.00  0.00    +0.023 A 
ATOM      5  C   UNL     1       2.523  -1.812   3.379  0.00  0.00    +0.029 A 
ATOM      6  C   UNL     1       2.037  -3.100   3.198  0.00  0.00    +0.023 A 
ATOM      7  C   UNL     1       0.832  -3.298   2.553  0.00  0.00    +0.008 A 
BRANCH   5   8
ATOM      8  N   UNL     1       3.739  -1.608   4.035  0.00  0.00    -0.336 N 
ATOM      9  C   UNL     1       4.191  -0.246   4.333  0.00  0.00    +0.129 C 
ATOM     10  C   UNL     1       4.561  -2.755   4.427  0.00  0.00    +0.129 C 
ENDBRANCH   5   8
ENDBRANCH   1   2
BRANCH   1  11
ATOM     11  C   UNL     1      -2.331  -2.022   2.269  0.00  0.00    +0.239 C 
ATOM     12  O   UNL     1      -3.171  -1.245   1.869  0.00  0.00    -0.273 OA
ATOM     13  N   UNL     1      -2.411  -2.515   3.521  0.00  0.00    -0.294 N 
ATOM     14  H   UNL     1      -1.738  -3.136   3.841  0.00  0.00    +0.150 HD
BRANCH  13  15
ATOM     15  C   UNL     1      -3.514  -2.113   4.398  0.00  0.00    +0.278 C 
BRANCH  15  16
ATOM     16  S   UNL     1      -4.846  -3.339   4.294  0.00  0.00    +0.013 S 
ATOM     17  O   UNL     1      -5.897  -2.996   5.187  0.00  0.00    -0.168 OA
ATOM     18  O   UNL     1      -5.122  -3.648   2.934  0.00  0.00    -0.168 OA
BRANCH  16  19
ATOM     19  C   UNL     1      -4.155  -4.817   4.959  0.00  0.00    +0.090 A 
ATOM     20  C   UNL     1      -3.504  -5.710   4.129  0.00  0.00    +0.027 A 
ATOM     21  C   UNL     1      -2.962  -6.869   4.651  0.00  0.00    +0.005 A 
ATOM     22  C   UNL     1      -3.071  -7.136   6.003  0.00  0.00    -0.050 A 
ATOM     23  C   UNL     1      -3.722  -6.242   6.833  0.00  0.00    +0.005 A 
ATOM     24  C   UNL     1      -4.260  -5.081   6.312  0.00  0.00    +0.027 A 
ATOM     25  C   UNL     1      -2.481  -8.400   6.572  0.00  0.00    +0.044 C 
ENDBRANCH  16  19
ENDBRANCH  15  16
ENDBRANCH  13  15
ENDBRANCH   1  11
BRANCH   1  26
ATOM     26  N   UNL     1      -1.230  -1.633   0.142  0.00  0.00    -0.286 N 
ATOM     27  C   UNL     1      -0.321  -1.849  -0.830  0.00  0.00    +0.220 C 
ATOM     28  O   UNL     1       0.550  -2.679  -0.672  0.00  0.00    -0.275 OA
BRANCH  27  29
ATOM     29  C   UNL     1      -0.387  -1.061  -2.112  0.00  0.00    +0.075 C 
ATOM     30  C   UNL     1      -1.612  -1.499  -2.917  0.00  0.00    +0.013 C 
ATOM     31  C   UNL     1      -1.679  -0.699  -4.220  0.00  0.00    +0.001 C 
ATOM     32  C   UNL     1      -0.412  -0.952  -5.040  0.00  0.00    +0.000 C 
ATOM     33  C   UNL     1       0.812  -0.513  -4.234  0.00  0.00    +0.001 C 
ATOM     34  C   UNL     1       0.880  -1.314  -2.932  0.00  0.00    +0.013 C 
ENDBRANCH  27  29
BRANCH  26  35
ATOM     35  C   UNL     1      -2.250  -0.596  -0.027  0.00  0.00    +0.108 C 
BRANCH  35  37
ATOM     36  C   UNL     1      -2.993   1.674   0.705  0.00  0.00    +0.005 C 
ATOM     37  C   UNL     1      -1.916   0.600   0.867  0.00  0.00    +0.016 C 
ENDBRANCH  35  37
ENDBRANCH  26  35
ENDBRANCH   1  26
TORSDOF 10
