REMARK  Name = ZINC38976584
REMARK  4 active torsions:
REMARK  status: ('A' for Active; 'I' for Inactive)
REMARK    1  A    between atoms: N_7  and  S_8
REMARK    2  A    between atoms: S_8  and  C_11
REMARK    3  A    between atoms: C_19  and  N_24
REMARK    4  A    between atoms: N_24  and  C_25
REMARK                            x       y       z     vdW  Elec       q    Type
REMARK                         _______ _______ _______ _____ _____    ______ ____
ROOT
ATOM      1  C   UNL     1      -0.274   1.097   0.323  0.00  0.00    +0.002 A 
ATOM      2  C   UNL     1       0.836   1.950   0.197  0.00  0.00    +0.002 A 
ATOM      3  C   UNL     1       2.098   1.491   0.051  0.00  0.00    +0.030 A 
ATOM      4  C   UNL     1       2.354   0.097   0.018  0.00  0.00    +0.089 A 
ATOM      5  N   UNL     1       3.586  -0.345  -0.125  0.00  0.00    -0.226 NA
ATOM      6  C   UNL     1       3.863  -1.659  -0.160  0.00  0.00    +0.192 C 
ATOM      7  N   UNL     1       5.088  -2.071  -0.301  0.00  0.00    -0.110 NA
ATOM      8  C   UNL     1       2.730  -2.651  -0.032  0.00  0.00    +0.237 C 
ATOM      9  N   UNL     1       1.366  -2.121   0.126  0.00  0.00    -0.359 N 
ATOM     10  C   UNL     1       1.201  -0.828   0.149  0.00  0.00    +0.063 A 
ATOM     11  C   UNL     1      -0.141  -0.247   0.305  0.00  0.00    +0.027 A 
ATOM     12  H   UNL     1       0.608  -2.720   0.211  0.00  0.00    +0.162 HD
ENDROOT
BRANCH   7  13
ATOM     13  S   UNL     1       6.320  -0.973  -0.440  0.00  0.00    +0.102 S 
ATOM     14  O   UNL     1       6.118  -0.288  -1.668  0.00  0.00    -0.146 OA
ATOM     15  O   UNL     1       6.401  -0.294   0.806  0.00  0.00    -0.146 OA
BRANCH  13  16
ATOM     16  C   UNL     1       7.816  -1.887  -0.613  0.00  0.00    +0.132 A 
ATOM     17  C   UNL     1       8.543  -1.807  -1.786  0.00  0.00    +0.050 A 
ATOM     18  C   UNL     1       9.718  -2.525  -1.922  0.00  0.00    +0.043 A 
ATOM     19  C   UNL     1      10.164  -3.324  -0.884  0.00  0.00    +0.021 A 
ATOM     20  C   UNL     1       9.437  -3.405   0.288  0.00  0.00    +0.023 A 
ATOM     21  C   UNL     1       8.266  -2.682   0.426  0.00  0.00    +0.068 A 
ATOM     22 CL   UNL     1       7.356  -2.778   1.902  0.00  0.00    -0.082 Cl
ATOM     23 CL   UNL     1      10.631  -2.424  -3.395  0.00  0.00    -0.083 Cl
ENDBRANCH  13  16
ENDBRANCH   7  13
BRANCH   8  24
ATOM     24  N   UNL     1       2.743  -3.501  -1.225  0.00  0.00    -0.318 N 
ATOM     25  H   UNL     1       2.870  -3.104  -2.101  0.00  0.00    +0.148 HD
BRANCH  24  26
ATOM     26  C   UNL     1       2.571  -4.883  -1.102  0.00  0.00    +0.029 A 
ATOM     27  C   UNL     1       2.741  -5.706  -2.207  0.00  0.00    +0.026 A 
ATOM     28  C   UNL     1       2.571  -7.071  -2.082  0.00  0.00    +0.040 A 
ATOM     29  C   UNL     1       2.232  -7.619  -0.857  0.00  0.00    +0.124 A 
ATOM     30  C   UNL     1       2.062  -6.800   0.247  0.00  0.00    +0.040 A 
ATOM     31  C   UNL     1       2.236  -5.435   0.128  0.00  0.00    +0.026 A 
ATOM     32  F   UNL     1       2.066  -8.954  -0.737  0.00  0.00    -0.205 F 
ENDBRANCH  24  26
ENDBRANCH   8  24
TORSDOF 4
