REMARK  Name = ZINC36500842
REMARK  10 active torsions:
REMARK  status: ('A' for Active; 'I' for Inactive)
REMARK    1  A    between atoms: C_3  and  C_9
REMARK    2  A    between atoms: C_4  and  O_8
REMARK    3  A    between atoms: C_5  and  O_7
REMARK    4  A    between atoms: N_11  and  C_12
REMARK    5  A    between atoms: N_11  and  C_18
REMARK    6  A    between atoms: C_12  and  C_13
REMARK    7  A    between atoms: C_18  and  C_20
REMARK    8  A    between atoms: C_18  and  C_29
REMARK    9  A    between atoms: C_23  and  N_26
REMARK   10  A    between atoms: N_31  and  C_32
REMARK                            x       y       z     vdW  Elec       q    Type
REMARK                         _______ _______ _______ _____ _____    ______ ____
ROOT
ATOM      1  C   UNL     1       4.385   4.108  -0.775  0.00  0.00    +0.193 C 
ENDROOT
BRANCH   1   2
ATOM      2  C   UNL     1       3.732   4.510  -2.072  0.00  0.00    -0.018 A 
ATOM      3  C   UNL     1       2.377   4.781  -2.108  0.00  0.00    +0.008 A 
ATOM      4  C   UNL     1       1.777   5.149  -3.298  0.00  0.00    +0.033 A 
ATOM      5  C   UNL     1       2.533   5.247  -4.452  0.00  0.00    +0.126 A 
ATOM      6  C   UNL     1       3.888   4.976  -4.415  0.00  0.00    +0.033 A 
ATOM      7  C   UNL     1       4.488   4.612  -3.225  0.00  0.00    +0.008 A 
BRANCH   5   8
ATOM      8  N   UNL     1       1.891   5.640  -5.726  0.00  0.00    +0.056 N 
ATOM      9  O   UNL     1       0.705   5.876  -5.758  0.00  0.00    -0.126 OA
ATOM     10  O   UNL     1       2.551   5.725  -6.735  0.00  0.00    -0.126 OA
ENDBRANCH   5   8
ENDBRANCH   1   2
BRANCH   1  11
ATOM     11  C   UNL     1       5.380   5.164  -0.366  0.00  0.00    +0.238 C 
ATOM     12  O   UNL     1       5.297   5.685   0.726  0.00  0.00    -0.273 OA
ATOM     13  N   UNL     1       6.363   5.528  -1.214  0.00  0.00    -0.311 N 
ATOM     14  H   UNL     1       6.430   5.111  -2.087  0.00  0.00    +0.149 HD
BRANCH  13  15
ATOM     15  C   UNL     1       7.330   6.554  -0.816  0.00  0.00    +0.073 C 
ATOM     16  C   UNL     1       6.756   7.940  -1.118  0.00  0.00    +0.022 C 
ATOM     17  C   UNL     1       7.767   9.011  -0.703  0.00  0.00    +0.002 C 
ATOM     18  C   UNL     1       9.067   8.816  -1.485  0.00  0.00    +0.000 C 
ATOM     19  C   UNL     1       9.641   7.431  -1.183  0.00  0.00    +0.002 C 
ATOM     20  C   UNL     1       8.631   6.359  -1.598  0.00  0.00    +0.022 C 
ENDBRANCH  13  15
ENDBRANCH   1  11
BRANCH   1  23
ATOM     21  C   UNL     1       3.047   2.752   0.744  0.00  0.00    +0.252 C 
ATOM     22  O   UNL     1       2.138   2.629   1.542  0.00  0.00    -0.270 OA
ATOM     23  N   UNL     1       3.363   3.972   0.265  0.00  0.00    -0.275 N 
BRANCH  21  26
ATOM     24  C   UNL     1       4.767   0.256  -1.471  0.00  0.00    +0.005 A 
ATOM     25  C   UNL     1       4.059   1.364  -1.060  0.00  0.00    +0.017 A 
ATOM     26  C   UNL     1       3.805   1.567   0.300  0.00  0.00    +0.082 A 
ATOM     27  C   UNL     1       4.273   0.639   1.238  0.00  0.00    +0.171 A 
ATOM     28  C   UNL     1       4.987  -0.475   0.807  0.00  0.00    +0.159 A 
ATOM     29  C   UNL     1       5.230  -0.662  -0.543  0.00  0.00    +0.049 A 
BRANCH  28  30
ATOM     30  O   UNL     1       5.446  -1.381   1.713  0.00  0.00    -0.503 OA
ATOM     31  H   UNL     1       4.824  -2.097   1.902  0.00  0.00    +0.292 HD
ENDBRANCH  28  30
BRANCH  27  32
ATOM     32  O   UNL     1       4.033   0.826   2.561  0.00  0.00    -0.503 OA
ATOM     33  H   UNL     1       3.209   0.425   2.871  0.00  0.00    +0.292 HD
ENDBRANCH  27  32
ENDBRANCH  21  26
BRANCH  23  34
ATOM     34  C   UNL     1       2.684   5.161   0.785  0.00  0.00    +0.183 C 
BRANCH  34  35
ATOM     35  C   UNL     1       2.784   5.180   2.289  0.00  0.00    +0.122 A 
ATOM     36  C   UNL     1       3.472   6.075   3.020  0.00  0.00    +0.046 A 
ATOM     37  C   UNL     1       3.293   5.719   4.377  0.00  0.00    +0.041 A 
ATOM     38  C   UNL     1       2.506   4.628   4.393  0.00  0.00    +0.195 A 
ATOM     39  O   UNL     1       2.196   4.309   3.126  0.00  0.00    -0.466 OA
ENDBRANCH  34  35
ENDBRANCH  23  34
ENDBRANCH   1  23
TORSDOF 10
