REMARK  Name = ZINC21242596
REMARK  5 active torsions:
REMARK  status: ('A' for Active; 'I' for Inactive)
REMARK    1  A    between atoms: N_9  and  C_27
REMARK    2  A    between atoms: C_10  and  S_12
REMARK    3  A    between atoms: S_12  and  C_13
REMARK    4  A    between atoms: C_13  and  C_14
REMARK    5  A    between atoms: C_14  and  C_16
REMARK                            x       y       z     vdW  Elec       q    Type
REMARK                         _______ _______ _______ _____ _____    ______ ____
ROOT
ATOM      1  C   UNL     1      -6.217   5.932  -2.067  0.00  0.00    +0.001 A 
ATOM      2  C   UNL     1      -6.737   6.225  -0.813  0.00  0.00    +0.002 A 
ATOM      3  C   UNL     1      -6.079   5.855   0.326  0.00  0.00    +0.028 A 
ATOM      4  C   UNL     1      -4.862   5.173   0.231  0.00  0.00    +0.079 A 
ATOM      5  C   UNL     1      -4.335   4.876  -1.047  0.00  0.00    +0.065 A 
ATOM      6  C   UNL     1      -5.029   5.265  -2.192  0.00  0.00    +0.015 A 
ATOM      7  C   UNL     1      -3.054   4.163  -1.122  0.00  0.00    +0.267 A 
ATOM      8  O   UNL     1      -2.547   3.885  -2.193  0.00  0.00    -0.267 OA
ATOM      9  N   UNL     1      -2.459   3.823   0.046  0.00  0.00    -0.254 N 
ATOM     10  C   UNL     1      -3.040   4.149   1.240  0.00  0.00    +0.177 A 
ATOM     11  N   UNL     1      -4.179   4.789   1.329  0.00  0.00    -0.223 NA
ENDROOT
BRANCH   9  12
ATOM     12  C   UNL     1      -1.237   3.137   0.030  0.00  0.00    +0.070 A 
ATOM     13  C   UNL     1      -1.218   1.749   0.017  0.00  0.00    +0.028 A 
ATOM     14  C   UNL     1      -0.013   1.076   0.008  0.00  0.00    +0.002 A 
ATOM     15  C   UNL     1       1.176   1.783   0.000  0.00  0.00    +0.002 A 
ATOM     16  C   UNL     1       1.162   3.165   0.007  0.00  0.00    +0.022 A 
ATOM     17  C   UNL     1      -0.041   3.845   0.023  0.00  0.00    +0.065 A 
ATOM     18 CL   UNL     1      -0.059   5.581   0.032  0.00  0.00    -0.081 Cl
ENDBRANCH   9  12
BRANCH  10  19
ATOM     19  S   UNL     1      -2.217   3.688   2.728  0.00  0.00    -0.079 S 
BRANCH  19  20
ATOM     20  C   UNL     1      -3.384   4.342   3.948  0.00  0.00    +0.157 C 
BRANCH  20  21
ATOM     21  C   UNL     1      -2.873   4.055   5.336  0.00  0.00    +0.173 C 
ATOM     22  O   UNL     1      -1.823   3.466   5.486  0.00  0.00    -0.291 OA
BRANCH  21  23
ATOM     23  C   UNL     1      -3.645   4.489   6.507  0.00  0.00    +0.019 A 
ATOM     24  C   UNL     1      -4.857   5.169   6.337  0.00  0.00    +0.013 A 
ATOM     25  C   UNL     1      -5.575   5.572   7.426  0.00  0.00    +0.024 A 
ATOM     26  C   UNL     1      -5.106   5.309   8.711  0.00  0.00    +0.037 A 
ATOM     27  C   UNL     1      -3.902   4.634   8.891  0.00  0.00    -0.025 A 
ATOM     28  C   UNL     1      -3.175   4.219   7.799  0.00  0.00    +0.016 A 
ATOM     29  C   UNL     1      -3.400   4.353  10.283  0.00  0.00    +0.046 C 
ATOM     30  C   UNL     1      -3.802   5.500  11.211  0.00  0.00    +0.101 C 
ATOM     31  C   UNL     1      -5.261   5.819  11.028  0.00  0.00    +0.218 C 
ATOM     32  O   UNL     1      -5.922   6.168  11.984  0.00  0.00    -0.275 OA
ATOM     33  N   UNL     1      -5.842   5.722   9.819  0.00  0.00    -0.285 N 
ATOM     34  H   UNL     1      -6.907   5.973   9.710  0.00  0.00    +0.155 HD
ENDBRANCH  21  23
ENDBRANCH  20  21
ENDBRANCH  19  20
ENDBRANCH  10  19
TORSDOF 5
