REMARK  Name = ZINC19799140
REMARK  8 active torsions:
REMARK  status: ('A' for Active; 'I' for Inactive)
REMARK    1  A    between atoms: C_1  and  C_2
REMARK    2  A    between atoms: C_2  and  C_3
REMARK    3  A    between atoms: C_11  and  C_14
REMARK    4  A    between atoms: N_15  and  N_16
REMARK    5  A    between atoms: C_17  and  C_19
REMARK    6  A    between atoms: C_21  and  C_32
REMARK    7  A    between atoms: C_23  and  C_25
REMARK    8  A    between atoms: C_28  and  C_31
REMARK                            x       y       z     vdW  Elec       q    Type
REMARK                         _______ _______ _______ _____ _____    ______ ____
ROOT
ATOM      1  N   UNL     1       7.336   1.158  -0.064  0.00  0.00    -0.203 N 
ATOM      2  C   UNL     1       6.173   1.839  -0.048  0.00  0.00    +0.263 C 
ATOM      3  O   UNL     1       6.181   3.055  -0.042  0.00  0.00    -0.268 OA
ATOM      4  H   UNL     1       7.329   0.058  -0.070  0.00  0.00    +0.178 HD
ENDROOT
BRANCH   2   5
ATOM      5  C   UNL     1       4.886   1.107  -0.039  0.00  0.00    +0.042 A 
ATOM      6  C   UNL     1       4.857  -0.290  -0.046  0.00  0.00    +0.041 A 
ATOM      7  C   UNL     1       3.626  -0.943  -0.038  0.00  0.00    +0.072 A 
ATOM      8  N   UNL     1       2.494  -0.255  -0.023  0.00  0.00    -0.247 NA
ATOM      9  C   UNL     1       2.481   1.070  -0.016  0.00  0.00    +0.072 A 
ATOM     10  C   UNL     1       3.670   1.795  -0.029  0.00  0.00    +0.041 A 
BRANCH   9  11
ATOM     11  C   UNL     1       1.184   1.790   0.000  0.00  0.00    +0.000 A 
ATOM     12  C   UNL     1      -0.013   1.076   0.008  0.00  0.00    +0.010 A 
ATOM     13  C   UNL     1      -1.216   1.751   0.017  0.00  0.00    +0.004 A 
ATOM     14  C   UNL     1      -1.236   3.134   0.030  0.00  0.00    -0.050 A 
ATOM     15  C   UNL     1      -0.052   3.848   0.022  0.00  0.00    +0.004 A 
ATOM     16  C   UNL     1       1.157   3.183   0.008  0.00  0.00    +0.010 A 
ATOM     17  C   UNL     1      -2.554   3.865   0.047  0.00  0.00    +0.044 C 
ENDBRANCH   9  11
BRANCH   7  18
ATOM     18  C   UNL     1       3.583  -2.425  -0.045  0.00  0.00    +0.000 A 
ATOM     19  C   UNL     1       4.767  -3.160  -0.066  0.00  0.00    +0.010 A 
ATOM     20  C   UNL     1       4.721  -4.539  -0.067  0.00  0.00    +0.001 A 
ATOM     21  C   UNL     1       3.502  -5.193  -0.059  0.00  0.00    +0.000 A 
ATOM     22  C   UNL     1       2.323  -4.469  -0.044  0.00  0.00    +0.001 A 
ATOM     23  C   UNL     1       2.358  -3.089  -0.037  0.00  0.00    +0.010 A 
ENDBRANCH   7  18
ENDBRANCH   2   5
BRANCH   1  25
ATOM     24  C   UNL     1       9.674   1.195  -0.088  0.00  0.00    +0.145 C 
ATOM     25  N   UNL     1       8.554   1.851  -0.073  0.00  0.00    -0.187 NA
BRANCH  24  34
ATOM     26  C   UNL     1      13.706   5.984  -0.103  0.00  0.00    -0.047 A 
ATOM     27  C   UNL     1      14.832   5.173  -0.118  0.00  0.00    +0.007 A 
ATOM     28  C   UNL     1      14.710   3.800  -0.124  0.00  0.00    +0.047 A 
ATOM     29  C   UNL     1      13.449   3.213  -0.115  0.00  0.00    +0.138 A 
ATOM     30  C   UNL     1      12.312   4.037  -0.099  0.00  0.00    +0.065 A 
ATOM     31  C   UNL     1      12.448   5.425  -0.094  0.00  0.00    +0.019 A 
ATOM     32  C   UNL     1      10.982   3.398  -0.089  0.00  0.00    +0.201 A 
ATOM     33  O   UNL     1       9.957   4.056  -0.076  0.00  0.00    -0.286 OA
ATOM     34  C   UNL     1      10.954   1.923  -0.097  0.00  0.00    +0.077 A 
ATOM     35  C   UNL     1      12.139   1.248  -0.107  0.00  0.00    +0.209 A 
ATOM     36  O   UNL     1      13.319   1.872  -0.121  0.00  0.00    -0.462 OA
BRANCH  26  38
ATOM     37  C   UNL     1      13.900   7.999  -1.536  0.00  0.00    +0.009 C 
ATOM     38  C   UNL     1      13.862   7.483  -0.096  0.00  0.00    +0.032 C 
ENDBRANCH  26  38
ENDBRANCH  24  34
ENDBRANCH   1  25
TORSDOF 6
