REMARK  Name = ZINC40814559
REMARK  7 active torsions:
REMARK  status: ('A' for Active; 'I' for Inactive)
REMARK    1  A    between atoms: C_1  and  C_2
REMARK    2  A    between atoms: C_6  and  C_7
REMARK    3  A    between atoms: C_18  and  C_20
REMARK    4  A    between atoms: N_26  and  N_27
REMARK    5  A    between atoms: C_28  and  C_30
REMARK    6  A    between atoms: C_30  and  C_31
REMARK    7  A    between atoms: C_34  and  N_37
REMARK                            x       y       z     vdW  Elec       q    Type
REMARK                         _______ _______ _______ _____ _____    ______ ____
ROOT
ATOM      1  C   UNL     1      -1.050   0.452  -0.167  0.00  0.00    +0.048 C 
ATOM      2  C   UNL     1       0.073  -0.539  -0.001  0.00  0.00    +0.009 A 
ATOM      3  C   UNL     1       0.739  -1.233  -1.019  0.00  0.00    +0.042 A 
ATOM      4  C   UNL     1       1.688  -2.029  -0.423  0.00  0.00    +0.115 A 
ATOM      5  O   UNL     1       1.618  -1.839   0.892  0.00  0.00    -0.454 OA
ATOM      6  C   UNL     1       0.650  -0.937   1.173  0.00  0.00    +0.193 A 
ATOM      7  C   UNL     1       2.607  -2.935  -1.204  0.00  0.00    +0.075 C 
ATOM      8  C   UNL     1       1.999  -3.210  -2.582  0.00  0.00    +0.014 C 
ATOM      9  C   UNL     1       1.646  -1.898  -3.289  0.00  0.00    +0.058 C 
ATOM     10  C   UNL     1       0.556  -1.202  -2.487  0.00  0.00    +0.070 C 
ATOM     11  N   UNL     1      -0.461  -0.626  -3.050  0.00  0.00    -0.184 NA
ENDROOT
BRANCH   6  12
ATOM     12  C   UNL     1       0.279  -0.467   2.512  0.00  0.00    +0.287 C 
ATOM     13  O   UNL     1       0.141   0.724   2.723  0.00  0.00    -0.266 OA
ATOM     14  N   UNL     1       0.090  -1.354   3.509  0.00  0.00    -0.262 N 
ATOM     15  C   UNL     1       0.126  -2.732   3.253  0.00  0.00    +0.040 A 
ATOM     16  C   UNL     1       0.075  -3.177   1.937  0.00  0.00    +0.026 A 
ATOM     17  C   UNL     1       0.113  -4.530   1.663  0.00  0.00    +0.040 A 
ATOM     18  C   UNL     1       0.203  -5.442   2.701  0.00  0.00    +0.124 A 
ATOM     19  C   UNL     1       0.252  -5.000   4.011  0.00  0.00    +0.043 A 
ATOM     20  C   UNL     1       0.212  -3.644   4.293  0.00  0.00    -0.023 A 
ATOM     21  C   UNL     1       0.258  -3.198   5.730  0.00  0.00    +0.039 C 
ATOM     22  C   UNL     1       0.709  -1.740   5.824  0.00  0.00    +0.027 C 
ATOM     23  C   UNL     1      -0.150  -0.893   4.883  0.00  0.00    +0.079 C 
ATOM     24  C   UNL     1       0.241   0.581   5.011  0.00  0.00    +0.028 C 
ATOM     25  F   UNL     1       0.241  -6.766   2.434  0.00  0.00    -0.205 F 
ENDBRANCH   6  12
BRANCH  11  26
ATOM     26  N   UNL     1      -0.584  -0.628  -4.445  0.00  0.00    -0.206 N 
ATOM     27  C   UNL     1      -1.641  -0.029  -5.030  0.00  0.00    +0.237 C 
ATOM     28  O   UNL     1      -2.485   0.512  -4.347  0.00  0.00    -0.274 OA
ATOM     29  H   UNL     1       0.091  -1.061  -4.991  0.00  0.00    +0.177 HD
BRANCH  27  30
ATOM     30  C   UNL     1      -1.773  -0.032  -6.531  0.00  0.00    +0.132 C 
BRANCH  30  31
ATOM     31  C   UNL     1      -3.031   0.698  -6.926  0.00  0.00    -0.038 A 
ATOM     32  C   UNL     1      -4.222   0.007  -7.046  0.00  0.00    +0.006 A 
ATOM     33  C   UNL     1      -5.376   0.676  -7.408  0.00  0.00    +0.033 A 
ATOM     34  C   UNL     1      -5.339   2.037  -7.649  0.00  0.00    +0.126 A 
ATOM     35  C   UNL     1      -4.148   2.728  -7.529  0.00  0.00    +0.033 A 
ATOM     36  C   UNL     1      -2.995   2.059  -7.162  0.00  0.00    +0.006 A 
BRANCH  34  37
ATOM     37  N   UNL     1      -6.575   2.753  -8.038  0.00  0.00    +0.056 N 
ATOM     38  O   UNL     1      -7.616   2.148  -8.144  0.00  0.00    -0.126 OA
ATOM     39  O   UNL     1      -6.543   3.943  -8.249  0.00  0.00    -0.126 OA
ENDBRANCH  34  37
ENDBRANCH  30  31
ENDBRANCH  27  30
ENDBRANCH  11  26
TORSDOF 5
