REMARK  Name = ZINC22216258
REMARK  7 active torsions:
REMARK  status: ('A' for Active; 'I' for Inactive)
REMARK    1  A    between atoms: C_1  and  C_2
REMARK    2  A    between atoms: C_10  and  C_12
REMARK    3  A    between atoms: C_12  and  S_13
REMARK    4  A    between atoms: S_13  and  C_14
REMARK    5  A    between atoms: C_16  and  C_26
REMARK    6  A    between atoms: C_17  and  C_25
REMARK    7  A    between atoms: N_18  and  C_19
REMARK                            x       y       z     vdW  Elec       q    Type
REMARK                         _______ _______ _______ _____ _____    ______ ____
ROOT
ATOM      1  S   UNL     1       0.111  -6.753   3.186  0.00  0.00    -0.080 S 
ENDROOT
BRANCH   1   2
ATOM      2  C   UNL     1       0.130  -7.530   4.767  0.00  0.00    +0.148 A 
ATOM      3  N   UNL     1       0.121  -6.914   5.926  0.00  0.00    -0.338 N 
ATOM      4  C   UNL     1       0.140  -7.825   6.914  0.00  0.00    +0.034 A 
ATOM      5  C   UNL     1       0.161  -9.049   6.359  0.00  0.00    +0.037 A 
ATOM      6  N   UNL     1       0.149  -8.872   4.994  0.00  0.00    -0.321 N 
ATOM      7  C   UNL     1       0.188 -10.366   7.093  0.00  0.00    +0.065 C 
ATOM      8  C   UNL     1       0.138  -7.526   8.391  0.00  0.00    +0.065 C 
ATOM      9  H   UNL     1       0.104  -5.952   6.050  0.00  0.00    +0.168 HD
BRANCH   6  10
ATOM     10  C   UNL     1       0.160  -9.928   3.978  0.00  0.00    +0.089 C 
ATOM     11  C   UNL     1       1.404  -9.778   3.100  0.00  0.00    +0.025 C 
ATOM     12  C   UNL     1       1.414 -10.881   2.039  0.00  0.00    +0.002 C 
ATOM     13  C   UNL     1       0.160 -10.765   1.171  0.00  0.00    +0.000 C 
ATOM     14  C   UNL     1      -1.084 -10.915   2.049  0.00  0.00    +0.002 C 
ATOM     15  C   UNL     1      -1.095  -9.812   3.110  0.00  0.00    +0.025 C 
ENDBRANCH   6  10
ENDBRANCH   1   2
BRANCH   1  16
ATOM     16  C   UNL     1       0.088  -4.980   3.570  0.00  0.00    +0.173 C 
BRANCH  16  26
ATOM     17  C   UNL     1      -0.018   1.503   0.010  0.00  0.00    +0.047 C 
ATOM     18  C   UNL     1       0.002  -0.004   0.002  0.00  0.00    -0.009 A 
ATOM     19  C   UNL     1       0.006  -0.708  -1.196  0.00  0.00    +0.063 A 
ATOM     20  C   UNL     1       0.025  -2.089  -1.168  0.00  0.00    +0.133 A 
ATOM     21  N   UNL     1       0.040  -2.743  -0.022  0.00  0.00    -0.237 NA
ATOM     22  C   UNL     1       0.037  -2.109   1.139  0.00  0.00    +0.144 A 
ATOM     23  C   UNL     1       0.023  -0.719   1.188  0.00  0.00    +0.085 A 
ATOM     24 CL   UNL     1       0.026   0.109   2.714  0.00  0.00    -0.080 Cl
ATOM     25  N   UNL     1       0.053  -2.841   2.327  0.00  0.00    -0.269 N 
ATOM     26  C   UNL     1       0.071  -4.189   2.287  0.00  0.00    +0.229 C 
ATOM     27  O   UNL     1       0.074  -4.764   1.220  0.00  0.00    -0.275 OA
ATOM     28 CL   UNL     1      -0.013   0.139  -2.711  0.00  0.00    -0.082 Cl
ATOM     29  H   UNL     1       0.050  -2.381   3.180  0.00  0.00    +0.156 HD
ENDBRANCH  16  26
ENDBRANCH   1  16
TORSDOF 4
