REMARK  Name = ZINC06300873
REMARK  8 active torsions:
REMARK  status: ('A' for Active; 'I' for Inactive)
REMARK    1  A    between atoms: C_1  and  C_2
REMARK    2  A    between atoms: C_4  and  C_35
REMARK    3  A    between atoms: C_9  and  C_14
REMARK    4  A    between atoms: C_14  and  C_16
REMARK    5  A    between atoms: C_14  and  N_63
REMARK    6  A    between atoms: N_20  and  C_21
REMARK    7  A    between atoms: C_21  and  C_22
REMARK    8  A    between atoms: C_31  and  C_34
REMARK                            x       y       z     vdW  Elec       q    Type
REMARK                         _______ _______ _______ _____ _____    ______ ____
ROOT
ATOM      1  C   UNL     1      -0.167   0.955  -1.872  0.00  0.00    +0.039 C 
ENDROOT
BRANCH   1  10
ATOM      2  C   UNL     1       7.072   2.565  -1.082  0.00  0.00    +0.044 C 
ATOM      3  C   UNL     1       5.619   2.951  -0.968  0.00  0.00    -0.050 A 
ATOM      4  C   UNL     1       5.277   4.210  -0.492  0.00  0.00    +0.008 A 
ATOM      5  C   UNL     1       3.956   4.584  -0.379  0.00  0.00    -0.026 A 
ATOM      6  C   UNL     1       2.952   3.692  -0.746  0.00  0.00    +0.052 A 
ATOM      7  C   UNL     1       3.303   2.417  -1.228  0.00  0.00    -0.001 A 
ATOM      8  C   UNL     1       4.651   2.059  -1.334  0.00  0.00    +0.013 A 
ATOM      9  C   UNL     1       2.240   1.486  -1.611  0.00  0.00    +0.017 A 
ATOM     10  C   UNL     1       0.951   1.889  -1.487  0.00  0.00    +0.011 A 
ATOM     11  C   UNL     1       0.653   3.181  -1.003  0.00  0.00    +0.251 A 
ATOM     12  O   UNL     1      -0.512   3.524  -0.904  0.00  0.00    -0.268 OA
ATOM     13  N   UNL     1       1.622   4.040  -0.644  0.00  0.00    -0.322 N 
ATOM     14  H   UNL     1       1.382   4.920  -0.312  0.00  0.00    +0.169 HD
ATOM     15  C   UNL     1       3.599   5.953   0.140  0.00  0.00    +0.046 C 
ENDBRANCH   1  10
BRANCH   1  22
ATOM     16  C   UNL     1      -0.330   0.130   0.398  0.00  0.00    -0.077 C 
ATOM     17  C   UNL     1      -1.242   0.066   1.625  0.00  0.00    -0.018 C 
ATOM     18  C   UNL     1      -2.490  -0.753   1.285  0.00  0.00    -0.001 C 
ATOM     19  C   UNL     1      -3.199  -0.113   0.088  0.00  0.00    -0.031 C 
ATOM     20  C   UNL     1      -2.231  -0.044  -1.095  0.00  0.00    -0.074 C 
ATOM     21  C   UNL     1      -4.415  -0.959  -0.296  0.00  0.00    +0.005 C 
ATOM     22  N   UNL     1      -1.063   0.777  -0.711  0.00  0.00    +0.389 N 
ATOM     23  H   UNL     1      -1.391   1.699  -0.399  0.00  0.00    -0.080 HD
ENDBRANCH   1  22
BRANCH   1  24
ATOM     24  C   UNL     1       0.410  -0.369  -2.304  0.00  0.00    +0.143 A 
ATOM     25  N   UNL     1       1.054  -1.225  -1.549  0.00  0.00    -0.115 NA
ATOM     26  N   UNL     1       1.384  -2.232  -2.281  0.00  0.00    -0.023 NA
ATOM     27  N   UNL     1       0.975  -2.037  -3.486  0.00  0.00    -0.044 NA
ATOM     28  N   UNL     1       0.369  -0.899  -3.540  0.00  0.00    -0.226 N 
BRANCH  28  29
ATOM     29  C   UNL     1      -0.248  -0.297  -4.725  0.00  0.00    +0.182 C 
BRANCH  29  30
ATOM     30  C   UNL     1       0.794   0.468  -5.500  0.00  0.00    -0.026 A 
ATOM     31  C   UNL     1       0.958   1.824  -5.286  0.00  0.00    +0.005 A 
ATOM     32  C   UNL     1       1.917   2.524  -5.993  0.00  0.00    +0.000 A 
ATOM     33  C   UNL     1       2.705   1.871  -6.922  0.00  0.00    +0.000 A 
ATOM     34  C   UNL     1       2.538   0.517  -7.140  0.00  0.00    +0.000 A 
ATOM     35  C   UNL     1       1.582  -0.185  -6.429  0.00  0.00    +0.005 A 
ENDBRANCH  29  30
ENDBRANCH  28  29
ENDBRANCH   1  24
TORSDOF 5
