REMARK  Name = ZINC01140406
REMARK  5 active torsions:
REMARK  status: ('A' for Active; 'I' for Inactive)
REMARK    1  A    between atoms: C_1  and  C_2
REMARK    2  A    between atoms: C_2  and  C_23
REMARK    3  A    between atoms: C_6  and  C_14
REMARK    4  A    between atoms: C_8  and  C_12
REMARK    5  A    between atoms: C_9  and  N_11
REMARK                            x       y       z     vdW  Elec       q    Type
REMARK                         _______ _______ _______ _____ _____    ______ ____
ROOT
ATOM      1  C   UNL     1       1.393   3.571  -0.034  0.00  0.00    +0.012 C 
ATOM      2  C   UNL     1       1.415   2.041  -0.001  0.00  0.00    -0.021 C 
ATOM      3  C   UNL     1      -0.018   1.507   0.010  0.00  0.00    +0.081 C 
ATOM      4  C   UNL     1       0.002  -0.004   0.002  0.00  0.00    +0.115 C 
ATOM      5  C   UNL     1       0.999  -0.674  -0.605  0.00  0.00    +0.049 C 
ATOM      6  C   UNL     1       1.016  -2.183  -0.616  0.00  0.00    +0.137 C 
ATOM      7  C   UNL     1       0.112  -2.717   0.460  0.00  0.00    +0.101 C 
ATOM      8  C   UNL     1      -0.839  -1.924   1.012  0.00  0.00    +0.198 C 
ATOM      9  O   UNL     1      -1.005  -0.652   0.616  0.00  0.00    -0.445 OA
ATOM     10  C   UNL     1       2.053   0.005  -1.246  0.00  0.00    +0.164 C 
ATOM     11  O   UNL     1       2.923  -0.634  -1.803  0.00  0.00    -0.292 OA
ATOM     12  C   UNL     1       2.122   1.508  -1.251  0.00  0.00    +0.086 C 
ATOM     13  C   UNL     1       2.152   1.560   1.251  0.00  0.00    +0.012 C 
ENDROOT
BRANCH   6  14
ATOM     14  C   UNL     1       0.540  -2.679  -1.957  0.00  0.00    +0.119 A 
ATOM     15  C   UNL     1       1.247  -3.441  -2.810  0.00  0.00    +0.047 A 
ATOM     16  C   UNL     1       0.423  -3.670  -3.935  0.00  0.00    +0.056 A 
ATOM     17  C   UNL     1      -0.740  -3.034  -3.703  0.00  0.00    +0.165 A 
ATOM     18  O   UNL     1      -0.665  -2.440  -2.500  0.00  0.00    -0.453 OA
ATOM     19  I   UNL     1      -2.390  -2.984  -4.993  0.00  0.00    -0.001 I 
ENDBRANCH   6  14
BRANCH   8  20
ATOM     20  N   UNL     1      -1.649  -2.432   1.996  0.00  0.00    -0.328 N 
ATOM     21  H   UNL     1      -1.538  -3.350   2.290  0.00  0.00    +0.145 HD
ATOM     22  H   UNL     1      -2.333  -1.874   2.398  0.00  0.00    +0.145 HD
ENDBRANCH   8  20
BRANCH   7  23
ATOM     23  C   UNL     1       0.255  -4.070   0.904  0.00  0.00    +0.101 C 
ATOM     24  N   UNL     1       0.369  -5.144   1.257  0.00  0.00    -0.191 NA
ENDBRANCH   7  23
TORSDOF 3
