REMARK  Name = ZINC03523237
REMARK  10 active torsions:
REMARK  status: ('A' for Active; 'I' for Inactive)
REMARK    1  A    between atoms: C_1  and  C_2
REMARK    2  A    between atoms: C_2  and  C_3
REMARK    3  A    between atoms: C_4  and  C_31
REMARK    4  A    between atoms: C_9  and  S_21
REMARK    5  A    between atoms: N_10  and  C_13
REMARK    6  A    between atoms: C_13  and  C_14
REMARK    7  A    between atoms: C_17  and  C_20
REMARK    8  A    between atoms: S_21  and  C_22
REMARK    9  A    between atoms: C_22  and  C_24
REMARK   10  A    between atoms: C_22  and  C_25
REMARK                            x       y       z     vdW  Elec       q    Type
REMARK                         _______ _______ _______ _____ _____    ______ ____
ROOT
ATOM      1  C   UNL     1      -0.749   3.086   1.275  0.00  0.00    -0.005 A 
ATOM      2  C   UNL     1      -1.674   3.907   0.757  0.00  0.00    -0.026 A 
ATOM      3  C   UNL     1      -1.498   5.344   0.882  0.00  0.00    +0.075 A 
ATOM      4  C   UNL     1      -0.324   5.742   1.549  0.00  0.00    +0.117 A 
ATOM      5  S   UNL     1       0.455   4.203   1.969  0.00  0.00    -0.073 S 
ATOM      6  N   UNL     1      -0.019   7.020   1.737  0.00  0.00    -0.216 NA
ATOM      7  C   UNL     1      -0.814   7.976   1.300  0.00  0.00    +0.174 A 
ATOM      8  N   UNL     1      -1.972   7.678   0.643  0.00  0.00    -0.283 N 
ATOM      9  C   UNL     1      -2.340   6.404   0.420  0.00  0.00    +0.264 A 
ATOM     10  O   UNL     1      -3.378   6.155  -0.169  0.00  0.00    -0.267 OA
ATOM     11  C   UNL     1      -2.885   3.346   0.057  0.00  0.00    +0.045 C 
ENDROOT
BRANCH   1  13
ATOM     12  C   UNL     1      -0.013   1.086   0.008  0.00  0.00    +0.009 C 
ATOM     13  C   UNL     1      -0.729   1.579   1.267  0.00  0.00    +0.039 C 
ENDBRANCH   1  13
BRANCH   8  14
ATOM     14  C   UNL     1      -2.832   8.768   0.173  0.00  0.00    +0.162 C 
BRANCH  14  15
ATOM     15  C   UNL     1      -2.429   9.157  -1.226  0.00  0.00    -0.028 A 
ATOM     16  C   UNL     1      -1.477  10.140  -1.423  0.00  0.00    +0.005 A 
ATOM     17  C   UNL     1      -1.104  10.495  -2.706  0.00  0.00    +0.004 A 
ATOM     18  C   UNL     1      -1.689   9.872  -3.792  0.00  0.00    -0.050 A 
ATOM     19  C   UNL     1      -2.644   8.892  -3.596  0.00  0.00    +0.004 A 
ATOM     20  C   UNL     1      -3.014   8.535  -2.313  0.00  0.00    +0.005 A 
ATOM     21  C   UNL     1      -1.286  10.261  -5.191  0.00  0.00    +0.044 C 
ENDBRANCH  14  15
ENDBRANCH   8  14
BRANCH   7  22
ATOM     22  S   UNL     1      -0.375   9.661   1.569  0.00  0.00    -0.075 S 
BRANCH  22  23
ATOM     23  C   UNL     1       1.191   9.442   2.450  0.00  0.00    +0.137 C 
ATOM     24  C   UNL     1       0.928   8.761   3.795  0.00  0.00    +0.029 C 
BRANCH  23  25
ATOM     25  C   UNL     1       1.828  10.787   2.685  0.00  0.00    +0.233 C 
ATOM     26  O   UNL     1       1.140  11.785   2.727  0.00  0.00    -0.274 OA
ATOM     27  N   UNL     1       3.163  10.882   2.847  0.00  0.00    -0.239 N 
ATOM     28  C   UNL     1       3.733  12.085   3.056  0.00  0.00    +0.303 C 
ATOM     29  O   UNL     1       3.043  13.085   3.099  0.00  0.00    -0.253 OA
ATOM     30  N   UNL     1       5.067  12.179   3.218  0.00  0.00    -0.313 N 
ATOM     31  H   UNL     1       3.787   9.977   2.808  0.00  0.00    +0.159 HD
ATOM     32  H   UNL     1       5.533  13.161   3.389  0.00  0.00    +0.146 HD
ATOM     33  H   UNL     1       5.691  11.274   3.179  0.00  0.00    +0.146 HD
ENDBRANCH  23  25
ENDBRANCH  22  23
ENDBRANCH   7  22
TORSDOF 6
