REMARK  Name = ZINC15940307
REMARK  15 active torsions:
REMARK  status: ('A' for Active; 'I' for Inactive)
REMARK    1  A    between atoms: C_1  and  C_2
REMARK    2  A    between atoms: C_2  and  C_3
REMARK    3  A    between atoms: C_2  and  C_4
REMARK    4  A    between atoms: C_4  and  C_5
REMARK    5  A    between atoms: C_5  and  S_6
REMARK    6  A    between atoms: S_6  and  C_7
REMARK    7  A    between atoms: C_10  and  C_16
REMARK    8  A    between atoms: C_12  and  N_13
REMARK    9  A    between atoms: N_18  and  C_19
REMARK   10  A    between atoms: C_21  and  S_27
REMARK   11  A    between atoms: C_24  and  O_25
REMARK   12  A    between atoms: O_25  and  C_26
REMARK   13  A    between atoms: S_27  and  N_30
REMARK   14  A    between atoms: N_30  and  C_31
REMARK   15  A    between atoms: N_30  and  C_32
REMARK                            x       y       z     vdW  Elec       q    Type
REMARK                         _______ _______ _______ _____ _____    ______ ____
ROOT
ATOM      1  C   UNL     1       0.072  -4.244  -0.017  0.00  0.00    +0.248 C 
ATOM      2  O   UNL     1      -0.970  -4.871  -0.016  0.00  0.00    -0.270 OA
ATOM      3  N   UNL     1       1.251  -4.897  -0.036  0.00  0.00    -0.279 N 
ATOM      4  H   UNL     1       2.080  -4.400  -0.117  0.00  0.00    +0.155 HD
ENDROOT
BRANCH   1   8
ATOM      5  C   UNL     1       0.004  -0.004   0.040  0.00  0.00    +0.038 A 
ATOM      6  C   UNL     1       1.220  -0.683   0.021  0.00  0.00    +0.018 A 
ATOM      7  C   UNL     1       1.244  -2.048   0.003  0.00  0.00    +0.014 A 
ATOM      8  C   UNL     1       0.046  -2.770   0.003  0.00  0.00    +0.039 A 
ATOM      9  C   UNL     1      -1.176  -2.091   0.022  0.00  0.00    +0.047 A 
ATOM     10  C   UNL     1      -1.194  -0.715   0.046  0.00  0.00    +0.140 A 
BRANCH  10  11
ATOM     11  N   UNL     1      -2.485   0.008   0.072  0.00  0.00    +0.058 N 
ATOM     12  O   UNL     1      -3.532  -0.614   0.077  0.00  0.00    -0.126 OA
ATOM     13  O   UNL     1      -2.501   1.226   0.088  0.00  0.00    -0.126 OA
ENDBRANCH  10  11
BRANCH   5  14
ATOM     14  S   UNL     1      -0.020   1.758   0.064  0.00  0.00    -0.123 S 
BRANCH  14  15
ATOM     15  C   UNL     1       1.734   2.220   0.056  0.00  0.00    +0.075 C 
BRANCH  15  16
ATOM     16  C   UNL     1       1.860   3.744   0.076  0.00  0.00    +0.014 C 
BRANCH  16  18
ATOM     17  C   UNL     1       3.466   5.655  -0.037  0.00  0.00    +0.007 C 
ATOM     18  C   UNL     1       3.340   4.134   0.069  0.00  0.00    -0.016 C 
ATOM     19  C   UNL     1       3.999   3.657   1.365  0.00  0.00    +0.007 C 
ENDBRANCH  16  18
ENDBRANCH  15  16
ENDBRANCH  14  15
ENDBRANCH   5  14
ENDBRANCH   1   8
BRANCH   3  20
ATOM     20  C   UNL     1       1.280  -6.294   0.062  0.00  0.00    +0.078 A 
ATOM     21  C   UNL     1       0.234  -6.970   0.674  0.00  0.00    +0.055 A 
ATOM     22  C   UNL     1       0.262  -8.349   0.765  0.00  0.00    +0.107 A 
ATOM     23  C   UNL     1       1.335  -9.057   0.256  0.00  0.00    +0.032 A 
ATOM     24  C   UNL     1       2.383  -8.390  -0.350  0.00  0.00    +0.049 A 
ATOM     25  C   UNL     1       2.361  -7.008  -0.450  0.00  0.00    +0.141 A 
BRANCH  22  26
ATOM     26  S   UNL     1      -1.070  -9.206   1.537  0.00  0.00    +0.060 S 
ATOM     27  O   UNL     1      -2.207  -8.358   1.443  0.00  0.00    -0.153 OA
ATOM     28  O   UNL     1      -1.060 -10.527   1.014  0.00  0.00    -0.153 OA
BRANCH  26  29
ATOM     29  N   UNL     1      -0.704  -9.331   3.147  0.00  0.00    -0.183 NA
ATOM     30  C   UNL     1      -1.127  -8.282   4.078  0.00  0.00    +0.131 C 
ATOM     31  C   UNL     1       0.042 -10.491   3.640  0.00  0.00    +0.131 C 
ENDBRANCH  26  29
ENDBRANCH  22  26
BRANCH  25  32
ATOM     32  O   UNL     1       3.391  -6.351  -1.045  0.00  0.00    -0.493 OA
ATOM     33  C   UNL     1       4.466  -7.148  -1.547  0.00  0.00    +0.277 C 
ENDBRANCH  25  32
ENDBRANCH   3  20
TORSDOF 10
