REMARK  Name = ZINC28690328
REMARK  13 active torsions:
REMARK  status: ('A' for Active; 'I' for Inactive)
REMARK    1  A    between atoms: C_1  and  N_2
REMARK    2  A    between atoms: C_6  and  C_7
REMARK    3  A    between atoms: C_7  and  C_9
REMARK    4  A    between atoms: C_7  and  N_16
REMARK    5  A    between atoms: N_16  and  C_17
REMARK    6  A    between atoms: C_17  and  C_18
REMARK    7  A    between atoms: C_18  and  C_20
REMARK    8  A    between atoms: C_18  and  O_31
REMARK    9  A    between atoms: C_20  and  O_21
REMARK   10  A    between atoms: O_21  and  C_22
REMARK   11  A    between atoms: C_22  and  C_23
REMARK   12  A    between atoms: C_26  and  O_29
REMARK   13  A    between atoms: O_29  and  C_30
REMARK                            x       y       z     vdW  Elec       q    Type
REMARK                         _______ _______ _______ _____ _____    ______ ____
ROOT
ATOM      1  N   UNL     1       2.641   4.139  -0.981  0.00  0.00    +0.390 N 
ATOM      2  H   UNL     1       3.514   4.745  -0.699  0.00  0.00    -0.084 HD
ATOM      3  H   UNL     1       2.926   3.077  -1.013  0.00  0.00    -0.084 HD
ENDROOT
BRANCH   1   4
ATOM      4  C   UNL     1       1.573   4.329   0.010  0.00  0.00    +0.028 C 
BRANCH   4  10
ATOM      5  C   UNL     1      -1.526   4.348   0.039  0.00  0.00    +0.150 C 
ATOM      6  N   UNL     1      -0.681   3.151   0.025  0.00  0.00    -0.340 N 
ATOM      7  C   UNL     1      -1.113   1.852   0.017  0.00  0.00    +0.104 A 
ATOM      8  C   UNL     1      -0.013   1.076   0.008  0.00  0.00    +0.101 A 
ATOM      9  N   UNL     1       1.062   1.879   0.002  0.00  0.00    -0.351 N 
ATOM     10  C   UNL     1       0.669   3.123   0.013  0.00  0.00    +0.077 A 
ATOM     11  H   UNL     1       2.073   1.445  -0.010  0.00  0.00    +0.166 HD
ENDBRANCH   4  10
BRANCH   4  12
ATOM     12  C   UNL     1       2.181   4.504   1.377  0.00  0.00    -0.019 A 
ATOM     13  C   UNL     1       3.471   4.071   1.621  0.00  0.00    +0.005 A 
ATOM     14  C   UNL     1       4.030   4.231   2.875  0.00  0.00    +0.000 A 
ATOM     15  C   UNL     1       3.299   4.826   3.887  0.00  0.00    +0.003 A 
ATOM     16  C   UNL     1       2.010   5.259   3.647  0.00  0.00    +0.038 A 
ATOM     17  C   UNL     1       1.451   5.103   2.389  0.00  0.00    +0.125 A 
ATOM     18  F   UNL     1       0.192   5.532   2.151  0.00  0.00    -0.205 F 
ENDBRANCH   4  12
ENDBRANCH   1   4
BRANCH   1  19
ATOM     19  C   UNL     1       2.196   4.548  -2.320  0.00  0.00    -0.047 C 
BRANCH  19  20
ATOM     20  C   UNL     1       3.332   4.335  -3.322  0.00  0.00    +0.123 C 
BRANCH  20  21
ATOM     21  O   UNL     1       3.619   2.939  -3.428  0.00  0.00    -0.391 OA
ATOM     22  H   UNL     1       4.412   2.591  -4.106  0.00  0.00    +0.210 HD
ENDBRANCH  20  21
BRANCH  20  23
ATOM     23  C   UNL     1       2.913   4.876  -4.690  0.00  0.00    +0.189 C 
BRANCH  23  24
ATOM     24  O   UNL     1       4.015   4.784  -5.596  0.00  0.00    -0.373 OA
BRANCH  24  25
ATOM     25  C   UNL     1       3.728   5.266  -6.911  0.00  0.00    +0.195 C 
BRANCH  25  26
ATOM     26  C   UNL     1       4.952   5.122  -7.777  0.00  0.00    -0.022 A 
ATOM     27  C   UNL     1       5.868   6.155  -7.854  0.00  0.00    +0.009 A 
ATOM     28  C   UNL     1       6.995   6.023  -8.643  0.00  0.00    +0.046 A 
ATOM     29  C   UNL     1       7.201   4.858  -9.367  0.00  0.00    +0.120 A 
ATOM     30  C   UNL     1       6.277   3.825  -9.292  0.00  0.00    +0.046 A 
ATOM     31  C   UNL     1       5.155   3.959  -8.497  0.00  0.00    +0.009 A 
BRANCH  29  32
ATOM     32  O   UNL     1       8.305   4.728 -10.148  0.00  0.00    -0.495 OA
ATOM     33  C   UNL     1       9.213   5.832 -10.177  0.00  0.00    +0.277 C 
ENDBRANCH  29  32
ENDBRANCH  25  26
ENDBRANCH  24  25
ENDBRANCH  23  24
ENDBRANCH  20  23
ENDBRANCH  19  20
ENDBRANCH   1  19
TORSDOF 11
