REMARK  Name = ZINC03655500
REMARK  9 active torsions:
REMARK  status: ('A' for Active; 'I' for Inactive)
REMARK    1  A    between atoms: C_1  and  C_2
REMARK    2  A    between atoms: C_4  and  C_33
REMARK    3  A    between atoms: C_6  and  O_8
REMARK    4  A    between atoms: O_8  and  C_9
REMARK    5  A    between atoms: C_9  and  C_11
REMARK    6  A    between atoms: C_9  and  C_12
REMARK    7  A    between atoms: N_14  and  C_15
REMARK    8  A    between atoms: C_23  and  C_24
REMARK    9  A    between atoms: C_24  and  C_26
REMARK                            x       y       z     vdW  Elec       q    Type
REMARK                         _______ _______ _______ _____ _____    ______ ____
ROOT
ATOM      1  C   UNL     1       0.582  -2.080  -0.247  0.00  0.00    +0.091 A 
ATOM      2  C   UNL     1      -0.292  -1.957  -1.419  0.00  0.00    +0.042 A 
ATOM      3  C   UNL     1      -0.499  -2.736  -2.559  0.00  0.00    +0.013 A 
ATOM      4  C   UNL     1      -1.411  -2.337  -3.496  0.00  0.00    +0.001 A 
ATOM      5  C   UNL     1      -2.133  -1.165  -3.318  0.00  0.00    +0.004 A 
ATOM      6  C   UNL     1      -1.944  -0.384  -2.199  0.00  0.00    +0.047 A 
ATOM      7  C   UNL     1      -1.020  -0.769  -1.234  0.00  0.00    +0.138 A 
ATOM      8  O   UNL     1      -0.631  -0.219  -0.066  0.00  0.00    -0.450 OA
ATOM      9  C   UNL     1       0.315  -0.974   0.536  0.00  0.00    +0.197 A 
ENDROOT
BRANCH   1  12
ATOM     10  C   UNL     1       1.297  -4.324  -0.500  0.00  0.00    +0.258 C 
ATOM     11  O   UNL     1       0.297  -4.561  -1.145  0.00  0.00    -0.271 OA
ATOM     12  N   UNL     1       1.489  -3.096   0.020  0.00  0.00    -0.279 N 
ATOM     13  H   UNL     1       2.261  -2.922   0.580  0.00  0.00    +0.155 HD
BRANCH  10  14
ATOM     14  C   UNL     1       2.324  -5.405  -0.280  0.00  0.00    +0.256 C 
ATOM     15  C   UNL     1       3.631  -5.016  -0.975  0.00  0.00    +0.062 C 
BRANCH  14  16
ATOM     16  O   UNL     1       1.844  -6.636  -0.823  0.00  0.00    -0.480 OA
BRANCH  16  22
ATOM     17  C   UNL     1       1.827 -11.512  -0.599  0.00  0.00    +0.044 C 
ATOM     18  C   UNL     1       2.372 -10.175  -0.165  0.00  0.00    -0.047 A 
ATOM     19  C   UNL     1       3.392 -10.114   0.766  0.00  0.00    +0.007 A 
ATOM     20  C   UNL     1       3.894  -8.890   1.166  0.00  0.00    -0.047 A 
ATOM     21  C   UNL     1       3.378  -7.724   0.635  0.00  0.00    +0.049 A 
ATOM     22  C   UNL     1       2.354  -7.782  -0.300  0.00  0.00    +0.122 A 
ATOM     23  C   UNL     1       1.848  -9.012  -0.695  0.00  0.00    +0.049 A 
ATOM     24  C   UNL     1       5.006  -8.827   2.181  0.00  0.00    +0.044 C 
ENDBRANCH  16  22
ENDBRANCH  14  16
ENDBRANCH  10  14
ENDBRANCH   1  12
BRANCH   9  25
ATOM     25  C   UNL     1       0.933  -0.677   1.776  0.00  0.00    +0.230 C 
ATOM     26  O   UNL     1       1.707  -1.474   2.276  0.00  0.00    -0.283 OA
BRANCH  25  27
ATOM     27  C   UNL     1       0.641   0.600   2.462  0.00  0.00    +0.026 A 
ATOM     28  C   UNL     1      -0.341   1.456   1.960  0.00  0.00    +0.013 A 
ATOM     29  C   UNL     1      -0.614   2.643   2.608  0.00  0.00    +0.016 A 
ATOM     30  C   UNL     1       0.093   2.991   3.747  0.00  0.00    +0.018 A 
ATOM     31  C   UNL     1       1.072   2.148   4.246  0.00  0.00    +0.016 A 
ATOM     32  C   UNL     1       1.349   0.956   3.611  0.00  0.00    +0.013 A 
ATOM     33 BR   UNL     1      -0.282   4.624   4.624  0.00  0.00    -0.050 Br
ENDBRANCH  25  27
ENDBRANCH   9  25
TORSDOF 6
