REMARK  Name = ZINC14456447
REMARK  3 active torsions:
REMARK  status: ('A' for Active; 'I' for Inactive)
REMARK    1  A    between atoms: C_1  and  C_2
REMARK    2  A    between atoms: C_5  and  C_7
REMARK    3  A    between atoms: C_17  and  N_24
REMARK                            x       y       z     vdW  Elec       q    Type
REMARK                         _______ _______ _______ _____ _____    ______ ____
ROOT
ATOM      1  C   UNL     1      -1.256   3.484   0.284  0.00  0.00    +0.112 C 
ATOM      2  C   UNL     1      -0.118   4.027  -0.554  0.00  0.00    +0.029 C 
ATOM      3  C   UNL     1       0.169   5.532  -0.488  0.00  0.00    +0.033 C 
ATOM      4  C   UNL     1       1.675   5.567  -0.765  0.00  0.00    -0.030 C 
ATOM      5  C   UNL     1       2.229   4.416  -0.399  0.00  0.00    -0.023 C 
ATOM      6  C   UNL     1       1.175   3.546   0.176  0.00  0.00    +0.051 C 
ATOM      7  C   UNL     1       1.205   2.072   0.059  0.00  0.00    +0.014 A 
ATOM      8  C   UNL     1       2.393   1.376  -0.037  0.00  0.00    +0.132 A 
ATOM      9  C   UNL     1       2.394  -0.004  -0.110  0.00  0.00    +0.036 A 
ATOM     10  C   UNL     1       1.194  -0.691  -0.086  0.00  0.00    +0.042 A 
ATOM     11  C   UNL     1       0.002  -0.004   0.002  0.00  0.00    +0.145 A 
ATOM     12  C   UNL     1      -0.015   1.393   0.068  0.00  0.00    +0.069 A 
ATOM     13  N   UNL     1      -1.259   2.022   0.116  0.00  0.00    -0.334 N 
ATOM     14  F   UNL     1      -1.163  -0.687   0.024  0.00  0.00    -0.204 F 
ATOM     15  H   UNL     1      -1.833   1.749  -0.668  0.00  0.00    +0.147 HD
ENDROOT
BRANCH   1  20
ATOM     16  C   UNL     1       0.184   4.027   5.736  0.00  0.00    +0.051 C 
ATOM     17  C   UNL     1      -0.352   4.092   4.329  0.00  0.00    -0.013 A 
ATOM     18  C   UNL     1      -1.241   4.964   3.794  0.00  0.00    +0.011 A 
ATOM     19  C   UNL     1      -1.593   4.832   2.464  0.00  0.00    +0.013 A 
ATOM     20  C   UNL     1      -1.038   3.833   1.734  0.00  0.00    +0.010 A 
ATOM     21  S   UNL     1       0.012   3.035   2.937  0.00  0.00    -0.097 S 
ENDBRANCH   1  20
BRANCH   8  22
ATOM     22  N   UNL     1       3.675   2.113  -0.062  0.00  0.00    +0.057 N 
ATOM     23  O   UNL     1       4.482   1.902  -0.950  0.00  0.00    -0.126 OA
ATOM     24  O   UNL     1       3.925   2.932   0.805  0.00  0.00    -0.126 OA
ENDBRANCH   8  22
TORSDOF 2
