REMARK  Name = ZINC00647421
REMARK  10 active torsions:
REMARK  status: ('A' for Active; 'I' for Inactive)
REMARK    1  A    between atoms: C_1  and  C_2
REMARK    2  A    between atoms: C_3  and  C_31
REMARK    3  A    between atoms: C_4  and  C_21
REMARK    4  A    between atoms: C_10  and  C_15
REMARK    5  A    between atoms: C_25  and  O_29
REMARK    6  A    between atoms: C_26  and  O_27
REMARK    7  A    between atoms: O_27  and  C_28
REMARK    8  A    between atoms: O_29  and  C_30
REMARK    9  A    between atoms: C_31  and  O_33
REMARK   10  A    between atoms: O_33  and  C_34
REMARK                            x       y       z     vdW  Elec       q    Type
REMARK                         _______ _______ _______ _____ _____    ______ ____
ROOT
ATOM      1  C   UNL     1      -2.851   1.113   0.359  0.00  0.00    +0.061 C 
ATOM      2  C   UNL     1      -1.530   1.721  -0.034  0.00  0.00    +0.016 C 
ATOM      3  C   UNL     1      -1.476   3.010  -0.406  0.00  0.00    +0.065 C 
ATOM      4  C   UNL     1      -0.181   3.648  -0.817  0.00  0.00    +0.096 C 
ATOM      5  C   UNL     1       0.997   2.835  -0.342  0.00  0.00    +0.024 C 
ATOM      6  C   UNL     1       0.840   1.548   0.035  0.00  0.00    +0.016 C 
ATOM      7  N   UNL     1      -0.395   0.959  -0.004  0.00  0.00    -0.321 N 
ATOM      8  C   UNL     1       2.014   0.729   0.511  0.00  0.00    +0.059 C 
ATOM      9  C   UNL     1       3.291   1.209  -0.182  0.00  0.00    +0.032 C 
ATOM     10  C   UNL     1       3.484   2.696   0.132  0.00  0.00    +0.088 C 
ATOM     11  C   UNL     1       2.260   3.452  -0.307  0.00  0.00    +0.162 C 
ATOM     12  O   UNL     1       2.363   4.617  -0.636  0.00  0.00    -0.292 OA
ATOM     13  H   UNL     1      -0.470  -0.139  -0.010  0.00  0.00    +0.152 HD
ENDROOT
BRANCH   9  14
ATOM     14  C   UNL     1       4.471   0.425   0.331  0.00  0.00    -0.044 A 
ATOM     15  C   UNL     1       4.795   0.464   1.674  0.00  0.00    +0.004 A 
ATOM     16  C   UNL     1       5.875  -0.259   2.145  0.00  0.00    +0.000 A 
ATOM     17  C   UNL     1       6.637  -1.012   1.272  0.00  0.00    +0.000 A 
ATOM     18  C   UNL     1       6.316  -1.046  -0.073  0.00  0.00    +0.000 A 
ATOM     19  C   UNL     1       5.234  -0.327  -0.543  0.00  0.00    +0.004 A 
ENDBRANCH   9  14
BRANCH   4  20
ATOM     20  C   UNL     1      -0.136   3.752  -2.320  0.00  0.00    +0.010 A 
ATOM     21  C   UNL     1      -0.004   2.611  -3.089  0.00  0.00    +0.008 A 
ATOM     22  C   UNL     1       0.037   2.703  -4.467  0.00  0.00    +0.004 A 
ATOM     23  C   UNL     1      -0.054   3.937  -5.083  0.00  0.00    +0.049 A 
ATOM     24  C   UNL     1      -0.187   5.085  -4.319  0.00  0.00    +0.162 A 
ATOM     25  C   UNL     1      -0.233   4.992  -2.931  0.00  0.00    +0.166 A 
BRANCH  25  26
ATOM     26  O   UNL     1      -0.369   6.115  -2.176  0.00  0.00    -0.491 OA
ATOM     27  C   UNL     1       0.818   6.867  -1.913  0.00  0.00    +0.277 C 
ENDBRANCH  25  26
BRANCH  24  28
ATOM     28  O   UNL     1      -0.277   6.300  -4.923  0.00  0.00    -0.491 OA
ATOM     29  C   UNL     1      -0.228   6.319  -6.351  0.00  0.00    +0.277 C 
ENDBRANCH  24  28
ENDBRANCH   4  20
BRANCH   3  30
ATOM     30  C   UNL     1      -2.662   3.780  -0.416  0.00  0.00    +0.338 C 
ATOM     31  O   UNL     1      -3.719   3.275  -0.085  0.00  0.00    -0.245 OA
BRANCH  30  32
ATOM     32  O   UNL     1      -2.623   5.076  -0.793  0.00  0.00    -0.458 OA
BRANCH  32  33
ATOM     33  C   UNL     1      -3.858   5.793  -0.779  0.00  0.00    +0.177 C 
ATOM     34  C   UNL     1      -4.541   5.659  -2.141  0.00  0.00    +0.044 C 
ATOM     35  C   UNL     1      -5.864   6.428  -2.127  0.00  0.00    +0.004 C 
ATOM     36  C   UNL     1      -5.593   7.905  -1.835  0.00  0.00    +0.000 C 
ATOM     37  C   UNL     1      -4.910   8.039  -0.473  0.00  0.00    +0.004 C 
ATOM     38  C   UNL     1      -3.587   7.271  -0.488  0.00  0.00    +0.044 C 
ENDBRANCH  32  33
ENDBRANCH  30  32
ENDBRANCH   3  30
TORSDOF 7
