REMARK  Name = ZINC11859515
REMARK  7 active torsions:
REMARK  status: ('A' for Active; 'I' for Inactive)
REMARK    1  A    between atoms: C_1  and  O_2
REMARK    2  A    between atoms: O_2  and  C_3
REMARK    3  A    between atoms: C_3  and  C_5
REMARK    4  A    between atoms: C_10  and  O_11
REMARK    5  A    between atoms: O_11  and  C_12
REMARK    6  A    between atoms: C_12  and  C_14
REMARK    7  A    between atoms: C_27  and  C_30
REMARK                            x       y       z     vdW  Elec       q    Type
REMARK                         _______ _______ _______ _____ _____    ______ ____
ROOT
ATOM      1  C   UNL     1      -2.013   5.567  -0.306  0.00  0.00    +0.060 A 
ATOM      2  C   UNL     1      -3.127   5.351  -1.124  0.00  0.00    +0.017 A 
ATOM      3  C   UNL     1      -3.306   4.134  -1.716  0.00  0.00    +0.024 A 
ATOM      4  C   UNL     1      -2.385   3.109  -1.510  0.00  0.00    +0.031 A 
ATOM      5  C   UNL     1      -1.272   3.307  -0.701  0.00  0.00    -0.019 A 
ATOM      6  C   UNL     1      -1.090   4.540  -0.100  0.00  0.00    +0.021 A 
ATOM      7  C   UNL     1      -0.240   2.238  -0.465  0.00  0.00    +0.049 C 
ATOM      8  C   UNL     1      -0.377   1.655   0.922  0.00  0.00    -0.023 C 
ATOM      9  C   UNL     1      -0.134   0.364   0.899  0.00  0.00    -0.030 C 
ATOM     10  C   UNL     1       0.198  -0.086  -0.510  0.00  0.00    +0.033 C 
ATOM     11  C   UNL     1      -0.421   1.029  -1.404  0.00  0.00    +0.029 C 
ATOM     12  C   UNL     1      -1.907   0.701  -1.578  0.00  0.00    +0.106 C 
ATOM     13  N   UNL     1      -2.592   1.876  -2.124  0.00  0.00    -0.336 N 
ATOM     14  H   UNL     1      -3.176   1.797  -2.895  0.00  0.00    +0.147 HD
ENDROOT
BRANCH  12  15
ATOM     15  C   UNL     1      -2.505   0.343  -0.242  0.00  0.00    -0.009 A 
ATOM     16  C   UNL     1      -2.958   1.340   0.602  0.00  0.00    +0.008 A 
ATOM     17  C   UNL     1      -3.511   1.013   1.825  0.00  0.00    +0.020 A 
ATOM     18  C   UNL     1      -3.602  -0.313   2.211  0.00  0.00    +0.042 A 
ATOM     19  C   UNL     1      -3.144  -1.311   1.370  0.00  0.00    +0.040 A 
ATOM     20  C   UNL     1      -2.595  -0.983   0.143  0.00  0.00    +0.047 A 
ATOM     21 CL   UNL     1      -2.019  -2.234  -0.913  0.00  0.00    -0.083 Cl
ATOM     22 CL   UNL     1      -4.292  -0.724   3.751  0.00  0.00    -0.083 Cl
ENDBRANCH  12  15
BRANCH   1  23
ATOM     23  C   UNL     1      -1.813   6.877   0.337  0.00  0.00    +0.344 C 
ATOM     24  O   UNL     1      -0.846   7.064   1.048  0.00  0.00    -0.245 OA
BRANCH  23  25
ATOM     25  O   UNL     1      -2.705   7.869   0.138  0.00  0.00    -0.422 OA
BRANCH  25  31
ATOM     26  C   UNL     1      -1.619   9.991  -0.043  0.00  0.00    +0.101 A 
ATOM     27  C   UNL     1      -1.324  11.237   0.516  0.00  0.00    +0.018 A 
ATOM     28  C   UNL     1      -1.802  11.559   1.768  0.00  0.00    +0.001 A 
ATOM     29  C   UNL     1      -2.578  10.653   2.474  0.00  0.00    +0.004 A 
ATOM     30  C   UNL     1      -2.881   9.421   1.931  0.00  0.00    +0.047 A 
ATOM     31  C   UNL     1      -2.409   9.080   0.672  0.00  0.00    +0.146 A 
BRANCH  26  32
ATOM     32  C   UNL     1      -1.107   9.638  -1.380  0.00  0.00    +0.343 C 
ATOM     33  O   UNL     1      -1.368   8.555  -1.864  0.00  0.00    -0.245 OA
BRANCH  32  35
ATOM     34  C   UNL     1       0.122  10.102  -3.374  0.00  0.00    +0.280 C 
ATOM     35  O   UNL     1      -0.348  10.517  -2.064  0.00  0.00    -0.464 OA
ENDBRANCH  32  35
ENDBRANCH  26  32
ENDBRANCH  25  31
ENDBRANCH  23  25
ENDBRANCH   1  23
TORSDOF 6
