REMARK  Name = ZINC12833086
REMARK  13 active torsions:
REMARK  status: ('A' for Active; 'I' for Inactive)
REMARK    1  A    between atoms: C_1  and  C_2
REMARK    2  A    between atoms: C_2  and  C_3
REMARK    3  A    between atoms: C_3  and  C_4
REMARK    4  A    between atoms: C_3  and  C_5
REMARK    5  A    between atoms: C_3  and  N_6
REMARK    6  A    between atoms: C_7  and  C_11
REMARK    7  A    between atoms: C_11  and  N_68
REMARK    8  A    between atoms: C_12  and  C_13
REMARK    9  A    between atoms: C_12  and  N_68
REMARK   10  A    between atoms: C_22  and  C_23
REMARK   11  A    between atoms: C_22  and  N_68
REMARK   12  A    between atoms: C_26  and  C_36
REMARK   13  A    between atoms: C_29  and  C_35
REMARK                            x       y       z     vdW  Elec       q    Type
REMARK                         _______ _______ _______ _____ _____    ______ ____
ROOT
ATOM      1  N   UNL     1       6.555  -0.806   1.643  0.00  0.00    +0.390 N 
ATOM      2  H   UNL     1       6.545  -1.671   1.090  0.00  0.00    -0.080 HD
ENDROOT
BRANCH   1   3
ATOM      3  C   UNL     1       6.611   0.351   0.724  0.00  0.00    +0.001 C 
BRANCH   3   5
ATOM      4  N   UNL     1       6.564   2.887   0.986  0.00  0.00    -0.226 N 
ATOM      5  C   UNL     1       6.581   1.643   1.499  0.00  0.00    +0.136 A 
ATOM      6  N   UNL     1       6.572   1.773   2.803  0.00  0.00    -0.115 NA
ATOM      7  N   UNL     1       6.545   3.032   3.077  0.00  0.00    -0.023 NA
ATOM      8  N   UNL     1       6.537   3.708   1.981  0.00  0.00    -0.043 NA
BRANCH   4   9
ATOM      9  C   UNL     1       6.570   3.243  -0.435  0.00  0.00    +0.061 C 
ATOM     10  C   UNL     1       7.774   2.591  -1.118  0.00  0.00    +0.036 C 
ATOM     11  C   UNL     1       5.281   2.746  -1.091  0.00  0.00    +0.036 C 
BRANCH   9  13
ATOM     12  C   UNL     1       6.540   5.143  -2.057  0.00  0.00    +0.006 C 
ATOM     13  C   UNL     1       6.663   4.763  -0.580  0.00  0.00    +0.026 C 
ENDBRANCH   9  13
ENDBRANCH   4   9
ENDBRANCH   3   5
ENDBRANCH   1   3
BRANCH   1  14
ATOM     14  C   UNL     1       5.324  -0.744   2.459  0.00  0.00    -0.042 C 
BRANCH  14  15
ATOM     15  C   UNL     1       4.134  -0.962   1.561  0.00  0.00    -0.060 A 
ATOM     16  C   UNL     1       3.670  -2.243   1.329  0.00  0.00    +0.005 A 
ATOM     17  C   UNL     1       2.579  -2.448   0.505  0.00  0.00    +0.050 A 
ATOM     18  C   UNL     1       1.947  -1.368  -0.090  0.00  0.00    +0.166 A 
ATOM     19  C   UNL     1       2.415  -0.077   0.143  0.00  0.00    +0.166 A 
ATOM     20  C   UNL     1       3.509   0.121   0.970  0.00  0.00    +0.051 A 
ATOM     21  O   UNL     1       1.633   0.802  -0.548  0.00  0.00    -0.453 OA
ATOM     22  C   UNL     1       0.435   0.073  -0.880  0.00  0.00    +0.466 C 
ATOM     23  O   UNL     1       0.872  -1.298  -0.929  0.00  0.00    -0.453 OA
ENDBRANCH  14  15
ENDBRANCH   1  14
BRANCH   1  24
ATOM     24  C   UNL     1       7.744  -0.811   2.521  0.00  0.00    -0.036 C 
BRANCH  24  25
ATOM     25  C   UNL     1       8.967  -1.082   1.683  0.00  0.00    +0.001 A 
ATOM     26  C   UNL     1       9.745  -0.051   1.270  0.00  0.00    +0.017 A 
ATOM     27  C   UNL     1      10.926  -0.348   0.458  0.00  0.00    +0.002 A 
ATOM     28  C   UNL     1      11.767   0.673   0.003  0.00  0.00    -0.041 A 
ATOM     29  C   UNL     1      12.861   0.363  -0.754  0.00  0.00    +0.004 A 
ATOM     30  C   UNL     1      13.146  -0.958  -1.076  0.00  0.00    +0.005 A 
ATOM     31  C   UNL     1      12.332  -1.980  -0.638  0.00  0.00    -0.026 A 
ATOM     32  C   UNL     1      11.212  -1.688   0.134  0.00  0.00    +0.052 A 
ATOM     33  N   UNL     1      10.380  -2.691   0.585  0.00  0.00    -0.322 N 
ATOM     34  H   UNL     1      10.579  -3.613   0.361  0.00  0.00    +0.169 HD
ATOM     35  C   UNL     1       9.301  -2.409   1.336  0.00  0.00    +0.251 A 
ATOM     36  O   UNL     1       8.591  -3.321   1.721  0.00  0.00    -0.268 OA
ATOM     37  C   UNL     1      12.653  -3.408  -0.995  0.00  0.00    +0.046 C 
ATOM     38  C   UNL     1      11.466   2.109   0.345  0.00  0.00    +0.044 C 
ENDBRANCH  24  25
ENDBRANCH   1  24
TORSDOF 8
