REMARK  Name = ZINC65396351
REMARK  9 active torsions:
REMARK  status: ('A' for Active; 'I' for Inactive)
REMARK    1  A    between atoms: C_1  and  C_2
REMARK    2  A    between atoms: C_2  and  C_4
REMARK    3  A    between atoms: C_2  and  N_29
REMARK    4  A    between atoms: C_7  and  C_10
REMARK    5  A    between atoms: C_12  and  C_23
REMARK    6  A    between atoms: N_16  and  C_17
REMARK    7  A    between atoms: C_17  and  C_18
REMARK    8  A    between atoms: N_29  and  C_30
REMARK    9  A    between atoms: N_29  and  C_31
REMARK                            x       y       z     vdW  Elec       q    Type
REMARK                         _______ _______ _______ _____ _____    ______ ____
ROOT
ATOM      1  C   UNL     1      -5.419  -2.005   0.043  0.00  0.00    +0.110 C 
ATOM      2  C   UNL     1      -5.418  -3.545   0.011  0.00  0.00    +0.107 C 
ATOM      3  N   UNL     1      -6.129  -3.919  -1.234  0.00  0.00    -0.295 NA
ATOM      4  C   UNL     1      -6.985  -2.744  -1.539  0.00  0.00    +0.170 C 
ATOM      5  N   UNL     1      -6.132  -1.579  -1.185  0.00  0.00    -0.274 NA
ATOM      6  H   UNL     1      -5.477  -4.096  -1.983  0.00  0.00    +0.124 HD
ENDROOT
BRANCH   1  10
ATOM      7  C   UNL     1      -1.412  -0.526   0.013  0.00  0.00    -0.061 A 
ATOM      8  C   UNL     1      -2.123  -0.571   1.197  0.00  0.00    +0.002 A 
ATOM      9  C   UNL     1      -3.420  -1.049   1.207  0.00  0.00    +0.005 A 
ATOM     10  C   UNL     1      -4.006  -1.482   0.032  0.00  0.00    -0.028 A 
ATOM     11  C   UNL     1      -3.295  -1.436  -1.153  0.00  0.00    +0.005 A 
ATOM     12  C   UNL     1      -2.000  -0.954  -1.163  0.00  0.00    +0.002 A 
BRANCH   7  14
ATOM     13  C   UNL     1      -0.019   1.526   0.010  0.00  0.00    -0.008 C 
ATOM     14  C   UNL     1       0.002  -0.004   0.002  0.00  0.00    -0.042 C 
BRANCH  14  15
ATOM     15  N   UNL     1       0.713  -0.491   1.192  0.00  0.00    +0.380 N 
ATOM     16  C   UNL     1       0.733  -1.960   1.184  0.00  0.00    -0.096 C 
ATOM     17  C   UNL     1       2.091   0.018   1.182  0.00  0.00    -0.096 C 
ATOM     18  H   UNL     1       0.240  -0.165   2.022  0.00  0.00    -0.082 HD
ENDBRANCH  14  15
ENDBRANCH   7  14
ENDBRANCH   1  10
BRANCH   2  19
ATOM     19  C   UNL     1      -4.003  -4.064  -0.019  0.00  0.00    -0.029 A 
ATOM     20  C   UNL     1      -3.297  -4.077  -1.207  0.00  0.00    +0.005 A 
ATOM     21  C   UNL     1      -2.000  -4.553  -1.235  0.00  0.00    +0.000 A 
ATOM     22  C   UNL     1      -1.408  -5.015  -0.074  0.00  0.00    +0.000 A 
ATOM     23  C   UNL     1      -2.114  -5.001   1.114  0.00  0.00    +0.000 A 
ATOM     24  C   UNL     1      -3.410  -4.521   1.143  0.00  0.00    +0.005 A 
ENDBRANCH   2  19
BRANCH   5  25
ATOM     25  C   UNL     1      -6.948  -0.384  -0.932  0.00  0.00    +0.158 C 
BRANCH  25  26
ATOM     26  C   UNL     1      -7.459   0.161  -2.241  0.00  0.00    +0.099 A 
ATOM     27  N   UNL     1      -6.948  -0.097  -3.434  0.00  0.00    -0.349 N 
ATOM     28  C   UNL     1      -7.673   0.570  -4.357  0.00  0.00    +0.101 A 
ATOM     29  C   UNL     1      -8.640   1.241  -3.700  0.00  0.00    +0.101 A 
ATOM     30  N   UNL     1      -8.495   0.972  -2.386  0.00  0.00    -0.349 N 
ATOM     31  H   UNL     1      -9.052   1.315  -1.670  0.00  0.00    +0.166 HD
ATOM     32  H   UNL     1      -6.184  -0.666  -3.615  0.00  0.00    +0.166 HD
ENDBRANCH  25  26
ENDBRANCH   5  25
TORSDOF 6
