REMARK  Name = ZINC38815248
REMARK  8 active torsions:
REMARK  status: ('A' for Active; 'I' for Inactive)
REMARK    1  A    between atoms: C_1  and  C_2
REMARK    2  A    between atoms: C_2  and  C_3
REMARK    3  A    between atoms: C_2  and  C_4
REMARK    4  A    between atoms: C_2  and  C_5
REMARK    5  A    between atoms: C_8  and  C_11
REMARK    6  A    between atoms: N_12  and  N_13
REMARK    7  A    between atoms: C_14  and  C_16
REMARK    8  A    between atoms: C_19  and  C_22
REMARK                            x       y       z     vdW  Elec       q    Type
REMARK                         _______ _______ _______ _____ _____    ______ ____
ROOT
ATOM      1  N   UNL     1       4.588  -1.986  -6.094  0.00  0.00    -0.205 N 
ATOM      2  C   UNL     1       5.873  -1.646  -6.315  0.00  0.00    +0.263 C 
ATOM      3  O   UNL     1       6.462  -0.948  -5.516  0.00  0.00    -0.271 OA
ATOM      4  H   UNL     1       4.117  -2.543  -6.733  0.00  0.00    +0.177 HD
ENDROOT
BRANCH   2   5
ATOM      5  C   UNL     1       6.579  -2.133  -7.555  0.00  0.00    +0.240 C 
ATOM      6  C   UNL     1       7.095  -3.547  -7.357  0.00  0.00    +0.041 C 
ATOM      7  C   UNL     1       8.433  -3.424  -7.492  0.00  0.00    +0.098 C 
ATOM      8  N   UNL     1       8.766  -2.129  -7.742  0.00  0.00    -0.153 NA
ATOM      9  N   UNL     1       7.805  -1.353  -7.795  0.00  0.00    -0.170 NA
BRANCH   7  10
ATOM     10  C   UNL     1       9.398  -4.538  -7.383  0.00  0.00    +0.039 A 
ATOM     11  C   UNL     1      10.762  -4.513  -7.498  0.00  0.00    +0.018 A 
ATOM     12  C   UNL     1      11.461  -5.691  -7.357  0.00  0.00    +0.008 A 
ATOM     13  C   UNL     1      10.779  -6.839  -7.109  0.00  0.00    +0.046 A 
ATOM     14  S   UNL     1       9.089  -6.267  -7.060  0.00  0.00    -0.095 S 
ENDBRANCH   7  10
ENDBRANCH   2   5
BRANCH   1  16
ATOM     15  C   UNL     1       2.695  -1.860  -4.729  0.00  0.00    +0.138 C 
ATOM     16  N   UNL     1       3.932  -1.533  -4.942  0.00  0.00    -0.188 NA
BRANCH  15  20
ATOM     17  C   UNL     1       0.707  -0.490  -1.238  0.00  0.00    -0.042 A 
ATOM     18  C   UNL     1       0.032  -1.285  -2.147  0.00  0.00    +0.005 A 
ATOM     19  C   UNL     1       0.672  -1.734  -3.284  0.00  0.00    +0.010 A 
ATOM     20  C   UNL     1       2.004  -1.384  -3.516  0.00  0.00    -0.005 A 
ATOM     21  C   UNL     1       2.679  -0.581  -2.594  0.00  0.00    +0.010 A 
ATOM     22  C   UNL     1       2.025  -0.135  -1.464  0.00  0.00    +0.005 A 
BRANCH  17  24
ATOM     23  C   UNL     1      -0.019   1.526   0.010  0.00  0.00    +0.015 C 
ATOM     24  C   UNL     1       0.002  -0.004   0.002  0.00  0.00    -0.013 C 
ATOM     25  C   UNL     1       0.742  -0.511   1.242  0.00  0.00    +0.015 C 
ATOM     26  C   UNL     1      -1.433  -0.534   0.013  0.00  0.00    +0.015 C 
ENDBRANCH  17  24
ENDBRANCH  15  20
ENDBRANCH   1  16
TORSDOF 5
