REMARK  Name = ZINC20558348
REMARK  5 active torsions:
REMARK  status: ('A' for Active; 'I' for Inactive)
REMARK    1  A    between atoms: C_1  and  C_2
REMARK    2  A    between atoms: C_7  and  C_8
REMARK    3  A    between atoms: C_10  and  C_27
REMARK    4  A    between atoms: C_11  and  N_26
REMARK    5  A    between atoms: N_18  and  C_25
REMARK                            x       y       z     vdW  Elec       q    Type
REMARK                         _______ _______ _______ _____ _____    ______ ____
ROOT
ATOM      1  C   UNL     1      -5.174   0.229  -0.235  0.00  0.00    +0.118 C 
ATOM      2  C   UNL     1      -5.129  -1.273  -0.153  0.00  0.00    +0.099 C 
ATOM      3  C   UNL     1      -3.971  -1.905   0.163  0.00  0.00    +0.199 C 
ATOM      4  O   UNL     1      -2.845  -1.215   0.409  0.00  0.00    -0.439 OA
ATOM      5  C   UNL     1      -2.710   0.061  -0.040  0.00  0.00    +0.162 C 
ATOM      6  C   UNL     1      -3.781   0.783  -0.355  0.00  0.00    +0.141 C 
ATOM      7  S   UNL     1      -3.554   2.441  -0.930  0.00  0.00    +0.075 S 
ATOM      8  O   UNL     1      -4.566   3.234  -0.325  0.00  0.00    -0.150 OA
ATOM      9  O   UNL     1      -3.369   2.373  -2.337  0.00  0.00    -0.150 OA
ATOM     10  N   UNL     1      -2.101   2.920  -0.271  0.00  0.00    -0.206 N 
ATOM     11  C   UNL     1      -1.067   1.976  -0.257  0.00  0.00    +0.062 A 
ATOM     12  C   UNL     1      -1.339   0.610  -0.168  0.00  0.00    +0.042 A 
ATOM     13  C   UNL     1      -0.271  -0.296  -0.170  0.00  0.00    +0.013 A 
ATOM     14  C   UNL     1       1.026   0.160  -0.261  0.00  0.00    +0.001 A 
ATOM     15  C   UNL     1       1.287   1.516  -0.346  0.00  0.00    +0.002 A 
ATOM     16  C   UNL     1       0.245   2.422  -0.346  0.00  0.00    +0.025 A 
ATOM     17  C   UNL     1      -1.914   4.268   0.271  0.00  0.00    +0.157 C 
ENDROOT
BRANCH   1  24
ATOM     18  C   UNL     1      -7.502   1.925  -0.454  0.00  0.00    +0.044 C 
ATOM     19  C   UNL     1      -6.939   1.590   0.903  0.00  0.00    -0.046 A 
ATOM     20  C   UNL     1      -7.539   2.090   2.044  0.00  0.00    +0.003 A 
ATOM     21  C   UNL     1      -7.020   1.786   3.288  0.00  0.00    +0.000 A 
ATOM     22  C   UNL     1      -5.902   0.979   3.392  0.00  0.00    +0.000 A 
ATOM     23  C   UNL     1      -5.305   0.475   2.252  0.00  0.00    +0.005 A 
ATOM     24  C   UNL     1      -5.825   0.778   1.008  0.00  0.00    -0.030 A 
ENDBRANCH   1  24
BRANCH   3  25
ATOM     25  N   UNL     1      -3.949  -3.276   0.231  0.00  0.00    -0.328 N 
ATOM     26  H   UNL     1      -3.015  -3.799   0.486  0.00  0.00    +0.145 HD
ATOM     27  H   UNL     1      -4.865  -3.851   0.031  0.00  0.00    +0.145 HD
ENDBRANCH   3  25
BRANCH   2  28
ATOM     28  C   UNL     1      -6.312  -2.037  -0.409  0.00  0.00    +0.101 C 
ATOM     29  N   UNL     1      -7.252  -2.643  -0.612  0.00  0.00    -0.191 NA
ENDBRANCH   2  28
TORSDOF 3
