REMARK  Name = ZINC40795958
REMARK  8 active torsions:
REMARK  status: ('A' for Active; 'I' for Inactive)
REMARK    1  A    between atoms: C_1  and  C_2
REMARK    2  A    between atoms: C_2  and  C_3
REMARK    3  A    between atoms: C_2  and  N_4
REMARK    4  A    between atoms: C_5  and  C_7
REMARK    5  A    between atoms: C_11  and  N_12
REMARK    6  A    between atoms: C_13  and  C_15
REMARK    7  A    between atoms: C_15  and  C_27
REMARK    8  A    between atoms: N_18  and  C_26
REMARK                            x       y       z     vdW  Elec       q    Type
REMARK                         _______ _______ _______ _____ _____    ______ ____
ROOT
ATOM      1  N   UNL     1      -2.852  -3.319   1.766  0.00  0.00    -0.278 N 
ATOM      2  C   UNL     1      -3.492  -4.033   2.713  0.00  0.00    +0.243 C 
ATOM      3  O   UNL     1      -4.645  -4.368   2.544  0.00  0.00    -0.273 OA
ATOM      4  H   UNL     1      -1.930  -3.050   1.901  0.00  0.00    +0.155 HD
ENDROOT
BRANCH   2   5
ATOM      5  C   UNL     1      -2.775  -4.415   3.982  0.00  0.00    +0.170 C 
ATOM      6  C   UNL     1      -3.777  -4.846   5.020  0.00  0.00    +0.245 C 
ATOM      7  O   UNL     1      -4.867  -5.228   4.647  0.00  0.00    -0.273 OA
ATOM      8  N   UNL     1      -3.526  -4.830   6.325  0.00  0.00    -0.272 N 
ATOM      9  C   UNL     1      -2.389  -4.321   6.946  0.00  0.00    +0.049 A 
ATOM     10  C   UNL     1      -2.116  -4.680   8.262  0.00  0.00    +0.024 A 
ATOM     11  C   UNL     1      -0.990  -4.196   8.897  0.00  0.00    +0.002 A 
ATOM     12  C   UNL     1      -0.120  -3.350   8.233  0.00  0.00    +0.001 A 
ATOM     13  C   UNL     1      -0.380  -2.983   6.926  0.00  0.00    +0.016 A 
ATOM     14  C   UNL     1      -1.511  -3.462   6.286  0.00  0.00    +0.031 A 
ATOM     15  S   UNL     1      -1.861  -2.979   4.624  0.00  0.00    -0.098 S 
ATOM     16  C   UNL     1      -4.551  -5.406   7.200  0.00  0.00    +0.138 C 
ATOM     17  C   UNL     1      -1.799  -5.559   3.696  0.00  0.00    +0.043 C 
ENDBRANCH   2   5
BRANCH   1  22
ATOM     18  C   UNL     1      -3.019  -2.242  -0.474  0.00  0.00    +0.069 A 
ATOM     19  C   UNL     1      -3.919  -2.011  -1.591  0.00  0.00    -0.023 A 
ATOM     20  C   UNL     1      -5.150  -2.542  -1.427  0.00  0.00    -0.004 A 
ATOM     21  S   UNL     1      -5.095  -3.320   0.161  0.00  0.00    -0.077 S 
ATOM     22  C   UNL     1      -3.513  -2.967   0.598  0.00  0.00    +0.084 A 
ATOM     23  C   UNL     1      -6.294  -2.475  -2.391  0.00  0.00    +0.043 C 
ATOM     24  C   UNL     1      -5.984  -1.390  -3.433  0.00  0.00    +0.005 C 
ATOM     25  C   UNL     1      -4.557  -1.593  -3.950  0.00  0.00    +0.005 C 
ATOM     26  C   UNL     1      -3.550  -1.244  -2.852  0.00  0.00    +0.037 C 
BRANCH  18  28
ATOM     27  N   UNL     1      -1.372  -0.511   0.012  0.00  0.00    -0.309 N 
ATOM     28  C   UNL     1      -1.643  -1.734  -0.485  0.00  0.00    +0.247 C 
ATOM     29  O   UNL     1      -0.746  -2.417  -0.943  0.00  0.00    -0.270 OA
ATOM     30  H   UNL     1      -2.087   0.033   0.377  0.00  0.00    +0.149 HD
BRANCH  27  32
ATOM     31  C   UNL     1      -0.019   1.526   0.010  0.00  0.00    +0.027 C 
ATOM     32  C   UNL     1       0.002  -0.004   0.002  0.00  0.00    +0.067 C 
ATOM     33  C   UNL     1       0.742  -0.511   1.242  0.00  0.00    +0.027 C 
ENDBRANCH  27  32
ENDBRANCH  18  28
ENDBRANCH   1  22
TORSDOF 4
