REMARK  Name = ZINC03097994
REMARK  10 active torsions:
REMARK  status: ('A' for Active; 'I' for Inactive)
REMARK    1  A    between atoms: C_1  and  C_2
REMARK    2  A    between atoms: N_9  and  C_10
REMARK    3  A    between atoms: C_10  and  C_12
REMARK    4  A    between atoms: C_10  and  C_22
REMARK    5  A    between atoms: C_13  and  C_14
REMARK    6  A    between atoms: C_22  and  C_23
REMARK    7  A    between atoms: C_22  and  C_24
REMARK    8  A    between atoms: C_22  and  C_25
REMARK    9  A    between atoms: N_29  and  C_30
REMARK   10  A    between atoms: C_30  and  C_31
REMARK                            x       y       z     vdW  Elec       q    Type
REMARK                         _______ _______ _______ _____ _____    ______ ____
ROOT
ATOM      1  C   UNL     1      -1.287   6.027   0.111  0.00  0.00    +0.007 C 
ATOM      2  C   UNL     1       0.210   6.345   0.082  0.00  0.00    -0.014 C 
ATOM      3  C   UNL     1       0.831   5.761  -1.188  0.00  0.00    +0.006 C 
ATOM      4  C   UNL     1       0.621   4.245  -1.207  0.00  0.00    +0.033 C 
ATOM      5  C   UNL     1       1.268   3.624   0.026  0.00  0.00    +0.089 C 
ATOM      6  C   UNL     1       0.675   4.214   1.301  0.00  0.00    +0.033 C 
ATOM      7  C   UNL     1       0.885   5.730   1.310  0.00  0.00    +0.006 C 
ATOM      8  C   UNL     1       1.092   2.122   0.012  0.00  0.00    +0.090 C 
ATOM      9  N   UNL     1      -0.018   1.461   0.028  0.00  0.00    -0.327 N 
ATOM     10  N   UNL     1       2.372   1.610  -0.017  0.00  0.00    -0.287 N 
ATOM     11  C   UNL     1       3.281   2.593  -0.029  0.00  0.00    +0.139 C 
ATOM     12  S   UNL     1       4.971   2.322  -0.069  0.00  0.00    -0.018 S 
ATOM     13  N   UNL     1       2.722   3.817  -0.003  0.00  0.00    -0.287 N 
ATOM     14  H   UNL     1      -0.977   1.997   0.056  0.00  0.00    +0.148 HD
ATOM     15  H   UNL     1       2.529   0.522  -0.026  0.00  0.00    +0.155 HD
ENDROOT
BRANCH   9  16
ATOM     16  C   UNL     1       0.002  -0.004   0.010  0.00  0.00    +0.100 C 
BRANCH  16  17
ATOM     17  C   UNL     1      -0.740  -0.509  -1.230  0.00  0.00    -0.016 C 
ATOM     18  C   UNL     1      -0.053   0.027  -2.488  0.00  0.00    +0.013 C 
ATOM     19  C   UNL     1      -0.719  -2.038  -1.249  0.00  0.00    +0.013 C 
ATOM     20  C   UNL     1      -2.188  -0.018  -1.192  0.00  0.00    +0.013 C 
ENDBRANCH  16  17
BRANCH  16  21
ATOM     21  C   UNL     1      -0.674  -0.531   1.249  0.00  0.00    -0.004 C 
ATOM     22  C   UNL     1       0.025  -1.212   2.147  0.00  0.00    +0.007 C 
BRANCH  22  23
ATOM     23  C   UNL     1      -0.638  -1.729   3.362  0.00  0.00    -0.007 A 
ATOM     24  C   UNL     1      -1.999  -1.497   3.570  0.00  0.00    +0.011 A 
ATOM     25  C   UNL     1      -2.614  -1.987   4.704  0.00  0.00    +0.020 A 
ATOM     26  C   UNL     1      -1.882  -2.698   5.640  0.00  0.00    +0.042 A 
ATOM     27  C   UNL     1      -0.531  -2.926   5.443  0.00  0.00    +0.040 A 
ATOM     28  C   UNL     1       0.095  -2.446   4.310  0.00  0.00    +0.049 A 
ATOM     29 CL   UNL     1       1.789  -2.732   4.064  0.00  0.00    -0.083 Cl
ATOM     30 CL   UNL     1      -2.662  -3.305   7.067  0.00  0.00    -0.083 Cl
ENDBRANCH  22  23
ENDBRANCH  16  21
ENDBRANCH   9  16
BRANCH  13  31
ATOM     31  C   UNL     1       3.431   5.099  -0.003  0.00  0.00    +0.226 C 
BRANCH  31  32
ATOM     32  C   UNL     1       4.193   5.238   1.249  0.00  0.00    +0.082 C 
ATOM     33  N   UNL     1       4.781   5.346   2.215  0.00  0.00    -0.195 NA
ENDBRANCH  31  32
ENDBRANCH  13  31
TORSDOF 6
