REMARK  Name = ZINC20576243
REMARK  5 active torsions:
REMARK  status: ('A' for Active; 'I' for Inactive)
REMARK    1  A    between atoms: C_7  and  N_24
REMARK    2  A    between atoms: C_8  and  C_10
REMARK    3  A    between atoms: C_15  and  N_18
REMARK    4  A    between atoms: C_25  and  C_27
REMARK    5  A    between atoms: C_28  and  C_29
REMARK                            x       y       z     vdW  Elec       q    Type
REMARK                         _______ _______ _______ _____ _____    ______ ____
ROOT
ATOM      1  C   UNL     1      -1.175   1.760   0.505  0.00  0.00    +0.001 A 
ATOM      2  C   UNL     1      -1.045   1.766  -0.877  0.00  0.00    +0.004 A 
ATOM      3  C   UNL     1      -0.233   2.686  -1.504  0.00  0.00    +0.047 A 
ATOM      4  C   UNL     1       0.474   3.614  -0.748  0.00  0.00    +0.138 A 
ATOM      5  C   UNL     1       0.342   3.599   0.652  0.00  0.00    +0.042 A 
ATOM      6  C   UNL     1      -0.489   2.663   1.268  0.00  0.00    +0.013 A 
ATOM      7  C   UNL     1       1.201   4.683   1.145  0.00  0.00    +0.092 A 
ATOM      8  C   UNL     1       1.766   5.248   0.034  0.00  0.00    +0.212 A 
ATOM      9  O   UNL     1       1.327   4.606  -1.072  0.00  0.00    -0.448 OA
ENDROOT
BRANCH   8  10
ATOM     10  C   UNL     1       2.700   6.372   0.042  0.00  0.00    +0.284 C 
ATOM     11  O   UNL     1       3.889   6.174   0.209  0.00  0.00    -0.267 OA
ATOM     12  N   UNL     1       2.244   7.628  -0.136  0.00  0.00    -0.295 N 
ATOM     13  C   UNL     1       0.803   7.893  -0.243  0.00  0.00    +0.106 C 
ATOM     14  C   UNL     1       0.535   8.678  -1.526  0.00  0.00    +0.004 C 
ATOM     15  C   UNL     1       1.409   9.934  -1.544  0.00  0.00    -0.066 C 
ATOM     16  C   UNL     1       2.885   9.532  -1.521  0.00  0.00    +0.004 C 
ATOM     17  C   UNL     1       3.179   8.757  -0.232  0.00  0.00    +0.106 C 
BRANCH  15  18
ATOM     18  N   UNL     1       1.131  10.706  -2.763  0.00  0.00    +0.382 N 
ATOM     19  C   UNL     1       2.022  11.870  -2.863  0.00  0.00    -0.078 C 
ATOM     20  C   UNL     1       1.805  12.565  -4.209  0.00  0.00    -0.019 C 
ATOM     21  C   UNL     1       0.343  13.006  -4.320  0.00  0.00    -0.004 C 
ATOM     22  C   UNL     1      -0.565  11.783  -4.164  0.00  0.00    -0.019 C 
ATOM     23  C   UNL     1      -0.279  11.111  -2.819  0.00  0.00    -0.078 C 
ATOM     24  H   UNL     1       1.329  10.057  -3.628  0.00  0.00    -0.081 HD
ENDBRANCH  15  18
ENDBRANCH   8  10
BRANCH   7  25
ATOM     25  N   UNL     1       1.399   5.057   2.467  0.00  0.00    -0.278 N 
ATOM     26  C   UNL     1       1.409   4.123   3.438  0.00  0.00    +0.241 C 
ATOM     27  O   UNL     1       1.147   2.964   3.170  0.00  0.00    -0.270 OA
ATOM     28  H   UNL     1       1.548   6.117   2.722  0.00  0.00    +0.155 HD
BRANCH  26  29
ATOM     29  C   UNL     1       1.724   4.488   4.767  0.00  0.00    +0.068 C 
ATOM     30  C   UNL     1       1.734   3.546   5.745  0.00  0.00    +0.020 C 
BRANCH  30  31
ATOM     31  C   UNL     1       2.048   3.912   7.076  0.00  0.00    +0.012 A 
ATOM     32  C   UNL     1       2.114   3.113   8.212  0.00  0.00    +0.015 A 
ATOM     33  C   UNL     1       2.447   3.732   9.390  0.00  0.00    +0.008 A 
ATOM     34  C   UNL     1       2.691   5.069   9.392  0.00  0.00    +0.046 A 
ATOM     35  S   UNL     1       2.472   5.516   7.732  0.00  0.00    -0.097 S 
ENDBRANCH  30  31
ENDBRANCH  26  29
ENDBRANCH   7  25
TORSDOF 5
