REMARK  Name = ZINC38903440
REMARK  12 active torsions:
REMARK  status: ('A' for Active; 'I' for Inactive)
REMARK    1  A    between atoms: C_1  and  C_2
REMARK    2  A    between atoms: C_5  and  C_8
REMARK    3  A    between atoms: C_8  and  C_10
REMARK    4  A    between atoms: C_8  and  N_11
REMARK    5  A    between atoms: C_12  and  C_14
REMARK    6  A    between atoms: N_19  and  C_21
REMARK    7  A    between atoms: C_21  and  C_22
REMARK    8  A    between atoms: C_24  and  C_27
REMARK    9  A    between atoms: C_30  and  C_33
REMARK   10  A    between atoms: C_33  and  C_34
REMARK   11  A    between atoms: C_33  and  C_35
REMARK   12  A    between atoms: C_33  and  C_36
REMARK                            x       y       z     vdW  Elec       q    Type
REMARK                         _______ _______ _______ _____ _____    ______ ____
ROOT
ATOM      1  C   UNL     1      -2.261  -6.529   2.025  0.00  0.00    +0.058 C 
ATOM      2  C   UNL     1      -3.471  -5.603   2.175  0.00  0.00    +0.009 C 
ATOM      3  C   UNL     1      -4.418  -6.181   3.230  0.00  0.00    -0.018 C 
ATOM      4  C   UNL     1      -4.821  -7.600   2.822  0.00  0.00    -0.078 C 
ATOM      5  N   UNL     1      -3.624  -8.443   2.722  0.00  0.00    +0.386 N 
ATOM      6  C   UNL     1      -2.743  -7.936   1.663  0.00  0.00    -0.065 C 
ATOM      7  H   UNL     1      -3.130  -8.431   3.602  0.00  0.00    -0.081 HD
ENDROOT
BRANCH   1   9
ATOM      8  N   UNL     1      -0.816  -4.781   1.039  0.00  0.00    -0.309 N 
ATOM      9  C   UNL     1      -1.361  -6.009   0.935  0.00  0.00    +0.215 C 
ATOM     10  O   UNL     1      -1.125  -6.696  -0.037  0.00  0.00    -0.276 OA
ATOM     11  H   UNL     1      -1.004  -4.231   1.816  0.00  0.00    +0.149 HD
BRANCH   8  12
ATOM     12  C   UNL     1       0.059  -4.275  -0.021  0.00  0.00    +0.100 C 
ATOM     13  C   UNL     1       1.488  -4.768   0.218  0.00  0.00    +0.033 C 
BRANCH  12  18
ATOM     14  C   UNL     1      -0.018   1.503   0.010  0.00  0.00    +0.044 C 
ATOM     15  C   UNL     1       0.002  -0.004   0.002  0.00  0.00    -0.050 A 
ATOM     16  C   UNL     1       0.006  -0.689  -1.199  0.00  0.00    +0.004 A 
ATOM     17  C   UNL     1       0.025  -2.071  -1.206  0.00  0.00    +0.006 A 
ATOM     18  C   UNL     1       0.040  -2.768  -0.013  0.00  0.00    -0.027 A 
ATOM     19  C   UNL     1       0.037  -2.084   1.188  0.00  0.00    +0.006 A 
ATOM     20  C   UNL     1       0.023  -0.702   1.195  0.00  0.00    +0.004 A 
ENDBRANCH  12  18
ENDBRANCH   8  12
ENDBRANCH   1   9
BRANCH   5  21
ATOM     21  C   UNL     1      -4.022  -9.822   2.406  0.00  0.00    +0.022 C 
BRANCH  21  22
ATOM     22  C   UNL     1      -4.816 -10.390   3.554  0.00  0.00    +0.211 A 
ATOM     23  N   UNL     1      -6.109 -10.323   3.692  0.00  0.00    -0.193 NA
ATOM     24  C   UNL     1      -6.483 -10.934   4.831  0.00  0.00    +0.202 A 
ATOM     25  N   UNL     1      -5.413 -11.398   5.428  0.00  0.00    -0.056 NA
ATOM     26  O   UNL     1      -4.311 -11.054   4.602  0.00  0.00    -0.340 OA
BRANCH  24  27
ATOM     27  C   UNL     1      -7.876 -11.062   5.328  0.00  0.00    +0.022 A 
ATOM     28  C   UNL     1      -8.932 -10.527   4.593  0.00  0.00    +0.012 A 
ATOM     29  C   UNL     1     -10.225 -10.648   5.060  0.00  0.00    +0.005 A 
ATOM     30  C   UNL     1     -10.474 -11.299   6.255  0.00  0.00    -0.042 A 
ATOM     31  C   UNL     1      -9.429 -11.831   6.989  0.00  0.00    +0.005 A 
ATOM     32  C   UNL     1      -8.133 -11.721   6.528  0.00  0.00    +0.012 A 
BRANCH  30  33
ATOM     33  C   UNL     1     -11.888 -11.427   6.760  0.00  0.00    -0.013 C 
ATOM     34  C   UNL     1     -12.727 -12.196   5.738  0.00  0.00    +0.015 C 
ATOM     35  C   UNL     1     -11.887 -12.182   8.091  0.00  0.00    +0.015 C 
ATOM     36  C   UNL     1     -12.485 -10.033   6.965  0.00  0.00    +0.015 C 
ENDBRANCH  30  33
ENDBRANCH  24  27
ENDBRANCH  21  22
ENDBRANCH   5  21
TORSDOF 7
