REMARK  Name = ZINC08072342
REMARK  5 active torsions:
REMARK  status: ('A' for Active; 'I' for Inactive)
REMARK    1  A    between atoms: C_6  and  N_7
REMARK    2  A    between atoms: C_8  and  C_10
REMARK    3  A    between atoms: C_10  and  S_11
REMARK    4  A    between atoms: S_11  and  C_12
REMARK    5  A    between atoms: N_16  and  C_17
REMARK                            x       y       z     vdW  Elec       q    Type
REMARK                         _______ _______ _______ _____ _____    ______ ____
ROOT
ATOM      1  N   UNL     1      -2.428   1.037   0.018  0.00  0.00    -0.285 N 
ATOM      2  C   UNL     1      -3.601   1.691   0.129  0.00  0.00    +0.227 C 
ATOM      3  O   UNL     1      -3.621   2.904   0.137  0.00  0.00    -0.275 OA
ATOM      4  H   UNL     1      -2.417   0.071  -0.065  0.00  0.00    +0.155 HD
ENDROOT
BRANCH   1  10
ATOM      5  C   UNL     1      -0.149   1.309  -0.734  0.00  0.00    +0.027 A 
ATOM      6  C   UNL     1       1.043   2.010  -0.724  0.00  0.00    +0.051 A 
ATOM      7  C   UNL     1       1.164   3.162   0.035  0.00  0.00    +0.167 A 
ATOM      8  C   UNL     1       0.084   3.615   0.791  0.00  0.00    +0.169 A 
ATOM      9  C   UNL     1      -1.108   2.911   0.781  0.00  0.00    +0.072 A 
ATOM     10  C   UNL     1      -1.224   1.754   0.023  0.00  0.00    +0.037 A 
ATOM     11  O   UNL     1       0.455   4.758   1.441  0.00  0.00    -0.447 OA
ATOM     12  C   UNL     1       1.635   5.214   0.764  0.00  0.00    +0.254 C 
ATOM     13  O   UNL     1       2.212   4.022   0.213  0.00  0.00    -0.448 OA
ATOM     14  C   UNL     1       2.598   5.864   1.752  0.00  0.00    +0.093 C 
ATOM     15  C   UNL     1       1.951   7.116   2.350  0.00  0.00    +0.008 C 
ATOM     16  C   UNL     1       1.606   8.096   1.227  0.00  0.00    +0.000 C 
ATOM     17  C   UNL     1       0.622   7.438   0.258  0.00  0.00    +0.008 C 
ATOM     18  C   UNL     1       1.265   6.188  -0.348  0.00  0.00    +0.093 C 
ENDBRANCH   1  10
BRANCH   2  19
ATOM     19  C   UNL     1      -4.888   0.915   0.243  0.00  0.00    +0.173 C 
BRANCH  19  20
ATOM     20  S   UNL     1      -6.278   2.068   0.376  0.00  0.00    -0.075 S 
BRANCH  20  21
ATOM     21  C   UNL     1      -7.613   0.925   0.493  0.00  0.00    +0.210 A 
ATOM     22  N   UNL     1      -7.523  -0.387   0.472  0.00  0.00    -0.101 NA
ATOM     23  N   UNL     1      -8.686  -0.920   0.582  0.00  0.00    -0.022 NA
ATOM     24  N   UNL     1      -9.591  -0.006   0.670  0.00  0.00    -0.043 NA
ATOM     25  N   UNL     1      -8.926   1.232   0.615  0.00  0.00    -0.217 N 
BRANCH  25  26
ATOM     26  C   UNL     1      -9.526   2.567   0.677  0.00  0.00    +0.112 C 
ATOM     27  C   UNL     1     -10.329   2.725   1.985  0.00  0.00    +0.027 C 
ATOM     28  C   UNL     1     -11.562   3.568   1.572  0.00  0.00    +0.002 C 
ATOM     29  C   UNL     1     -11.901   3.014   0.166  0.00  0.00    +0.002 C 
ATOM     30  C   UNL     1     -10.525   2.751  -0.479  0.00  0.00    +0.027 C 
ENDBRANCH  25  26
ENDBRANCH  20  21
ENDBRANCH  19  20
ENDBRANCH   2  19
TORSDOF 5
