REMARK  Name = ZINC35036959
REMARK  10 active torsions:
REMARK  status: ('A' for Active; 'I' for Inactive)
REMARK    1  A    between atoms: C_1  and  C_2
REMARK    2  A    between atoms: C_2  and  C_4
REMARK    3  A    between atoms: C_2  and  N_21
REMARK    4  A    between atoms: N_14  and  C_15
REMARK    5  A    between atoms: N_21  and  C_22
REMARK    6  A    between atoms: C_22  and  C_23
REMARK    7  A    between atoms: C_23  and  N_24
REMARK    8  A    between atoms: N_24  and  C_25
REMARK    9  A    between atoms: N_24  and  C_26
REMARK   10  A    between atoms: C_27  and  C_29
REMARK                            x       y       z     vdW  Elec       q    Type
REMARK                         _______ _______ _______ _____ _____    ______ ____
ROOT
ATOM      1  C   UNL     1       0.572   0.413  -0.096  0.00  0.00    +0.036 C 
ATOM      2  C   UNL     1       0.679  -1.110  -0.196  0.00  0.00    +0.140 C 
ENDROOT
BRANCH   2   3
ATOM      3  C   UNL     1       1.442  -1.480  -1.442  0.00  0.00    +0.138 A 
ATOM      4  N   UNL     1       2.614  -0.955  -1.625  0.00  0.00    -0.231 NA
ATOM      5  C   UNL     1       3.358  -1.241  -2.722  0.00  0.00    +0.078 A 
ATOM      6  C   UNL     1       4.620  -0.676  -2.919  0.00  0.00    +0.028 A 
ATOM      7  C   UNL     1       5.341  -0.995  -4.048  0.00  0.00    +0.002 A 
ATOM      8  C   UNL     1       4.830  -1.872  -4.995  0.00  0.00    +0.001 A 
ATOM      9  C   UNL     1       3.587  -2.442  -4.823  0.00  0.00    +0.015 A 
ATOM     10  C   UNL     1       2.841  -2.134  -3.687  0.00  0.00    +0.065 A 
ATOM     11  C   UNL     1       1.511  -2.712  -3.450  0.00  0.00    +0.266 A 
ATOM     12  O   UNL     1       1.008  -3.487  -4.243  0.00  0.00    -0.267 OA
ATOM     13  N   UNL     1       0.869  -2.353  -2.314  0.00  0.00    -0.263 N 
BRANCH  13  14
ATOM     14  C   UNL     1      -0.400  -2.879  -2.038  0.00  0.00    +0.051 A 
ATOM     15  C   UNL     1      -1.517  -2.055  -2.068  0.00  0.00    +0.026 A 
ATOM     16  C   UNL     1      -2.766  -2.577  -1.796  0.00  0.00    +0.002 A 
ATOM     17  C   UNL     1      -2.905  -3.919  -1.493  0.00  0.00    +0.000 A 
ATOM     18  C   UNL     1      -1.794  -4.742  -1.462  0.00  0.00    +0.002 A 
ATOM     19  C   UNL     1      -0.543  -4.227  -1.739  0.00  0.00    +0.026 A 
ENDBRANCH  13  14
ENDBRANCH   2   3
BRANCH   2  20
ATOM     20  N   UNL     1       1.383  -1.629   0.980  0.00  0.00    -0.290 N 
ATOM     21  C   UNL     1       0.719  -2.367   1.891  0.00  0.00    +0.247 C 
ATOM     22  O   UNL     1       1.285  -2.739   2.901  0.00  0.00    -0.270 OA
BRANCH  21  23
ATOM     23  C   UNL     1      -0.697  -2.725   1.664  0.00  0.00    +0.038 A 
ATOM     24  C   UNL     1      -1.591  -1.757   1.172  0.00  0.00    +0.013 A 
ATOM     25  C   UNL     1      -2.896  -2.061   0.955  0.00  0.00    +0.009 A 
ATOM     26  C   UNL     1      -3.370  -3.359   1.222  0.00  0.00    -0.018 A 
ATOM     27  C   UNL     1      -4.716  -3.697   1.004  0.00  0.00    +0.008 A 
ATOM     28  C   UNL     1      -5.145  -4.961   1.271  0.00  0.00    +0.001 A 
ATOM     29  C   UNL     1      -4.269  -5.929   1.759  0.00  0.00    +0.001 A 
ATOM     30  C   UNL     1      -2.959  -5.639   1.982  0.00  0.00    +0.008 A 
ATOM     31  C   UNL     1      -2.478  -4.344   1.717  0.00  0.00    -0.017 A 
ATOM     32  C   UNL     1      -1.131  -4.013   1.930  0.00  0.00    +0.021 A 
ENDBRANCH  21  23
BRANCH  20  33
ATOM     33  C   UNL     1       2.808  -1.345   1.165  0.00  0.00    +0.090 C 
BRANCH  33  34
ATOM     34  C   UNL     1       2.971  -0.131   2.083  0.00  0.00    -0.060 C 
BRANCH  34  35
ATOM     35  N   UNL     1       4.400   0.153   2.268  0.00  0.00    +0.377 N 
ATOM     36  C   UNL     1       4.990   0.555   0.984  0.00  0.00    -0.097 C 
ATOM     37  C   UNL     1       4.560   1.241   3.242  0.00  0.00    -0.097 C 
ATOM     38  H   UNL     1       4.867  -0.674   2.608  0.00  0.00    -0.083 HD
ENDBRANCH  34  35
ENDBRANCH  33  34
ENDBRANCH  20  33
ENDBRANCH   2  20
TORSDOF 7
