REMARK  Name = ZINC15071469
REMARK  9 active torsions:
REMARK  status: ('A' for Active; 'I' for Inactive)
REMARK    1  A    between atoms: C_1  and  N_2
REMARK    2  A    between atoms: C_5  and  C_7
REMARK    3  A    between atoms: N_9  and  C_10
REMARK    4  A    between atoms: N_9  and  C_11
REMARK    5  A    between atoms: C_11  and  C_13
REMARK    6  A    between atoms: C_11  and  C_20
REMARK    7  A    between atoms: C_13  and  C_14
REMARK    8  A    between atoms: C_25  and  C_26
REMARK    9  A    between atoms: C_25  and  N_70
REMARK                            x       y       z     vdW  Elec       q    Type
REMARK                         _______ _______ _______ _____ _____    ______ ____
ROOT
ATOM      1  C   UNL     1      -0.276   1.845   0.899  0.00  0.00    +0.006 C 
ATOM      2  C   UNL     1       0.485   1.081  -0.188  0.00  0.00    -0.013 C 
ATOM      3  C   UNL     1       0.070   1.610  -1.563  0.00  0.00    -0.078 C 
ATOM      4  C   UNL     1      -2.130   2.198  -0.736  0.00  0.00    -0.078 C 
ATOM      5  C   UNL     1      -1.781   1.687   0.663  0.00  0.00    -0.013 C 
ATOM      6  N   UNL     1      -1.384   1.406  -1.736  0.00  0.00    +0.383 N 
ATOM      7  H   UNL     1      -1.599   0.411  -1.601  0.00  0.00    -0.081 HD
ENDROOT
BRANCH   1   8
ATOM      8  C   UNL     1       0.090   1.279   2.273  0.00  0.00    +0.083 C 
BRANCH   8  11
ATOM      9  C   UNL     1       2.294   0.333   2.703  0.00  0.00    +0.267 C 
ATOM     10  O   UNL     1       1.805  -0.777   2.614  0.00  0.00    -0.268 OA
ATOM     11  N   UNL     1       1.532   1.424   2.493  0.00  0.00    -0.296 N 
ATOM     12  C   UNL     1       2.144   2.755   2.483  0.00  0.00    +0.132 C 
BRANCH   9  17
ATOM     13  C   UNL     1       6.590   2.407   3.863  0.00  0.00    +0.172 C 
ATOM     14  N   UNL     1       5.592   1.382   3.546  0.00  0.00    -0.274 N 
ATOM     15  C   UNL     1       5.839   0.056   3.487  0.00  0.00    +0.109 A 
ATOM     16  C   UNL     1       4.673  -0.556   3.174  0.00  0.00    +0.054 A 
ATOM     17  C   UNL     1       3.724   0.485   3.042  0.00  0.00    +0.147 A 
ATOM     18  N   UNL     1       4.356   1.616   3.285  0.00  0.00    -0.167 NA
ENDBRANCH   9  17
ENDBRANCH   8  11
BRANCH   8  19
ATOM     19  C   UNL     1      -0.670   2.043   3.358  0.00  0.00    +0.058 C 
BRANCH  19  20
ATOM     20  C   UNL     1      -0.406   1.408   4.699  0.00  0.00    -0.046 A 
ATOM     21  C   UNL     1      -1.232   0.401   5.162  0.00  0.00    +0.004 A 
ATOM     22  C   UNL     1      -0.986  -0.185   6.390  0.00  0.00    +0.000 A 
ATOM     23  C   UNL     1       0.080   0.244   7.159  0.00  0.00    +0.000 A 
ATOM     24  C   UNL     1       0.902   1.255   6.699  0.00  0.00    +0.000 A 
ATOM     25  C   UNL     1       0.659   1.837   5.469  0.00  0.00    +0.004 A 
ENDBRANCH  19  20
ENDBRANCH   8  19
ENDBRANCH   1   8
BRANCH   6  26
ATOM     26  C   UNL     1      -1.789   1.804  -3.100  0.00  0.00    -0.024 C 
BRANCH  26  27
ATOM     27  C   UNL     1      -3.220   1.385  -3.323  0.00  0.00    +0.009 A 
ATOM     28  C   UNL     1      -4.306   2.167  -3.163  0.00  0.00    +0.021 A 
ATOM     29  C   UNL     1      -5.439   1.387  -3.474  0.00  0.00    +0.020 A 
ATOM     30  C   UNL     1      -5.003   0.157  -3.812  0.00  0.00    +0.093 A 
ATOM     31  N   UNL     1      -3.639   0.149  -3.727  0.00  0.00    -0.307 N 
ATOM     32  C   UNL     1      -2.811  -0.943  -4.003  0.00  0.00    +0.138 A 
ATOM     33  C   UNL     1      -3.373  -2.148  -4.407  0.00  0.00    +0.047 A 
ATOM     34  C   UNL     1      -2.542  -3.220  -4.679  0.00  0.00    +0.005 A 
ATOM     35  C   UNL     1      -1.171  -3.049  -4.536  0.00  0.00    +0.020 A 
ATOM     36  C   UNL     1      -0.682  -1.823  -4.130  0.00  0.00    +0.113 A 
ATOM     37  N   UNL     1      -1.499  -0.817  -3.884  0.00  0.00    -0.238 NA
ENDBRANCH  26  27
ENDBRANCH   6  26
TORSDOF 7
