REMARK  Name = ZINC62495340
REMARK  8 active torsions:
REMARK  status: ('A' for Active; 'I' for Inactive)
REMARK    1  A    between atoms: C_1  and  C_2
REMARK    2  A    between atoms: C_2  and  C_3
REMARK    3  A    between atoms: C_2  and  C_4
REMARK    4  A    between atoms: C_4  and  O_5
REMARK    5  A    between atoms: O_5  and  C_6
REMARK    6  A    between atoms: C_9  and  C_12
REMARK    7  A    between atoms: C_12  and  C_13
REMARK    8  A    between atoms: C_21  and  N_25
REMARK                            x       y       z     vdW  Elec       q    Type
REMARK                         _______ _______ _______ _____ _____    ______ ____
ROOT
ATOM      1  C   UNL     1      -6.907  -4.697  -1.583  0.00  0.00    +0.263 C 
ATOM      2  C   UNL     1      -8.295  -5.285  -1.581  0.00  0.00    +0.258 C 
ATOM      3  O   UNL     1      -9.265  -4.557  -1.568  0.00  0.00    -0.271 OA
ATOM      4  N   UNL     1      -8.454  -6.625  -1.592  0.00  0.00    -0.280 N 
ATOM      5  C   UNL     1      -7.325  -7.448  -1.734  0.00  0.00    +0.076 A 
ATOM      6  C   UNL     1      -7.419  -8.814  -1.523  0.00  0.00    +0.029 A 
ATOM      7  C   UNL     1      -6.297  -9.611  -1.652  0.00  0.00    +0.025 A 
ATOM      8  C   UNL     1      -5.075  -9.045  -1.993  0.00  0.00    +0.028 A 
ATOM      9  C   UNL     1      -4.979  -7.676  -2.210  0.00  0.00    +0.070 A 
ATOM     10  C   UNL     1      -6.103  -6.878  -2.087  0.00  0.00    +0.144 A 
ATOM     11  O   UNL     1      -6.028  -5.543  -2.328  0.00  0.00    -0.477 OA
ATOM     12  H   UNL     1      -9.338  -7.016  -1.503  0.00  0.00    +0.155 HD
ENDROOT
BRANCH   8  13
ATOM     13  N   UNL     1      -3.941  -9.853  -2.116  0.00  0.00    -0.358 N 
ATOM     14  H   UNL     1      -4.008 -10.809  -1.964  0.00  0.00    +0.142 HD
ATOM     15  H   UNL     1      -3.087  -9.458  -2.354  0.00  0.00    +0.142 HD
ENDBRANCH   8  13
BRANCH   1  16
ATOM     16  C   UNL     1      -6.402  -4.579  -0.144  0.00  0.00    +0.089 C 
BRANCH  16  20
ATOM     17  C   UNL     1      -2.620  -2.590  -0.120  0.00  0.00    +0.121 A 
ATOM     18  C   UNL     1      -3.792  -1.855  -0.015  0.00  0.00    +0.046 A 
ATOM     19  C   UNL     1      -5.013  -2.501  -0.023  0.00  0.00    +0.007 A 
ATOM     20  C   UNL     1      -5.068  -3.878  -0.135  0.00  0.00    -0.043 A 
ATOM     21  C   UNL     1      -3.901  -4.612  -0.240  0.00  0.00    +0.007 A 
ATOM     22  C   UNL     1      -2.678  -3.971  -0.238  0.00  0.00    +0.046 A 
BRANCH  17  23
ATOM     23  O   UNL     1      -1.417  -1.957  -0.112  0.00  0.00    -0.492 OA
BRANCH  23  24
ATOM     24  C   UNL     1      -1.433  -0.534   0.013  0.00  0.00    +0.232 C 
BRANCH  24  26
ATOM     25  C   UNL     1      -0.019   1.526   0.010  0.00  0.00    +0.010 C 
ATOM     26  C   UNL     1       0.002  -0.004   0.002  0.00  0.00    +0.020 C 
ATOM     27  C   UNL     1       0.742  -0.511   1.242  0.00  0.00    +0.010 C 
ENDBRANCH  24  26
ENDBRANCH  23  24
ENDBRANCH  17  23
ENDBRANCH  16  20
ENDBRANCH   1  16
TORSDOF 6
