REMARK  Name = ZINC63886475
REMARK  13 active torsions:
REMARK  status: ('A' for Active; 'I' for Inactive)
REMARK    1  A    between atoms: C_1  and  C_2
REMARK    2  A    between atoms: C_2  and  O_3
REMARK    3  A    between atoms: O_3  and  C_4
REMARK    4  A    between atoms: C_4  and  C_6
REMARK    5  A    between atoms: C_8  and  N_19
REMARK    6  A    between atoms: C_15  and  C_18
REMARK    7  A    between atoms: C_20  and  C_22
REMARK    8  A    between atoms: C_22  and  C_24
REMARK    9  A    between atoms: C_22  and  O_25
REMARK   10  A    between atoms: O_25  and  C_26
REMARK   11  A    between atoms: C_26  and  C_28
REMARK   12  A    between atoms: C_28  and  C_29
REMARK   13  A    between atoms: C_29  and  C_30
REMARK                            x       y       z     vdW  Elec       q    Type
REMARK                         _______ _______ _______ _____ _____    ______ ____
ROOT
ATOM      1  N   UNL     1       3.478  -1.691   3.871  0.00  0.00    -0.299 N 
ATOM      2  C   UNL     1       4.707  -2.136   4.202  0.00  0.00    +0.254 C 
ATOM      3  O   UNL     1       5.397  -2.685   3.371  0.00  0.00    -0.272 OA
ATOM      4  H   UNL     1       2.926  -1.251   4.536  0.00  0.00    +0.150 HD
ENDROOT
BRANCH   1   6
ATOM      5  C   UNL     1       1.516  -2.381   2.500  0.00  0.00    +0.155 C 
ATOM      6  C   UNL     1       2.978  -1.872   2.506  0.00  0.00    +0.153 C 
ATOM      7  S   UNL     1       3.778  -3.308   1.675  0.00  0.00    -0.106 S 
ATOM      8  C   UNL     1       2.535  -4.531   2.021  0.00  0.00    -0.012 C 
ATOM      9  C   UNL     1       1.454  -3.886   2.436  0.00  0.00    -0.044 C 
ATOM     10  C   UNL     1       0.191  -4.647   2.834  0.00  0.00    +0.033 C 
ATOM     11  C   UNL     1       0.550  -6.108   3.103  0.00  0.00    +0.008 C 
ATOM     12  C   UNL     1       1.320  -6.673   1.905  0.00  0.00    -0.009 C 
ATOM     13  C   UNL     1       2.698  -6.017   1.865  0.00  0.00    +0.045 C 
ATOM     14  C   UNL     1       1.471  -8.188   2.059  0.00  0.00    +0.008 C 
BRANCH   5  15
ATOM     15  C   UNL     1       0.801  -1.808   1.304  0.00  0.00    +0.317 C 
ATOM     16  O   UNL     1       0.324  -2.546   0.475  0.00  0.00    -0.250 OA
BRANCH  15  17
ATOM     17  O   UNL     1       0.693  -0.477   1.160  0.00  0.00    -0.464 OA
BRANCH  17  19
ATOM     18  C   UNL     1      -0.019   1.526   0.010  0.00  0.00    +0.048 C 
ATOM     19  C   UNL     1       0.002  -0.004   0.002  0.00  0.00    +0.229 C 
ENDBRANCH  17  19
ENDBRANCH  15  17
ENDBRANCH   5  15
ENDBRANCH   1   6
BRANCH   2  20
ATOM     20  C   UNL     1       5.222  -1.950   5.606  0.00  0.00    +0.258 C 
ATOM     21  C   UNL     1       4.365  -2.766   6.576  0.00  0.00    +0.062 C 
BRANCH  20  22
ATOM     22  O   UNL     1       6.578  -2.394   5.679  0.00  0.00    -0.452 OA
BRANCH  22  23
ATOM     23  C   UNL     1       7.372  -1.784   6.573  0.00  0.00    +0.308 C 
ATOM     24  O   UNL     1       6.931  -0.903   7.271  0.00  0.00    -0.251 OA
BRANCH  23  25
ATOM     25  C   UNL     1       8.815  -2.200   6.706  0.00  0.00    +0.125 C 
BRANCH  25  26
ATOM     26  C   UNL     1       9.491  -1.354   7.787  0.00  0.00    +0.044 C 
BRANCH  26  27
ATOM     27  C   UNL     1      10.934  -1.770   7.921  0.00  0.00    -0.041 C 
ATOM     28  C   UNL     1      12.003  -1.198   7.321  0.00  0.00    -0.001 A 
ATOM     29  C   UNL     1      12.138  -0.063   6.400  0.00  0.00    +0.010 A 
ATOM     30  C   UNL     1      13.369   0.280   5.959  0.00  0.00    +0.001 A 
ATOM     31  C   UNL     1      14.517  -0.419   6.357  0.00  0.00    +0.002 A 
ATOM     32  C   UNL     1      14.473  -1.472   7.201  0.00  0.00    +0.026 A 
ATOM     33  C   UNL     1      13.230  -1.920   7.728  0.00  0.00    +0.043 A 
ATOM     34  N   UNL     1      12.931  -2.899   8.546  0.00  0.00    -0.380 N 
ATOM     35  C   UNL     1      11.479  -2.905   8.757  0.00  0.00    +0.144 C 
ATOM     36  H   UNL     1      13.564  -3.514   8.949  0.00  0.00    +0.160 HD
ENDBRANCH  26  27
ENDBRANCH  25  26
ENDBRANCH  23  25
ENDBRANCH  22  23
ENDBRANCH  20  22
ENDBRANCH   2  20
TORSDOF 10
