REMARK  Name = ZINC12213700
REMARK  12 active torsions:
REMARK  status: ('A' for Active; 'I' for Inactive)
REMARK    1  A    between atoms: C_1  and  C_2
REMARK    2  A    between atoms: C_2  and  C_3
REMARK    3  A    between atoms: C_2  and  C_4
REMARK    4  A    between atoms: C_4  and  C_5
REMARK    5  A    between atoms: C_5  and  C_19
REMARK    6  A    between atoms: N_8  and  C_12
REMARK    7  A    between atoms: C_12  and  C_13
REMARK    8  A    between atoms: C_13  and  C_14
REMARK    9  A    between atoms: C_24  and  C_25
REMARK   10  A    between atoms: C_24  and  N_68
REMARK   11  A    between atoms: C_30  and  O_31
REMARK   12  A    between atoms: O_31  and  C_32
REMARK                            x       y       z     vdW  Elec       q    Type
REMARK                         _______ _______ _______ _____ _____    ______ ____
ROOT
ATOM      1  C   UNL     1      -0.742   1.475  -0.106  0.00  0.00    +0.115 C 
ATOM      2  C   UNL     1       0.674   1.859   0.274  0.00  0.00    +0.247 C 
ATOM      3  O   UNL     1       1.129   2.978   0.373  0.00  0.00    -0.273 OA
ATOM      4  N   UNL     1       1.324   0.696   0.480  0.00  0.00    -0.224 N 
ATOM      5  C   UNL     1       0.523  -0.358   0.284  0.00  0.00    +0.309 C 
ATOM      6  O   UNL     1       0.883  -1.512   0.409  0.00  0.00    -0.252 OA
ATOM      7  N   UNL     1      -0.724   0.003  -0.067  0.00  0.00    -0.285 N 
ATOM      8  H   UNL     1      -1.467  -0.591  -0.257  0.00  0.00    +0.151 HD
ENDROOT
BRANCH   1   9
ATOM      9  C   UNL     1      -1.741   2.029   0.912  0.00  0.00    +0.018 C 
ATOM     10  C   UNL     1      -1.816   3.552   0.779  0.00  0.00    -0.013 C 
ATOM     11  C   UNL     1      -2.769   4.105   1.841  0.00  0.00    -0.078 C 
ATOM     12  C   UNL     1      -2.252   2.276   3.343  0.00  0.00    -0.078 C 
ATOM     13  C   UNL     1      -1.282   1.668   2.328  0.00  0.00    -0.013 C 
ATOM     14  N   UNL     1      -2.259   3.745   3.181  0.00  0.00    +0.382 N 
ATOM     15  H   UNL     1      -1.298   4.095   3.276  0.00  0.00    -0.081 HD
BRANCH  14  16
ATOM     16  C   UNL     1      -3.101   4.364   4.225  0.00  0.00    -0.039 C 
BRANCH  16  17
ATOM     17  C   UNL     1      -2.917   5.859   4.173  0.00  0.00    -0.022 A 
ATOM     18  C   UNL     1      -2.065   6.482   5.066  0.00  0.00    +0.005 A 
ATOM     19  C   UNL     1      -1.892   7.853   5.016  0.00  0.00    +0.000 A 
ATOM     20  C   UNL     1      -2.578   8.605   4.080  0.00  0.00    +0.004 A 
ATOM     21  C   UNL     1      -3.434   7.988   3.189  0.00  0.00    +0.046 A 
ATOM     22  C   UNL     1      -3.606   6.612   3.234  0.00  0.00    +0.121 A 
BRANCH  22  23
ATOM     23  O   UNL     1      -4.448   6.002   2.359  0.00  0.00    -0.495 OA
ATOM     24  C   UNL     1      -5.125   6.840   1.419  0.00  0.00    +0.277 C 
ENDBRANCH  22  23
ENDBRANCH  16  17
ENDBRANCH  14  16
ENDBRANCH   1   9
BRANCH   1  25
ATOM     25  C   UNL     1      -1.075   1.973  -1.514  0.00  0.00    +0.038 C 
BRANCH  25  27
ATOM     26  C   UNL     1      -0.072  -0.006  -2.664  0.00  0.00    +0.007 C 
ATOM     27  C   UNL     1       0.012   1.511  -2.488  0.00  0.00    -0.015 C 
ATOM     28  C   UNL     1      -0.194   2.194  -3.842  0.00  0.00    +0.007 C 
ENDBRANCH  25  27
ENDBRANCH   1  25
BRANCH   4  29
ATOM     29  C   UNL     1       2.733   0.598   0.868  0.00  0.00    +0.123 C 
BRANCH  29  30
ATOM     30  C   UNL     1       3.605   0.531  -0.387  0.00  0.00    +0.062 C 
BRANCH  30  31
ATOM     31  C   UNL     1       5.055   0.431   0.013  0.00  0.00    -0.009 A 
ATOM     32  C   UNL     1       5.800  -0.677   0.248  0.00  0.00    +0.011 A 
ATOM     33  C   UNL     1       7.128  -0.528   0.604  0.00  0.00    +0.008 A 
ATOM     34  C   UNL     1       7.642   0.721   0.717  0.00  0.00    +0.045 A 
ATOM     35  S   UNL     1       6.233   1.739   0.306  0.00  0.00    -0.102 S 
ENDBRANCH  30  31
ENDBRANCH  29  30
ENDBRANCH   4  29
TORSDOF 9
