REMARK  Name = ZINC12780072
REMARK  13 active torsions:
REMARK  status: ('A' for Active; 'I' for Inactive)
REMARK    1  A    between atoms: C_1  and  N_65
REMARK    2  A    between atoms: C_2  and  N_65
REMARK    3  A    between atoms: C_3  and  C_5
REMARK    4  A    between atoms: C_3  and  C_28
REMARK    5  A    between atoms: C_3  and  N_65
REMARK    6  A    between atoms: C_5  and  N_6
REMARK    7  A    between atoms: C_7  and  C_9
REMARK    8  A    between atoms: N_11  and  C_22
REMARK    9  A    between atoms: C_13  and  C_14
REMARK   10  A    between atoms: C_19  and  O_20
REMARK   11  A    between atoms: O_20  and  C_21
REMARK   12  A    between atoms: C_33  and  O_34
REMARK   13  A    between atoms: O_34  and  C_35
REMARK                            x       y       z     vdW  Elec       q    Type
REMARK                         _______ _______ _______ _____ _____    ______ ____
ROOT
ATOM      1  C   UNL     1       4.678   2.121  -2.056  0.00  0.00    +0.082 A 
ATOM      2  C   UNL     1       5.593   3.130  -2.272  0.00  0.00    +0.128 A 
ATOM      3  N   UNL     1       5.028   4.030  -3.095  0.00  0.00    -0.239 N 
ATOM      4  N   UNL     1       3.737   3.614  -3.431  0.00  0.00    -0.165 NA
ATOM      5  C   UNL     1       3.485   2.471  -2.833  0.00  0.00    +0.109 A 
ENDROOT
BRANCH   5   6
ATOM      6  C   UNL     1       2.230   1.688  -2.923  0.00  0.00    +0.044 A 
ATOM      7  C   UNL     1       2.273   0.330  -3.233  0.00  0.00    +0.014 A 
ATOM      8  C   UNL     1       1.101  -0.395  -3.315  0.00  0.00    +0.001 A 
ATOM      9  C   UNL     1      -0.117   0.223  -3.096  0.00  0.00    +0.004 A 
ATOM     10  C   UNL     1      -0.172   1.568  -2.783  0.00  0.00    +0.046 A 
ATOM     11  C   UNL     1       0.997   2.308  -2.697  0.00  0.00    +0.129 A 
BRANCH  11  12
ATOM     12  O   UNL     1       0.945   3.631  -2.394  0.00  0.00    -0.494 OA
ATOM     13  C   UNL     1      -0.350   4.196  -2.177  0.00  0.00    +0.277 C 
ENDBRANCH  11  12
ENDBRANCH   5   6
BRANCH   3  14
ATOM     14  C   UNL     1       5.640   5.207  -3.547  0.00  0.00    +0.065 A 
ATOM     15  C   UNL     1       6.930   5.521  -3.140  0.00  0.00    +0.028 A 
ATOM     16  C   UNL     1       7.532   6.679  -3.591  0.00  0.00    +0.002 A 
ATOM     17  C   UNL     1       6.848   7.531  -4.439  0.00  0.00    +0.000 A 
ATOM     18  C   UNL     1       5.562   7.223  -4.842  0.00  0.00    +0.002 A 
ATOM     19  C   UNL     1       4.956   6.064  -4.399  0.00  0.00    +0.028 A 
ENDBRANCH   3  14
BRANCH   1  21
ATOM     20  N   UNL     1       6.008   0.762  -0.522  0.00  0.00    -0.312 N 
ATOM     21  C   UNL     1       4.864   0.926  -1.215  0.00  0.00    +0.248 C 
ATOM     22  O   UNL     1       3.985   0.088  -1.146  0.00  0.00    -0.270 OA
ATOM     23  H   UNL     1       6.709   1.430  -0.577  0.00  0.00    +0.149 HD
BRANCH  20  24
ATOM     24  C   UNL     1       6.192  -0.427   0.315  0.00  0.00    +0.094 C 
BRANCH  24  25
ATOM     25  C   UNL     1       7.480  -0.282   1.128  0.00  0.00    -0.017 C 
BRANCH  25  26
ATOM     26  C   UNL     1       7.743  -1.559   1.885  0.00  0.00    -0.018 A 
ATOM     27  C   UNL     1       7.460  -1.633   3.235  0.00  0.00    +0.005 A 
ATOM     28  C   UNL     1       7.700  -2.804   3.929  0.00  0.00    +0.000 A 
ATOM     29  C   UNL     1       8.223  -3.905   3.275  0.00  0.00    +0.004 A 
ATOM     30  C   UNL     1       8.507  -3.836   1.925  0.00  0.00    +0.046 A 
ATOM     31  C   UNL     1       8.262  -2.663   1.224  0.00  0.00    +0.122 A 
BRANCH  31  32
ATOM     32  O   UNL     1       8.536  -2.594  -0.105  0.00  0.00    -0.495 OA
ATOM     33  C   UNL     1       9.069  -3.769  -0.719  0.00  0.00    +0.277 C 
ENDBRANCH  31  32
ENDBRANCH  25  26
BRANCH  25  36
ATOM     34  C   UNL     1       7.734   2.102   1.462  0.00  0.00    -0.096 C 
ATOM     35  C   UNL     1       5.967   0.901   2.602  0.00  0.00    -0.096 C 
ATOM     36  N   UNL     1       7.355   0.824   2.100  0.00  0.00    +0.382 N 
ATOM     37  H   UNL     1       7.986   0.646   2.891  0.00  0.00    -0.082 HD
ENDBRANCH  25  36
ENDBRANCH  24  25
ENDBRANCH  20  24
ENDBRANCH   1  21
TORSDOF 9
