REMARK  Name = ZINC00930840
REMARK  8 active torsions:
REMARK  status: ('A' for Active; 'I' for Inactive)
REMARK    1  A    between atoms: C_1  and  C_2
REMARK    2  A    between atoms: C_2  and  C_4
REMARK    3  A    between atoms: C_7  and  N_10
REMARK    4  A    between atoms: N_10  and  C_11
REMARK    5  A    between atoms: C_11  and  C_13
REMARK    6  A    between atoms: C_11  and  C_20
REMARK    7  A    between atoms: N_22  and  C_23
REMARK    8  A    between atoms: C_29  and  C_31
REMARK                            x       y       z     vdW  Elec       q    Type
REMARK                         _______ _______ _______ _____ _____    ______ ____
ROOT
ATOM      1  N   UNL     1      -0.176   1.508  -0.466  0.00  0.00    -0.252 N 
ATOM      2  C   UNL     1      -0.040   0.221  -0.840  0.00  0.00    +0.265 C 
ATOM      3  O   UNL     1      -0.823  -0.613  -0.438  0.00  0.00    -0.271 OA
ENDROOT
BRANCH   2   4
ATOM      4  C   UNL     1       1.085  -0.183  -1.758  0.00  0.00    +0.296 C 
ATOM      5  C   UNL     1       0.834   0.382  -3.163  0.00  0.00    +0.283 C 
ATOM      6  O   UNL     1       1.912  -0.032  -4.010  0.00  0.00    -0.484 OA
ATOM      7  C   UNL     1       2.281  -1.340  -3.938  0.00  0.00    +0.162 A 
ATOM      8  C   UNL     1       3.047  -1.888  -4.955  0.00  0.00    +0.049 A 
ATOM      9  C   UNL     1       3.433  -3.214  -4.893  0.00  0.00    +0.004 A 
ATOM     10  C   UNL     1       3.056  -3.997  -3.818  0.00  0.00    +0.004 A 
ATOM     11  C   UNL     1       2.291  -3.457  -2.802  0.00  0.00    +0.049 A 
ATOM     12  C   UNL     1       1.900  -2.127  -2.858  0.00  0.00    +0.163 A 
ATOM     13  O   UNL     1       1.144  -1.610  -1.851  0.00  0.00    -0.472 OA
ENDBRANCH   2   4
BRANCH   1  17
ATOM     14  C   UNL     1       2.685   4.313  -1.588  0.00  0.00    +0.017 A 
ATOM     15  C   UNL     1       3.017   3.292  -0.689  0.00  0.00    +0.013 A 
ATOM     16  C   UNL     1       2.072   2.370  -0.323  0.00  0.00    +0.024 A 
ATOM     17  C   UNL     1       0.782   2.448  -0.842  0.00  0.00    +0.038 A 
ATOM     18  C   UNL     1       0.449   3.458  -1.740  0.00  0.00    +0.024 A 
ATOM     19  C   UNL     1       1.387   4.388  -2.108  0.00  0.00    +0.013 A 
BRANCH  14  21
ATOM     20  C   UNL     1       3.334   6.402  -2.950  0.00  0.00    +0.091 C 
ATOM     21  C   UNL     1       3.694   5.304  -1.983  0.00  0.00    +0.160 C 
ATOM     22  O   UNL     1       4.818   5.238  -1.532  0.00  0.00    -0.292 OA
ENDBRANCH  14  21
ENDBRANCH   1  17
BRANCH   1  23
ATOM     23  C   UNL     1      -1.334   1.922   0.331  0.00  0.00    +0.197 C 
BRANCH  23  24
ATOM     24  C   UNL     1      -1.334   3.422   0.476  0.00  0.00    -0.018 A 
ATOM     25  C   UNL     1      -0.231   4.064   1.008  0.00  0.00    +0.009 A 
ATOM     26  C   UNL     1      -0.228   5.440   1.136  0.00  0.00    +0.038 A 
ATOM     27  C   UNL     1      -1.334   6.175   0.742  0.00  0.00    +0.123 A 
ATOM     28  C   UNL     1      -2.440   5.529   0.215  0.00  0.00    +0.038 A 
ATOM     29  C   UNL     1      -2.439   4.154   0.083  0.00  0.00    +0.009 A 
ATOM     30  F   UNL     1      -1.334   7.519   0.873  0.00  0.00    -0.205 F 
ENDBRANCH  23  24
BRANCH  23  31
ATOM     31  C   UNL     1      -1.258   1.285   1.694  0.00  0.00    +0.239 C 
ATOM     32  O   UNL     1      -0.329   0.558   1.973  0.00  0.00    -0.273 OA
ATOM     33  N   UNL     1      -2.224   1.524   2.604  0.00  0.00    -0.311 N 
ATOM     34  H   UNL     1      -2.967   2.106   2.381  0.00  0.00    +0.149 HD
BRANCH  33  35
ATOM     35  C   UNL     1      -2.151   0.905   3.930  0.00  0.00    +0.073 C 
ATOM     36  C   UNL     1      -2.757  -0.499   3.871  0.00  0.00    +0.022 C 
ATOM     37  C   UNL     1      -2.680  -1.145   5.256  0.00  0.00    +0.002 C 
ATOM     38  C   UNL     1      -3.460  -0.294   6.260  0.00  0.00    +0.000 C 
ATOM     39  C   UNL     1      -2.854   1.109   6.318  0.00  0.00    +0.002 C 
ATOM     40  C   UNL     1      -2.930   1.756   4.934  0.00  0.00    +0.022 C 
ENDBRANCH  33  35
ENDBRANCH  23  31
ENDBRANCH   1  23
TORSDOF 7
