REMARK  Name = ZINC08430599
REMARK  10 active torsions:
REMARK  status: ('A' for Active; 'I' for Inactive)
REMARK    1  A    between atoms: C_1  and  O_2
REMARK    2  A    between atoms: O_2  and  C_3
REMARK    3  A    between atoms: C_5  and  C_13
REMARK    4  A    between atoms: C_7  and  O_11
REMARK    5  A    between atoms: C_8  and  O_9
REMARK    6  A    between atoms: O_9  and  C_10
REMARK    7  A    between atoms: O_11  and  C_12
REMARK    8  A    between atoms: C_18  and  C_28
REMARK    9  A    between atoms: C_31  and  S_34
REMARK   10  A    between atoms: S_34  and  C_35
REMARK                            x       y       z     vdW  Elec       q    Type
REMARK                         _______ _______ _______ _____ _____    ______ ____
ROOT
ATOM      1  C   UNL     1      -1.208   2.320  -0.556  0.00  0.00    +0.032 C 
ATOM      2  C   UNL     1      -1.224   3.076   0.771  0.00  0.00    +0.059 C 
ATOM      3  C   UNL     1      -2.573   3.747   0.969  0.00  0.00    +0.017 C 
ATOM      4  C   UNL     1      -3.273   4.194  -0.087  0.00  0.00    +0.036 C 
ATOM      5  C   UNL     1      -4.618   4.879  -0.032  0.00  0.00    +0.136 C 
ATOM      6  N   UNL     1      -5.035   5.280   1.295  0.00  0.00    -0.331 N 
ATOM      7  C   UNL     1      -5.292   4.332   2.284  0.00  0.00    +0.049 A 
ATOM      8  C   UNL     1      -6.574   4.121   2.767  0.00  0.00    +0.025 A 
ATOM      9  C   UNL     1      -6.800   3.093   3.666  0.00  0.00    +0.002 A 
ATOM     10  C   UNL     1      -5.759   2.284   4.081  0.00  0.00    +0.002 A 
ATOM     11  C   UNL     1      -4.474   2.505   3.616  0.00  0.00    +0.025 A 
ATOM     12  C   UNL     1      -4.242   3.544   2.731  0.00  0.00    +0.052 A 
ATOM     13  N   UNL     1      -2.971   3.853   2.263  0.00  0.00    -0.316 N 
ATOM     14  C   UNL     1      -2.768   4.029  -1.398  0.00  0.00    +0.163 C 
ATOM     15  O   UNL     1      -3.409   4.466  -2.333  0.00  0.00    -0.292 OA
ATOM     16  C   UNL     1      -1.468   3.334  -1.675  0.00  0.00    +0.088 C 
ATOM     17  H   UNL     1      -5.136   6.223   1.499  0.00  0.00    +0.147 HD
ATOM     18  H   UNL     1      -2.319   4.168   2.908  0.00  0.00    +0.152 HD
ENDROOT
BRANCH   1  21
ATOM     19  C   UNL     1       1.458  -0.302  -1.101  0.00  0.00    +0.165 A 
ATOM     20  C   UNL     1       0.224   0.299  -0.909  0.00  0.00    +0.053 A 
ATOM     21  C   UNL     1       0.137   1.670  -0.758  0.00  0.00    -0.036 A 
ATOM     22  C   UNL     1       1.279   2.447  -0.796  0.00  0.00    +0.053 A 
ATOM     23  C   UNL     1       2.517   1.854  -0.988  0.00  0.00    +0.165 A 
ATOM     24  C   UNL     1       2.609   0.475  -1.140  0.00  0.00    +0.204 A 
BRANCH  19  26
ATOM     25  C   UNL     1       0.320  -2.388  -1.197  0.00  0.00    +0.277 C 
ATOM     26  O   UNL     1       1.543  -1.652  -1.249  0.00  0.00    -0.491 OA
ENDBRANCH  19  26
BRANCH  24  27
ATOM     27  O   UNL     1       3.823  -0.111  -1.327  0.00  0.00    -0.488 OA
ATOM     28  C   UNL     1       4.271  -0.260  -2.676  0.00  0.00    +0.277 C 
ENDBRANCH  24  27
BRANCH  23  29
ATOM     29  O   UNL     1       3.641   2.619  -1.025  0.00  0.00    -0.491 OA
ATOM     30  C   UNL     1       3.471   4.029  -0.861  0.00  0.00    +0.277 C 
ENDBRANCH  23  29
ENDBRANCH   1  21
BRANCH   5  31
ATOM     31  C   UNL     1      -5.654   3.942  -0.595  0.00  0.00    -0.023 A 
ATOM     32  C   UNL     1      -5.911   2.738   0.035  0.00  0.00    +0.007 A 
ATOM     33  C   UNL     1      -6.864   1.879  -0.476  0.00  0.00    +0.015 A 
ATOM     34  C   UNL     1      -7.558   2.221  -1.630  0.00  0.00    +0.008 A 
ATOM     35  C   UNL     1      -7.294   3.429  -2.263  0.00  0.00    +0.015 A 
ATOM     36  C   UNL     1      -6.343   4.286  -1.744  0.00  0.00    +0.007 A 
BRANCH  34  37
ATOM     37  S   UNL     1      -8.771   1.125  -2.288  0.00  0.00    -0.129 S 
ATOM     38  C   UNL     1      -8.758  -0.283  -1.144  0.00  0.00    +0.090 C 
ENDBRANCH  34  37
ENDBRANCH   5  31
TORSDOF 6
