REMARK  Name = ZINC01886320
REMARK  16 active torsions:
REMARK  status: ('A' for Active; 'I' for Inactive)
REMARK    1  A    between atoms: C_1  and  C_2
REMARK    2  A    between atoms: C_2  and  C_3
REMARK    3  A    between atoms: C_3  and  C_4
REMARK    4  A    between atoms: C_4  and  O_5
REMARK    5  A    between atoms: O_5  and  C_6
REMARK    6  A    between atoms: C_6  and  C_8
REMARK    7  A    between atoms: C_9  and  N_40
REMARK    8  A    between atoms: C_14  and  C_15
REMARK    9  A    between atoms: C_18  and  O_21
REMARK   10  A    between atoms: O_21  and  C_22
REMARK   11  A    between atoms: C_25  and  C_36
REMARK   12  A    between atoms: C_26  and  C_28
REMARK   13  A    between atoms: C_31  and  O_34
REMARK   14  A    between atoms: O_34  and  C_35
REMARK   15  A    between atoms: C_36  and  O_38
REMARK   16  A    between atoms: O_38  and  C_39
REMARK                            x       y       z     vdW  Elec       q    Type
REMARK                         _______ _______ _______ _____ _____    ______ ____
ROOT
ATOM      1  C   UNL     1      -3.545  -4.199  -0.153  0.00  0.00    +0.087 C 
ATOM      2  C   UNL     1      -4.057  -5.421  -0.431  0.00  0.00    +0.115 C 
ATOM      3  N   UNL     1      -5.422  -5.675  -0.592  0.00  0.00    -0.257 N 
ATOM      4  C   UNL     1      -5.918  -6.897  -0.869  0.00  0.00    +0.271 A 
ATOM      5  O   UNL     1      -5.179  -7.856  -0.994  0.00  0.00    -0.266 OA
ATOM      6  C   UNL     1      -7.370  -7.045  -1.015  0.00  0.00    +0.079 A 
ATOM      7  C   UNL     1      -8.101  -8.156  -1.289  0.00  0.00    +0.028 C 
ATOM      8  S   UNL     1      -7.918  -5.369  -0.735  0.00  0.00    -0.065 S 
ATOM      9  C   UNL     1      -6.318  -4.633  -0.463  0.00  0.00    +0.100 A 
ATOM     10  C   UNL     1      -5.963  -3.340  -0.184  0.00  0.00    +0.079 C 
ATOM     11  C   UNL     1      -4.491  -3.026   0.003  0.00  0.00    +0.099 C 
ENDROOT
BRANCH   7  12
ATOM     12  C   UNL     1      -9.541  -8.043  -1.549  0.00  0.00    -0.024 A 
ATOM     13  C   UNL     1     -10.097  -6.805  -1.895  0.00  0.00    +0.011 A 
ATOM     14  C   UNL     1     -11.449  -6.704  -2.137  0.00  0.00    +0.046 A 
ATOM     15  C   UNL     1     -12.261  -7.828  -2.038  0.00  0.00    +0.120 A 
ATOM     16  C   UNL     1     -11.714  -9.059  -1.695  0.00  0.00    +0.046 A 
ATOM     17  C   UNL     1     -10.363  -9.173  -1.457  0.00  0.00    +0.011 A 
BRANCH  15  18
ATOM     18  O   UNL     1     -13.593  -7.723  -2.278  0.00  0.00    -0.495 OA
ATOM     19  C   UNL     1     -14.370  -8.916  -2.159  0.00  0.00    +0.277 C 
ENDBRANCH  15  18
ENDBRANCH   7  12
BRANCH  11  20
ATOM     20  C   UNL     1      -4.107  -1.972  -1.003  0.00  0.00    -0.035 A 
ATOM     21  C   UNL     1      -4.136  -2.265  -2.354  0.00  0.00    +0.008 A 
ATOM     22  C   UNL     1      -3.784  -1.301  -3.279  0.00  0.00    +0.046 A 
ATOM     23  C   UNL     1      -3.402  -0.038  -2.850  0.00  0.00    +0.120 A 
ATOM     24  C   UNL     1      -3.374   0.254  -1.494  0.00  0.00    +0.046 A 
ATOM     25  C   UNL     1      -3.732  -0.713  -0.574  0.00  0.00    +0.008 A 
BRANCH  23  26
ATOM     26  O   UNL     1      -3.055   0.912  -3.758  0.00  0.00    -0.495 OA
ATOM     27  C   UNL     1      -2.672   2.190  -3.245  0.00  0.00    +0.277 C 
ENDBRANCH  23  26
ENDBRANCH  11  20
BRANCH   2  28
ATOM     28  N   UNL     1      -3.186  -6.470  -0.564  0.00  0.00    -0.344 N 
ATOM     29  H   UNL     1      -3.412  -7.338  -0.193  0.00  0.00    +0.144 HD
ATOM     30  H   UNL     1      -2.344  -6.346  -1.029  0.00  0.00    +0.144 HD
ENDBRANCH   2  28
BRANCH   1  31
ATOM     31  C   UNL     1      -2.160  -4.022  -0.007  0.00  0.00    +0.339 C 
ATOM     32  O   UNL     1      -1.417  -4.987  -0.034  0.00  0.00    -0.245 OA
BRANCH  31  33
ATOM     33  O   UNL     1      -1.652  -2.783   0.164  0.00  0.00    -0.461 OA
BRANCH  33  34
ATOM     34  C   UNL     1      -0.234  -2.677   0.306  0.00  0.00    +0.232 C 
BRANCH  34  35
ATOM     35  C   UNL     1       0.152  -1.208   0.489  0.00  0.00    +0.041 C 
BRANCH  35  37
ATOM     36  C   UNL     1       2.057   0.374   0.824  0.00  0.00    +0.004 C 
ATOM     37  C   UNL     1       1.670  -1.095   0.641  0.00  0.00    -0.000 C 
ENDBRANCH  35  37
ENDBRANCH  34  35
ENDBRANCH  33  34
ENDBRANCH  31  33
ENDBRANCH   1  31
BRANCH  10  38
ATOM     38  C   UNL     1      -6.933  -2.336  -0.069  0.00  0.00    +0.338 C 
ATOM     39  O   UNL     1      -8.112  -2.608  -0.216  0.00  0.00    -0.245 OA
BRANCH  38  40
ATOM     40  O   UNL     1      -6.562  -1.067   0.207  0.00  0.00    -0.465 OA
ATOM     41  C   UNL     1      -7.604  -0.094   0.311  0.00  0.00    +0.280 C 
ENDBRANCH  38  40
ENDBRANCH  10  38
TORSDOF 12
