REMARK  Name = ZINC37425508
REMARK  13 active torsions:
REMARK  status: ('A' for Active; 'I' for Inactive)
REMARK    1  A    between atoms: C_1  and  C_2
REMARK    2  A    between atoms: C_5  and  N_8
REMARK    3  A    between atoms: C_11  and  C_13
REMARK    4  A    between atoms: C_13  and  C_14
REMARK    5  A    between atoms: C_13  and  C_15
REMARK    6  A    between atoms: C_13  and  C_16
REMARK    7  A    between atoms: C_17  and  C_32
REMARK    8  A    between atoms: N_23  and  C_24
REMARK    9  A    between atoms: C_24  and  C_25
REMARK   10  A    between atoms: N_27  and  C_28
REMARK   11  A    between atoms: C_28  and  C_29
REMARK   12  A    between atoms: C_29  and  O_30
REMARK   13  A    between atoms: O_30  and  C_31
REMARK                            x       y       z     vdW  Elec       q    Type
REMARK                         _______ _______ _______ _____ _____    ______ ____
ROOT
ATOM      1  N   UNL     1       1.239  -7.889   1.020  0.00  0.00    -0.218 N 
ATOM      2  C   UNL     1       1.078  -9.205   0.740  0.00  0.00    +0.136 A 
ATOM      3  C   UNL     1       0.294  -9.309  -0.358  0.00  0.00    +0.034 A 
ATOM      4  C   UNL     1      -0.037  -8.018  -0.772  0.00  0.00    +0.075 A 
ATOM      5  N   UNL     1       0.522  -7.166   0.054  0.00  0.00    -0.169 NA
ATOM      6  C   UNL     1      -0.132 -10.608  -0.991  0.00  0.00    +0.115 C 
ATOM      7  S   UNL     1       1.306 -11.331  -1.861  0.00  0.00    -0.138 S 
ATOM      8  C   UNL     1       2.661 -11.001  -0.686  0.00  0.00    +0.166 C 
ATOM      9  C   UNL     1       2.219 -11.264   0.722  0.00  0.00    +0.231 C 
ATOM     10  O   UNL     1       2.415 -12.351   1.223  0.00  0.00    -0.274 OA
ATOM     11  N   UNL     1       1.609 -10.306   1.428  0.00  0.00    -0.246 N 
ENDROOT
BRANCH   1  16
ATOM     12  C   UNL     1       4.236  -5.706   5.316  0.00  0.00    +0.044 C 
ATOM     13  C   UNL     1       3.440  -6.286   4.175  0.00  0.00    -0.050 A 
ATOM     14  C   UNL     1       3.948  -7.347   3.449  0.00  0.00    +0.005 A 
ATOM     15  C   UNL     1       3.221  -7.881   2.403  0.00  0.00    +0.028 A 
ATOM     16  C   UNL     1       1.979  -7.351   2.081  0.00  0.00    +0.067 A 
ATOM     17  C   UNL     1       1.471  -6.285   2.813  0.00  0.00    +0.028 A 
ATOM     18  C   UNL     1       2.201  -5.759   3.861  0.00  0.00    +0.005 A 
ENDBRANCH   1  16
BRANCH   6  19
ATOM     19  C   UNL     1      -1.245 -10.351  -1.974  0.00  0.00    +0.005 A 
ATOM     20  C   UNL     1      -0.951 -10.085  -3.298  0.00  0.00    +0.008 A 
ATOM     21  C   UNL     1      -1.972  -9.849  -4.199  0.00  0.00    +0.000 A 
ATOM     22  C   UNL     1      -3.289  -9.879  -3.778  0.00  0.00    +0.003 A 
ATOM     23  C   UNL     1      -3.585 -10.146  -2.455  0.00  0.00    +0.038 A 
ATOM     24  C   UNL     1      -2.563 -10.387  -1.552  0.00  0.00    +0.128 A 
ATOM     25  F   UNL     1      -2.852 -10.653  -0.259  0.00  0.00    -0.205 F 
ENDBRANCH   6  19
BRANCH   4  26
ATOM     26  C   UNL     1      -0.894  -7.664  -1.960  0.00  0.00    +0.007 C 
ATOM     27  C   UNL     1      -2.259  -8.340  -1.823  0.00  0.00    +0.017 C 
ATOM     28  C   UNL     1      -1.080  -6.146  -2.020  0.00  0.00    +0.017 C 
ATOM     29  C   UNL     1      -0.212  -8.145  -3.243  0.00  0.00    +0.017 C 
ENDBRANCH   4  26
BRANCH  11  30
ATOM     30  C   UNL     1       1.499 -10.404   2.885  0.00  0.00    +0.210 C 
BRANCH  30  31
ATOM     31  C   UNL     1       0.296 -11.238   3.243  0.00  0.00    +0.231 C 
ATOM     32  O   UNL     1      -0.401 -11.705   2.367  0.00  0.00    -0.274 OA
ATOM     33  N   UNL     1      -0.006 -11.465   4.537  0.00  0.00    -0.312 N 
ATOM     34  H   UNL     1       0.551 -11.092   5.238  0.00  0.00    +0.149 HD
BRANCH  33  35
ATOM     35  C   UNL     1      -1.175 -12.276   4.885  0.00  0.00    +0.132 C 
BRANCH  35  36
ATOM     36  C   UNL     1      -1.290 -12.378   6.407  0.00  0.00    +0.178 C 
BRANCH  36  37
ATOM     37  O   UNL     1      -1.552 -11.084   6.953  0.00  0.00    -0.381 OA
ATOM     38  C   UNL     1      -1.678 -11.068   8.376  0.00  0.00    +0.194 C 
ENDBRANCH  36  37
ENDBRANCH  35  36
ENDBRANCH  33  35
ENDBRANCH  30  31
ENDBRANCH  11  30
TORSDOF 8
