REMARK  Name = ZINC02092993
REMARK  8 active torsions:
REMARK  status: ('A' for Active; 'I' for Inactive)
REMARK    1  A    between atoms: C_1  and  C_2
REMARK    2  A    between atoms: C_2  and  C_3
REMARK    3  A    between atoms: C_2  and  C_4
REMARK    4  A    between atoms: C_7  and  C_10
REMARK    5  A    between atoms: N_29  and  C_32
REMARK    6  A    between atoms: C_32  and  C_33
REMARK    7  A    between atoms: C_38  and  O_39
REMARK    8  A    between atoms: O_39  and  C_40
REMARK                            x       y       z     vdW  Elec       q    Type
REMARK                         _______ _______ _______ _____ _____    ______ ____
ROOT
ATOM      1  C   UNL     1       4.795   2.636  -0.024  0.00  0.00    +0.154 C 
ATOM      2  C   UNL     1       3.292   2.470   0.021  0.00  0.00    +0.046 A 
ATOM      3  C   UNL     1       2.674   1.270  -0.003  0.00  0.00    -0.015 A 
ATOM      4  C   UNL     1       1.249   1.526   0.064  0.00  0.00    +0.003 A 
ATOM      5  C   UNL     1       0.134   0.683   0.076  0.00  0.00    +0.010 A 
ATOM      6  C   UNL     1      -1.098   1.285   0.137  0.00  0.00    +0.001 A 
ATOM      7  C   UNL     1      -1.243   2.662   0.194  0.00  0.00    +0.002 A 
ATOM      8  C   UNL     1      -0.157   3.519   0.185  0.00  0.00    +0.026 A 
ATOM      9  C   UNL     1       1.107   2.936   0.119  0.00  0.00    +0.047 A 
ATOM     10  N   UNL     1       2.362   3.473   0.094  0.00  0.00    -0.356 N 
ATOM     11  H   UNL     1       2.565   4.421   0.124  0.00  0.00    +0.166 HD
ATOM     12  C   UNL     1       3.381  -0.059  -0.090  0.00  0.00    +0.069 C 
ATOM     13  C   UNL     1       4.856   0.137   0.288  0.00  0.00    +0.167 C 
ATOM     14  N   UNL     1       5.373   1.325  -0.390  0.00  0.00    -0.276 N 
ATOM     15  C   UNL     1       6.332   1.277  -1.317  0.00  0.00    +0.234 C 
ATOM     16  O   UNL     1       6.639   2.314  -1.866  0.00  0.00    -0.274 OA
ATOM     17  C   UNL     1       7.051   0.033  -1.724  0.00  0.00    +0.204 C 
ATOM     18  N   UNL     1       6.609  -1.126  -0.968  0.00  0.00    -0.287 N 
ATOM     19  C   UNL     1       5.631  -1.092  -0.064  0.00  0.00    +0.237 C 
ATOM     20  O   UNL     1       5.352  -2.123   0.510  0.00  0.00    -0.274 OA
ENDROOT
BRANCH   1  24
ATOM     21  C   UNL     1       6.239   3.838   3.813  0.00  0.00    -0.045 A 
ATOM     22  C   UNL     1       6.511   2.568   3.339  0.00  0.00    +0.004 A 
ATOM     23  C   UNL     1       6.043   2.179   2.097  0.00  0.00    +0.006 A 
ATOM     24  C   UNL     1       5.304   3.060   1.330  0.00  0.00    -0.021 A 
ATOM     25  C   UNL     1       5.037   4.331   1.802  0.00  0.00    +0.006 A 
ATOM     26  C   UNL     1       5.501   4.719   3.045  0.00  0.00    +0.004 A 
BRANCH  21  28
ATOM     27  C   UNL     1       7.667   5.475   5.009  0.00  0.00    +0.012 C 
ATOM     28  C   UNL     1       6.748   4.262   5.166  0.00  0.00    +0.013 C 
ATOM     29  C   UNL     1       5.565   4.631   6.063  0.00  0.00    +0.012 C 
ENDBRANCH  21  28
ENDBRANCH   1  24
BRANCH  18  30
ATOM     30  C   UNL     1       7.276  -2.407  -1.213  0.00  0.00    +0.147 C 
BRANCH  30  31
ATOM     31  C   UNL     1       6.557  -3.146  -2.312  0.00  0.00    +0.011 A 
ATOM     32  C   UNL     1       5.669  -4.157  -2.000  0.00  0.00    +0.009 A 
ATOM     33  C   UNL     1       5.009  -4.835  -3.007  0.00  0.00    +0.001 A 
ATOM     34  C   UNL     1       5.235  -4.503  -4.331  0.00  0.00    +0.004 A 
ATOM     35  C   UNL     1       6.122  -3.493  -4.649  0.00  0.00    +0.046 A 
ATOM     36  C   UNL     1       6.782  -2.808  -3.639  0.00  0.00    +0.125 A 
BRANCH  36  37
ATOM     37  O   UNL     1       7.651  -1.810  -3.949  0.00  0.00    -0.495 OA
ATOM     38  C   UNL     1       7.834  -1.516  -5.335  0.00  0.00    +0.277 C 
ENDBRANCH  36  37
ENDBRANCH  30  31
ENDBRANCH  18  30
TORSDOF 5
