REMARK  Name = ZINC09057457
REMARK  8 active torsions:
REMARK  status: ('A' for Active; 'I' for Inactive)
REMARK    1  A    between atoms: C_4  and  C_7
REMARK    2  A    between atoms: C_7  and  O_8
REMARK    3  A    between atoms: O_8  and  C_9
REMARK    4  A    between atoms: C_12  and  C_15
REMARK    5  A    between atoms: C_16  and  C_17
REMARK    6  A    between atoms: C_16  and  C_19
REMARK    7  A    between atoms: N_21  and  C_22
REMARK    8  A    between atoms: C_25  and  N_29
REMARK                            x       y       z     vdW  Elec       q    Type
REMARK                         _______ _______ _______ _____ _____    ______ ____
ROOT
ATOM      1  C   UNL     1      -0.009   1.076   0.040  0.00  0.00    +0.032 C 
ATOM      2  C   UNL     1      -1.126   1.610   0.645  0.00  0.00    +0.114 C 
ENDROOT
BRANCH   1   6
ATOM      3  C   UNL     1       3.621   3.242   0.014  0.00  0.00    +0.121 A 
ATOM      4  C   UNL     1       3.642   1.855   0.117  0.00  0.00    +0.046 A 
ATOM      5  C   UNL     1       2.473   1.149   0.127  0.00  0.00    +0.011 A 
ATOM      6  C   UNL     1       1.248   1.827   0.031  0.00  0.00    -0.023 A 
ATOM      7  C   UNL     1       1.233   3.224  -0.079  0.00  0.00    +0.011 A 
ATOM      8  C   UNL     1       2.409   3.919  -0.081  0.00  0.00    +0.046 A 
BRANCH   3   9
ATOM      9  O   UNL     1       4.786   3.937   0.005  0.00  0.00    -0.487 OA
BRANCH   9  10
ATOM     10  C   UNL     1       4.692   5.359  -0.104  0.00  0.00    +0.264 C 
BRANCH  10  14
ATOM     11  C   UNL     1       8.615   7.050  -0.085  0.00  0.00    +0.000 A 
ATOM     12  C   UNL     1       8.024   6.688  -1.281  0.00  0.00    +0.000 A 
ATOM     13  C   UNL     1       6.755   6.141  -1.287  0.00  0.00    +0.007 A 
ATOM     14  C   UNL     1       6.076   5.956  -0.097  0.00  0.00    -0.010 A 
ATOM     15  C   UNL     1       6.665   6.323   1.099  0.00  0.00    +0.007 A 
ATOM     16  C   UNL     1       7.936   6.865   1.105  0.00  0.00    +0.000 A 
ENDBRANCH  10  14
ENDBRANCH   9  10
ENDBRANCH   3   9
ENDBRANCH   1   6
BRANCH   2  17
ATOM     17  C   UNL     1      -2.365   0.822   0.728  0.00  0.00    +0.259 C 
ATOM     18  O   UNL     1      -2.404  -0.301   0.263  0.00  0.00    -0.269 OA
ATOM     19  N   UNL     1      -3.458   1.345   1.320  0.00  0.00    -0.280 N 
ATOM     20  H   UNL     1      -3.454   2.269   1.615  0.00  0.00    +0.155 HD
BRANCH  19  21
ATOM     21  C   UNL     1      -4.596   0.554   1.509  0.00  0.00    +0.048 A 
ATOM     22  C   UNL     1      -4.480  -0.828   1.584  0.00  0.00    +0.026 A 
ATOM     23  C   UNL     1      -5.606  -1.605   1.770  0.00  0.00    +0.034 A 
ATOM     24  C   UNL     1      -6.849  -1.009   1.883  0.00  0.00    +0.127 A 
ATOM     25  C   UNL     1      -6.969   0.366   1.809  0.00  0.00    +0.049 A 
ATOM     26  C   UNL     1      -5.846   1.151   1.628  0.00  0.00    +0.041 A 
ATOM     27 BR   UNL     1      -6.010   3.032   1.535  0.00  0.00    -0.048 Br
BRANCH  24  28
ATOM     28  N   UNL     1      -8.053  -1.846   2.083  0.00  0.00    +0.056 N 
ATOM     29  O   UNL     1      -7.949  -3.058   2.148  0.00  0.00    -0.126 OA
ATOM     30  O   UNL     1      -9.149  -1.323   2.183  0.00  0.00    -0.126 OA
ENDBRANCH  24  28
ENDBRANCH  19  21
ENDBRANCH   2  17
BRANCH   2  31
ATOM     31  C   UNL     1      -1.080   2.933   1.193  0.00  0.00    +0.104 C 
ATOM     32  N   UNL     1      -1.044   3.981   1.628  0.00  0.00    -0.191 NA
ENDBRANCH   2  31
TORSDOF 8
