REMARK  Name = ZINC64303347
REMARK  10 active torsions:
REMARK  status: ('A' for Active; 'I' for Inactive)
REMARK    1  A    between atoms: C_1  and  C_2
REMARK    2  A    between atoms: C_2  and  C_3
REMARK    3  A    between atoms: C_2  and  C_4
REMARK    4  A    between atoms: C_2  and  C_5
REMARK    5  A    between atoms: C_8  and  C_11
REMARK    6  A    between atoms: C_11  and  C_12
REMARK    7  A    between atoms: C_11  and  C_13
REMARK    8  A    between atoms: C_11  and  N_14
REMARK    9  A    between atoms: C_15  and  C_17
REMARK   10  A    between atoms: C_17  and  C_18
REMARK                            x       y       z     vdW  Elec       q    Type
REMARK                         _______ _______ _______ _____ _____    ______ ____
ROOT
ATOM      1  N   UNL     1       2.164  -4.406  -2.474  0.00  0.00    -0.303 N 
ATOM      2  C   UNL     1       2.505  -5.691  -2.695  0.00  0.00    +0.218 C 
ATOM      3  O   UNL     1       3.207  -6.277  -1.898  0.00  0.00    -0.275 OA
ATOM      4  H   UNL     1       1.602  -3.937  -3.111  0.00  0.00    +0.150 HD
ENDROOT
BRANCH   1   5
ATOM      5  C   UNL     1       2.641  -3.717  -1.273  0.00  0.00    +0.087 C 
ATOM      6  C   UNL     1       4.171  -3.699  -1.269  0.00  0.00    +0.039 C 
ATOM      7  C   UNL     1       2.137  -4.452  -0.029  0.00  0.00    +0.039 C 
BRANCH   5  10
ATOM      8  C   UNL     1       0.718  -0.497  -1.257  0.00  0.00    +0.297 C 
ATOM      9  N   UNL     1       0.788  -1.967  -1.266  0.00  0.00    -0.291 N 
ATOM     10  C   UNL     1       2.122  -2.302  -1.265  0.00  0.00    +0.160 C 
ATOM     11  N   UNL     1       2.870  -1.259  -1.257  0.00  0.00    -0.070 NA
ATOM     12  O   UNL     1       2.091  -0.074  -1.252  0.00  0.00    -0.369 OA
ATOM     13  H   UNL     1       0.038  -2.582  -1.272  0.00  0.00    +0.151 HD
BRANCH   8  15
ATOM     14  C   UNL     1      -0.019   1.526   0.010  0.00  0.00    +0.016 C 
ATOM     15  C   UNL     1       0.002  -0.004   0.002  0.00  0.00    +0.019 C 
ATOM     16  C   UNL     1       0.742  -0.511   1.242  0.00  0.00    +0.016 C 
ATOM     17  C   UNL     1      -1.433  -0.534   0.013  0.00  0.00    +0.016 C 
ENDBRANCH   8  15
ENDBRANCH   5  10
ENDBRANCH   1   5
BRANCH   2  18
ATOM     18  C   UNL     1       2.014  -6.400  -3.930  0.00  0.00    +0.129 C 
BRANCH  18  19
ATOM     19  C   UNL     1       2.533  -7.815  -3.938  0.00  0.00    -0.033 C 
ATOM     20  C   UNL     1       1.890  -8.919  -3.494  0.00  0.00    -0.001 A 
ATOM     21  C   UNL     1       0.566  -9.125  -2.894  0.00  0.00    +0.010 A 
ATOM     22  C   UNL     1       0.193 -10.377  -2.543  0.00  0.00    +0.001 A 
ATOM     23  C   UNL     1       1.037 -11.479  -2.737  0.00  0.00    +0.002 A 
ATOM     24  C   UNL     1       2.267 -11.369  -3.283  0.00  0.00    +0.026 A 
ATOM     25  C   UNL     1       2.761 -10.100  -3.689  0.00  0.00    +0.043 A 
ATOM     26  N   UNL     1       3.899  -9.739  -4.232  0.00  0.00    -0.380 N 
ATOM     27  C   UNL     1       3.875  -8.288  -4.449  0.00  0.00    +0.145 C 
ATOM     28  H   UNL     1       4.632 -10.333  -4.457  0.00  0.00    +0.160 HD
ENDBRANCH  18  19
ENDBRANCH   2  18
TORSDOF 5
