REMARK  Name = ZINC28823509
REMARK  8 active torsions:
REMARK  status: ('A' for Active; 'I' for Inactive)
REMARK    1  A    between atoms: C_1  and  C_2
REMARK    2  A    between atoms: C_4  and  C_38
REMARK    3  A    between atoms: C_4  and  C_39
REMARK    4  A    between atoms: C_18  and  O_22
REMARK    5  A    between atoms: C_19  and  O_20
REMARK    6  A    between atoms: O_20  and  C_21
REMARK    7  A    between atoms: C_25  and  C_26
REMARK    8  A    between atoms: C_30  and  C_32
REMARK                            x       y       z     vdW  Elec       q    Type
REMARK                         _______ _______ _______ _____ _____    ______ ____
ROOT
ATOM      1  C   UNL     1       3.264  -4.246  -2.362  0.00  0.00    +0.039 C 
ATOM      2  C   UNL     1       3.250  -5.424  -1.422  0.00  0.00    -0.072 C 
ATOM      3  C   UNL     1       2.740  -6.544  -1.839  0.00  0.00    -0.040 C 
ATOM      4  C   UNL     1       2.680  -7.782  -0.991  0.00  0.00    -0.054 C 
ATOM      5  N   UNL     1       2.851  -7.436   0.425  0.00  0.00    +0.389 N 
ATOM      6  C   UNL     1       4.053  -6.608   0.611  0.00  0.00    -0.035 C 
ATOM      7  C   UNL     1       3.825  -5.250  -0.047  0.00  0.00    +0.038 C 
ATOM      8  C   UNL     1       5.115  -4.481  -0.112  0.00  0.00    +0.009 C 
ATOM      9  C   UNL     1       6.296  -5.150  -0.283  0.00  0.00    -0.004 C 
ATOM     10  C   UNL     1       6.292  -6.612  -0.423  0.00  0.00    +0.003 C 
ATOM     11  C   UNL     1       5.237  -7.305  -0.001  0.00  0.00    -0.041 C 
ATOM     12  C   UNL     1       7.549  -4.375  -0.326  0.00  0.00    +0.070 A 
ATOM     13  C   UNL     1       7.481  -2.978  -0.202  0.00  0.00    +0.140 A 
ATOM     14  C   UNL     1       8.647  -2.231  -0.239  0.00  0.00    +0.051 A 
ATOM     15  C   UNL     1       9.870  -2.858  -0.398  0.00  0.00    +0.053 A 
ATOM     16  C   UNL     1       9.944  -4.237  -0.522  0.00  0.00    +0.159 A 
ATOM     17  C   UNL     1       8.785  -5.003  -0.487  0.00  0.00    +0.172 A 
ATOM     18  O   UNL     1       6.280  -2.372  -0.047  0.00  0.00    -0.455 OA
ATOM     19  C   UNL     1       5.125  -3.074  -0.005  0.00  0.00    +0.133 C 
ATOM     20  C   UNL     1       3.947  -2.410   0.150  0.00  0.00    +0.054 C 
ATOM     21  C   UNL     1       3.793  -8.742  -1.417  0.00  0.00    -0.006 C 
ATOM     22  C   UNL     1       1.324  -8.464  -1.187  0.00  0.00    -0.006 C 
ATOM     23  H   UNL     1       1.972  -6.875   0.774  0.00  0.00    -0.084 HD
ATOM     24  H   UNL     1       2.956  -8.357   1.017  0.00  0.00    -0.084 HD
ENDROOT
BRANCH  20  25
ATOM     25  C   UNL     1       3.914  -0.944   0.067  0.00  0.00    -0.021 A 
ATOM     26  C   UNL     1       5.050  -0.238  -0.349  0.00  0.00    +0.008 A 
ATOM     27  C   UNL     1       5.018   1.139  -0.426  0.00  0.00    +0.001 A 
ATOM     28  C   UNL     1       3.867   1.829  -0.094  0.00  0.00    +0.008 A 
ATOM     29  C   UNL     1       2.728   1.139   0.321  0.00  0.00    -0.016 A 
ATOM     30  C   UNL     1       2.750  -0.248   0.407  0.00  0.00    +0.016 A 
BRANCH  29  31
ATOM     31  C   UNL     1       1.495   1.885   0.676  0.00  0.00    +0.000 A 
ATOM     32  C   UNL     1       1.463   3.280   0.598  0.00  0.00    +0.011 A 
ATOM     33  C   UNL     1       0.289   3.930   0.939  0.00  0.00    +0.020 A 
ATOM     34  C   UNL     1      -0.804   3.184   1.343  0.00  0.00    +0.111 A 
ATOM     35  N   UNL     1      -0.745   1.868   1.401  0.00  0.00    -0.263 NA
ATOM     36  C   UNL     1       0.352   1.207   1.092  0.00  0.00    +0.119 A 
ENDBRANCH  29  31
ENDBRANCH  20  25
BRANCH  17  37
ATOM     37  O   UNL     1       8.855  -6.355  -0.607  0.00  0.00    -0.491 OA
ATOM     38  C   UNL     1       9.067  -7.103   0.593  0.00  0.00    +0.277 C 
ENDBRANCH  17  37
BRANCH  16  39
ATOM     39  O   UNL     1      11.153  -4.841  -0.679  0.00  0.00    -0.503 OA
ATOM     40  H   UNL     1      11.213  -5.935  -0.778  0.00  0.00    +0.292 HD
ENDBRANCH  16  39
TORSDOF 4
