REMARK  Name = ZINC54644021
REMARK  8 active torsions:
REMARK  status: ('A' for Active; 'I' for Inactive)
REMARK    1  A    between atoms: C_1  and  C_2
REMARK    2  A    between atoms: C_5  and  C_8
REMARK    3  A    between atoms: C_8  and  O_9
REMARK    4  A    between atoms: O_9  and  C_10
REMARK    5  A    between atoms: C_14  and  C_16
REMARK    6  A    between atoms: C_29  and  S_31
REMARK    7  A    between atoms: S_31  and  C_32
REMARK    8  A    between atoms: C_32  and  C_33
REMARK                            x       y       z     vdW  Elec       q    Type
REMARK                         _______ _______ _______ _____ _____    ______ ____
ROOT
ATOM      1  C   UNL     1       4.491  -8.522  -0.058  0.00  0.00    +0.176 C 
ATOM      2  C   UNL     1       4.693  -9.358  -1.302  0.00  0.00    +0.041 C 
ATOM      3  C   UNL     1       4.738 -10.707  -1.261  0.00  0.00    +0.020 C 
ATOM      4  C   UNL     1       4.942 -11.516  -2.520  0.00  0.00    +0.052 C 
ATOM      5  C   UNL     1       4.337 -10.774  -3.713  0.00  0.00    +0.014 C 
ATOM      6  C   UNL     1       5.011  -9.402  -3.820  0.00  0.00    +0.080 C 
ATOM      7  C   UNL     1       4.833  -8.668  -2.520  0.00  0.00    +0.163 C 
ATOM      8  O   UNL     1       4.809  -7.453  -2.522  0.00  0.00    -0.292 OA
ATOM      9  N   UNL     1       4.609 -11.400  -0.081  0.00  0.00    -0.287 N 
ATOM     10  C   UNL     1       4.736 -10.695   1.105  0.00  0.00    +0.219 A 
ATOM     11  N   UNL     1       4.687  -9.343   1.130  0.00  0.00    -0.220 N 
ATOM     12  N   UNL     1       4.855  -8.966   2.462  0.00  0.00    -0.141 NA
ATOM     13  C   UNL     1       4.986 -10.076   3.156  0.00  0.00    +0.211 A 
ATOM     14  N   UNL     1       4.912 -11.120   2.327  0.00  0.00    -0.187 NA
ATOM     15  H   UNL     1       4.433 -12.354  -0.079  0.00  0.00    +0.155 HD
ENDROOT
BRANCH   1  20
ATOM     16  C   UNL     1       1.608  -6.079  -0.040  0.00  0.00    +0.121 A 
ATOM     17  C   UNL     1       0.520  -6.939  -0.044  0.00  0.00    +0.045 A 
ATOM     18  C   UNL     1       0.721  -8.306  -0.053  0.00  0.00    +0.004 A 
ATOM     19  C   UNL     1       2.006  -8.817  -0.058  0.00  0.00    +0.006 A 
ATOM     20  C   UNL     1       3.092  -7.962  -0.053  0.00  0.00    -0.015 A 
ATOM     21  C   UNL     1       2.896  -6.594  -0.050  0.00  0.00    +0.051 A 
BRANCH  16  22
ATOM     22  O   UNL     1       1.413  -4.734  -0.032  0.00  0.00    -0.487 OA
BRANCH  22  23
ATOM     23  C   UNL     1       0.059  -4.275  -0.021  0.00  0.00    +0.264 C 
BRANCH  23  28
ATOM     24  C   UNL     1      -0.018   1.503   0.010  0.00  0.00    +0.044 C 
ATOM     25  C   UNL     1       0.002  -0.004   0.002  0.00  0.00    -0.050 A 
ATOM     26  C   UNL     1       0.006  -0.689  -1.199  0.00  0.00    +0.004 A 
ATOM     27  C   UNL     1       0.025  -2.071  -1.206  0.00  0.00    +0.007 A 
ATOM     28  C   UNL     1       0.040  -2.768  -0.013  0.00  0.00    -0.010 A 
ATOM     29  C   UNL     1       0.037  -2.084   1.188  0.00  0.00    +0.007 A 
ATOM     30  C   UNL     1       0.023  -0.702   1.195  0.00  0.00    +0.004 A 
ENDBRANCH  23  28
ENDBRANCH  22  23
ENDBRANCH  16  22
ENDBRANCH   1  20
BRANCH  13  31
ATOM     31  S   UNL     1       5.222 -10.171   4.900  0.00  0.00    -0.080 S 
BRANCH  31  32
ATOM     32  C   UNL     1       5.327 -11.952   5.232  0.00  0.00    +0.115 C 
BRANCH  32  33
ATOM     33  C   UNL     1       5.532 -12.176   6.708  0.00  0.00    -0.002 A 
ATOM     34  C   UNL     1       6.812 -12.232   7.228  0.00  0.00    +0.007 A 
ATOM     35  C   UNL     1       7.000 -12.438   8.581  0.00  0.00    +0.000 A 
ATOM     36  C   UNL     1       5.909 -12.588   9.417  0.00  0.00    +0.003 A 
ATOM     37  C   UNL     1       4.629 -12.531   8.900  0.00  0.00    +0.038 A 
ATOM     38  C   UNL     1       4.439 -12.320   7.545  0.00  0.00    +0.127 A 
ATOM     39  F   UNL     1       3.188 -12.260   7.039  0.00  0.00    -0.205 F 
ENDBRANCH  32  33
ENDBRANCH  31  32
ENDBRANCH  13  31
TORSDOF 7
