REMARK  Name = ZINC03262647
REMARK  9 active torsions:
REMARK  status: ('A' for Active; 'I' for Inactive)
REMARK    1  A    between atoms: C_1  and  C_2
REMARK    2  A    between atoms: C_11  and  O_13
REMARK    3  A    between atoms: O_13  and  C_14
REMARK    4  A    between atoms: C_14  and  C_15
REMARK    5  A    between atoms: C_15  and  O_17
REMARK    6  A    between atoms: O_17  and  C_18
REMARK    7  A    between atoms: C_18  and  C_19
REMARK    8  A    between atoms: C_22  and  C_34
REMARK    9  A    between atoms: C_25  and  C_27
REMARK                            x       y       z     vdW  Elec       q    Type
REMARK                         _______ _______ _______ _____ _____    ______ ____
ROOT
ATOM      1  C   UNL     1       0.142  -2.929  10.779  0.00  0.00    +0.270 C 
ATOM      2  O   UNL     1       0.125  -1.717  10.815  0.00  0.00    -0.270 OA
ATOM      3  N   UNL     1       0.162  -3.638  11.925  0.00  0.00    -0.205 N 
ATOM      4  C   UNL     1       0.161  -3.103  13.297  0.00  0.00    +0.187 C 
ATOM      5  C   UNL     1       0.189  -4.325  14.187  0.00  0.00    +0.030 C 
ATOM      6  C   UNL     1       0.202  -5.394  13.394  0.00  0.00    +0.050 C 
ATOM      7  N   UNL     1       0.182  -5.033  12.054  0.00  0.00    -0.261 N 
ATOM      8  H   UNL     1       0.184  -5.658  11.312  0.00  0.00    +0.170 HD
ENDROOT
BRANCH   6   9
ATOM      9  C   UNL     1       0.231  -6.792  13.881  0.00  0.00    -0.003 A 
ATOM     10  C   UNL     1       0.239  -7.057  15.250  0.00  0.00    +0.011 A 
ATOM     11  C   UNL     1       0.265  -8.361  15.698  0.00  0.00    +0.020 A 
ATOM     12  C   UNL     1       0.282  -9.407  14.791  0.00  0.00    +0.041 A 
ATOM     13  C   UNL     1       0.275  -9.150  13.430  0.00  0.00    +0.020 A 
ATOM     14  C   UNL     1       0.244  -7.850  12.972  0.00  0.00    +0.011 A 
ATOM     15 CL   UNL     1       0.316 -11.046  15.361  0.00  0.00    -0.084 Cl
ENDBRANCH   6   9
BRANCH   4  16
ATOM     16  C   UNL     1       1.384  -2.254  13.530  0.00  0.00    +0.131 A 
ATOM     17  C   UNL     1       1.420  -1.099  14.218  0.00  0.00    +0.047 A 
ATOM     18  C   UNL     1       2.759  -0.645  14.186  0.00  0.00    +0.041 A 
ATOM     19  C   UNL     1       3.461  -1.550  13.481  0.00  0.00    +0.195 A 
ATOM     20  O   UNL     1       2.624  -2.525  13.091  0.00  0.00    -0.466 OA
ENDBRANCH   4  16
BRANCH   1  21
ATOM     21  C   UNL     1       0.139  -3.644   9.452  0.00  0.00    +0.329 C 
BRANCH  21  22
ATOM     22  O   UNL     1       0.116  -2.683   8.394  0.00  0.00    -0.453 OA
BRANCH  22  23
ATOM     23  C   UNL     1       0.111  -3.159   7.139  0.00  0.00    +0.346 C 
ATOM     24  O   UNL     1       0.126  -4.351   6.945  0.00  0.00    -0.247 OA
BRANCH  23  25
ATOM     25  C   UNL     1       0.087  -2.206   5.972  0.00  0.00    +0.349 C 
BRANCH  25  26
ATOM     26  O   UNL     1       0.086  -2.948   4.751  0.00  0.00    -0.481 OA
BRANCH  26  37
ATOM     27  C   UNL     1      -0.018   1.503   0.010  0.00  0.00    +0.045 C 
ATOM     28  C   UNL     1       0.002  -0.004   0.002  0.00  0.00    -0.033 A 
ATOM     29  C   UNL     1       0.006  -0.695  -1.167  0.00  0.00    +0.096 A 
ATOM     30  C   UNL     1       0.026  -2.105  -1.149  0.00  0.00    +0.337 A 
ATOM     31  O   UNL     1       0.030  -2.712  -2.204  0.00  0.00    -0.245 OA
ATOM     32  O   UNL     1       0.041  -2.795   0.003  0.00  0.00    -0.422 OA
ATOM     33  C   UNL     1       0.038  -2.169   1.199  0.00  0.00    +0.143 A 
ATOM     34  C   UNL     1       0.024  -0.763   1.254  0.00  0.00    +0.021 A 
ATOM     35  C   UNL     1       0.026  -0.111   2.492  0.00  0.00    +0.015 A 
ATOM     36  C   UNL     1       0.046  -0.842   3.644  0.00  0.00    +0.046 A 
ATOM     37  C   UNL     1       0.066  -2.234   3.596  0.00  0.00    +0.125 A 
ATOM     38  C   UNL     1       0.053  -2.897   2.379  0.00  0.00    +0.092 A 
ENDBRANCH  26  37
ENDBRANCH  25  26
ENDBRANCH  23  25
ENDBRANCH  22  23
ENDBRANCH  21  22
ENDBRANCH   1  21
TORSDOF 8
