REMARK  Name = ZINC34787810
REMARK  5 active torsions:
REMARK  status: ('A' for Active; 'I' for Inactive)
REMARK    1  A    between atoms: C_1  and  C_2
REMARK    2  A    between atoms: C_7  and  C_8
REMARK    3  A    between atoms: N_17  and  C_18
REMARK    4  A    between atoms: C_18  and  C_19
REMARK    5  A    between atoms: C_27  and  C_29
REMARK                            x       y       z     vdW  Elec       q    Type
REMARK                         _______ _______ _______ _____ _____    ______ ____
ROOT
ATOM      1  C   UNL     1       2.691  -3.255   3.809  0.00  0.00    +0.199 C 
ATOM      2  O   UNL     1       2.024  -3.681   4.728  0.00  0.00    -0.278 OA
ATOM      3  N   UNL     1       4.035  -3.341   3.856  0.00  0.00    -0.300 N 
ATOM      4  C   UNL     1       4.856  -2.822   2.753  0.00  0.00    +0.126 C 
ATOM      5  C   UNL     1       5.865  -1.818   3.322  0.00  0.00    +0.127 C 
ATOM      6  N   UNL     1       6.536  -2.430   4.478  0.00  0.00    -0.295 N 
ATOM      7  C   UNL     1       5.715  -2.948   5.581  0.00  0.00    +0.127 C 
ATOM      8  C   UNL     1       4.706  -3.948   5.014  0.00  0.00    +0.126 C 
ATOM      9  C   UNL     1       7.880  -2.516   4.524  0.00  0.00    +0.247 C 
ATOM     10  O   UNL     1       8.427  -2.961   5.515  0.00  0.00    -0.270 OA
ENDROOT
BRANCH   9  11
ATOM     11  C   UNL     1       8.689  -2.068   3.373  0.00  0.00    +0.041 A 
ATOM     12  C   UNL     1       8.486  -0.799   2.826  0.00  0.00    +0.017 A 
ATOM     13  C   UNL     1       9.242  -0.383   1.753  0.00  0.00    +0.050 A 
ATOM     14  C   UNL     1      10.207  -1.221   1.210  0.00  0.00    +0.166 A 
ATOM     15  C   UNL     1      10.414  -2.491   1.751  0.00  0.00    +0.167 A 
ATOM     16  C   UNL     1       9.662  -2.911   2.832  0.00  0.00    +0.062 A 
ATOM     17  O   UNL     1      11.406  -3.108   1.045  0.00  0.00    -0.453 OA
ATOM     18  C   UNL     1      11.520  -2.368  -0.184  0.00  0.00    +0.466 C 
ATOM     19  O   UNL     1      11.069  -1.047   0.168  0.00  0.00    -0.453 OA
ENDBRANCH   9  11
BRANCH   1  20
ATOM     20  C   UNL     1       2.016  -2.630   2.615  0.00  0.00    +0.020 C 
BRANCH  20  29
ATOM     21  C   UNL     1      -0.095  -2.157   1.591  0.00  0.00    -0.005 C 
ATOM     22  C   UNL     1      -1.600  -2.091   1.833  0.00  0.00    -0.047 A 
ATOM     23  C   UNL     1      -2.551  -2.042   0.818  0.00  0.00    +0.010 A 
ATOM     24  C   UNL     1      -3.868  -1.988   1.127  0.00  0.00    +0.045 A 
ATOM     25  S   UNL     1      -3.830  -2.003   2.913  0.00  0.00    -0.101 S 
ATOM     26  C   UNL     1      -2.073  -2.078   3.112  0.00  0.00    -0.010 A 
ATOM     27  C   UNL     1      -1.254  -2.118   4.361  0.00  0.00    +0.024 C 
ATOM     28  C   UNL     1       0.205  -1.830   3.968  0.00  0.00    -0.072 C 
ATOM     29  N   UNL     1       0.560  -2.657   2.806  0.00  0.00    +0.393 N 
ATOM     30  H   UNL     1       0.266  -3.607   2.974  0.00  0.00    -0.080 HD
BRANCH  21  37
ATOM     31  C   UNL     1      -0.195  -1.177  -1.125  0.00  0.00    +0.044 C 
ATOM     32  C   UNL     1       0.144  -2.620  -0.857  0.00  0.00    -0.049 A 
ATOM     33  C   UNL     1       0.412  -3.474  -1.911  0.00  0.00    +0.003 A 
ATOM     34  C   UNL     1       0.722  -4.799  -1.665  0.00  0.00    +0.000 A 
ATOM     35  C   UNL     1       0.765  -5.269  -0.365  0.00  0.00    +0.000 A 
ATOM     36  C   UNL     1       0.497  -4.415   0.688  0.00  0.00    +0.002 A 
ATOM     37  C   UNL     1       0.191  -3.090   0.442  0.00  0.00    -0.054 A 
ENDBRANCH  21  37
ENDBRANCH  20  29
ENDBRANCH   1  20
TORSDOF 4
