REMARK  Name = ZINC13096522
REMARK  10 active torsions:
REMARK  status: ('A' for Active; 'I' for Inactive)
REMARK    1  A    between atoms: C_1  and  C_2
REMARK    2  A    between atoms: C_2  and  N_58
REMARK    3  A    between atoms: C_3  and  C_4
REMARK    4  A    between atoms: C_3  and  N_58
REMARK    5  A    between atoms: C_10  and  C_16
REMARK    6  A    between atoms: C_11  and  C_15
REMARK    7  A    between atoms: C_22  and  C_23
REMARK    8  A    between atoms: C_22  and  N_58
REMARK    9  A    between atoms: N_25  and  C_26
REMARK   10  A    between atoms: C_31  and  C_32
REMARK                            x       y       z     vdW  Elec       q    Type
REMARK                         _______ _______ _______ _____ _____    ______ ____
ROOT
ATOM      1  C   UNL     1      -7.241  -0.281  -0.618  0.00  0.00    -0.003 C 
ENDROOT
BRANCH   1   2
ATOM      2  C   UNL     1      -8.249  -1.308  -1.064  0.00  0.00    +0.094 A 
ATOM      3  N   UNL     1      -9.459  -0.898  -1.525  0.00  0.00    -0.312 N 
ATOM      4  H   UNL     1      -9.658   0.050  -1.560  0.00  0.00    +0.170 HD
ATOM      5  C   UNL     1     -10.386  -1.783  -1.937  0.00  0.00    +0.260 A 
ATOM      6  O   UNL     1     -11.466  -1.399  -2.353  0.00  0.00    -0.267 OA
ATOM      7  C   UNL     1     -10.086  -3.181  -1.876  0.00  0.00    +0.080 A 
ATOM      8  C   UNL     1     -10.915  -4.320  -2.254  0.00  0.00    +0.007 A 
ATOM      9  C   UNL     1     -10.413  -5.569  -2.105  0.00  0.00    -0.003 A 
ATOM     10  S   UNL     1      -8.783  -5.282  -1.441  0.00  0.00    -0.073 S 
ATOM     11  C   UNL     1      -8.814  -3.510  -1.381  0.00  0.00    +0.116 A 
ATOM     12  N   UNL     1      -7.947  -2.577  -0.995  0.00  0.00    -0.229 NA
ATOM     13  C   UNL     1     -11.073  -6.886  -2.424  0.00  0.00    +0.052 C 
BRANCH   8  14
ATOM     14  C   UNL     1     -12.281  -4.114  -2.792  0.00  0.00    -0.016 A 
ATOM     15  C   UNL     1     -12.462  -3.465  -4.013  0.00  0.00    +0.008 A 
ATOM     16  C   UNL     1     -13.736  -3.281  -4.511  0.00  0.00    +0.001 A 
ATOM     17  C   UNL     1     -14.832  -3.729  -3.796  0.00  0.00    +0.000 A 
ATOM     18  C   UNL     1     -14.659  -4.369  -2.582  0.00  0.00    +0.001 A 
ATOM     19  C   UNL     1     -13.390  -4.564  -2.076  0.00  0.00    +0.008 A 
ENDBRANCH   8  14
ENDBRANCH   1   2
BRANCH   1  20
ATOM     20  N   UNL     1      -5.976  -0.970  -0.288  0.00  0.00    +0.390 N 
ATOM     21  H   UNL     1      -5.755  -1.639  -1.035  0.00  0.00    -0.081 HD
BRANCH  20  23
ATOM     22  C   UNL     1      -6.522  -0.752   2.114  0.00  0.00    -0.017 C 
ATOM     23  C   UNL     1      -6.119  -1.705   0.987  0.00  0.00    -0.081 C 
ENDBRANCH  20  23
BRANCH  20  24
ATOM     24  C   UNL     1      -4.877   0.013  -0.183  0.00  0.00    +0.019 C 
BRANCH  24  25
ATOM     25  C   UNL     1      -3.570  -0.729  -0.066  0.00  0.00    +0.201 C 
ATOM     26  O   UNL     1      -3.561  -1.942  -0.054  0.00  0.00    -0.278 OA
ATOM     27  N   UNL     1      -2.413  -0.045   0.025  0.00  0.00    -0.287 N 
ATOM     28  H   UNL     1      -2.425   0.922   0.098  0.00  0.00    +0.155 HD
BRANCH  27  29
ATOM     29  C   UNL     1      -1.193  -0.730   0.013  0.00  0.00    +0.045 A 
ATOM     30  C   UNL     1      -1.102  -1.980  -0.584  0.00  0.00    +0.024 A 
ATOM     31  C   UNL     1       0.104  -2.653  -0.594  0.00  0.00    +0.002 A 
ATOM     32  C   UNL     1       1.221  -2.083  -0.010  0.00  0.00    +0.001 A 
ATOM     33  C   UNL     1       1.135  -0.836   0.581  0.00  0.00    +0.014 A 
ATOM     34  C   UNL     1      -0.070  -0.160   0.599  0.00  0.00    +0.076 A 
BRANCH  34  35
ATOM     35  C   UNL     1      -0.164   1.196   1.249  0.00  0.00    +0.419 C 
ATOM     36  F   UNL     1       1.087   1.554   1.764  0.00  0.00    -0.166 F 
ATOM     37  F   UNL     1      -0.565   2.142   0.299  0.00  0.00    -0.166 F 
ATOM     38  F   UNL     1      -1.101   1.152   2.287  0.00  0.00    -0.166 F 
ENDBRANCH  34  35
ENDBRANCH  27  29
ENDBRANCH  24  25
ENDBRANCH  20  24
ENDBRANCH   1  20
TORSDOF 8
