REMARK  Name = ZINC35863204
REMARK  11 active torsions:
REMARK  status: ('A' for Active; 'I' for Inactive)
REMARK    1  A    between atoms: C_1  and  C_2
REMARK    2  A    between atoms: C_2  and  C_3
REMARK    3  A    between atoms: C_2  and  C_4
REMARK    4  A    between atoms: C_4  and  C_5
REMARK    5  A    between atoms: C_5  and  N_6
REMARK    6  A    between atoms: C_7  and  C_9
REMARK    7  A    between atoms: C_12  and  C_14
REMARK    8  A    between atoms: C_14  and  O_15
REMARK    9  A    between atoms: O_15  and  C_16
REMARK   10  A    between atoms: C_22  and  C_34
REMARK   11  A    between atoms: C_27  and  C_29
REMARK                            x       y       z     vdW  Elec       q    Type
REMARK                         _______ _______ _______ _____ _____    ______ ____
ROOT
ATOM      1  C   UNL     1     -10.205  -3.046  -1.055  0.00  0.00    +0.122 A 
ATOM      2  C   UNL     1     -11.148  -2.869  -0.053  0.00  0.00    +0.046 A 
ATOM      3  C   UNL     1     -12.452  -2.574  -0.385  0.00  0.00    +0.007 A 
ATOM      4  C   UNL     1     -12.834  -2.450  -1.716  0.00  0.00    -0.040 A 
ATOM      5  C   UNL     1     -11.896  -2.616  -2.711  0.00  0.00    -0.016 A 
ATOM      6  C   UNL     1     -10.582  -2.914  -2.381  0.00  0.00    +0.051 A 
ATOM      7  C   UNL     1     -12.236  -2.466  -4.173  0.00  0.00    +0.137 C 
ATOM      8  N   UNL     1     -13.692  -2.412  -4.339  0.00  0.00    -0.290 N 
ATOM      9  C   UNL     1     -14.448  -1.562  -3.404  0.00  0.00    +0.113 C 
ATOM     10  C   UNL     1     -14.281  -2.142  -2.001  0.00  0.00    +0.054 C 
ATOM     11  C   UNL     1     -14.314  -3.113  -5.308  0.00  0.00    +0.219 C 
ATOM     12  O   UNL     1     -13.668  -3.807  -6.064  0.00  0.00    -0.275 OA
ENDROOT
BRANCH   7  13
ATOM     13  C   UNL     1     -11.625  -1.194  -4.702  0.00  0.00    -0.023 A 
ATOM     14  C   UNL     1     -10.801  -1.232  -5.812  0.00  0.00    +0.006 A 
ATOM     15  C   UNL     1     -10.240  -0.066  -6.297  0.00  0.00    +0.000 A 
ATOM     16  C   UNL     1     -10.504   1.139  -5.673  0.00  0.00    +0.000 A 
ATOM     17  C   UNL     1     -11.328   1.178  -4.564  0.00  0.00    +0.000 A 
ATOM     18  C   UNL     1     -11.892   0.012  -4.081  0.00  0.00    +0.006 A 
ENDBRANCH   7  13
BRANCH  11  19
ATOM     19  C   UNL     1     -15.812  -3.036  -5.451  0.00  0.00    +0.075 C 
ATOM     20  C   UNL     1     -16.494  -3.590  -4.183  0.00  0.00    +0.013 C 
ATOM     21  C   UNL     1     -17.743  -4.333  -4.717  0.00  0.00    +0.001 C 
ATOM     22  C   UNL     1     -17.223  -4.981  -6.024  0.00  0.00    +0.001 C 
ATOM     23  C   UNL     1     -16.276  -3.920  -6.622  0.00  0.00    +0.013 C 
ENDBRANCH  11  19
BRANCH   1  24
ATOM     24  O   UNL     1      -8.917  -3.341  -0.738  0.00  0.00    -0.483 OA
BRANCH  24  25
ATOM     25  C   UNL     1      -8.602  -3.462   0.651  0.00  0.00    +0.324 C 
BRANCH  25  29
ATOM     26  C   UNL     1      -5.004  -3.589   1.046  0.00  0.00    +0.164 A 
ATOM     27  C   UNL     1      -5.292  -4.918   0.998  0.00  0.00    +0.230 A 
ATOM     28  O   UNL     1      -6.622  -5.025   0.850  0.00  0.00    -0.444 OA
ATOM     29  C   UNL     1      -7.140  -3.790   0.809  0.00  0.00    +0.234 A 
ATOM     30  N   UNL     1      -6.183  -2.920   0.930  0.00  0.00    -0.206 NA
BRANCH  26  32
ATOM     31  N   UNL     1      -3.531  -1.647   1.239  0.00  0.00    -0.310 N 
ATOM     32  C   UNL     1      -3.667  -2.988   1.201  0.00  0.00    +0.266 C 
ATOM     33  O   UNL     1      -2.686  -3.701   1.296  0.00  0.00    -0.268 OA
ATOM     34  H   UNL     1      -4.313  -1.078   1.163  0.00  0.00    +0.149 HD
BRANCH  31  35
ATOM     35  C   UNL     1      -2.202  -1.050   1.393  0.00  0.00    +0.105 C 
BRANCH  35  36
ATOM     36  C   UNL     1      -2.327   0.475   1.405  0.00  0.00    +0.022 C 
BRANCH  36  38
ATOM     37  C   UNL     1      -1.048   2.621   1.454  0.00  0.00    +0.007 C 
ATOM     38  C   UNL     1      -0.939   1.099   1.566  0.00  0.00    -0.016 C 
ATOM     39  C   UNL     1      -0.369   0.728   2.937  0.00  0.00    +0.007 C 
ENDBRANCH  36  38
ENDBRANCH  35  36
ENDBRANCH  31  35
ENDBRANCH  26  32
ENDBRANCH  25  29
ENDBRANCH  24  25
ENDBRANCH   1  24
TORSDOF 9
