REMARK  Name = ZINC20885401
REMARK  15 active torsions:
REMARK  status: ('A' for Active; 'I' for Inactive)
REMARK    1  A    between atoms: C_1  and  C_2
REMARK    2  A    between atoms: C_2  and  O_3
REMARK    3  A    between atoms: O_3  and  C_4
REMARK    4  A    between atoms: C_6  and  C_14
REMARK    5  A    between atoms: C_9  and  O_10
REMARK    6  A    between atoms: O_10  and  C_11
REMARK    7  A    between atoms: C_11  and  C_12
REMARK    8  A    between atoms: C_11  and  C_13
REMARK    9  A    between atoms: C_25  and  C_28
REMARK   10  A    between atoms: C_31  and  O_36
REMARK   11  A    between atoms: C_32  and  O_34
REMARK   12  A    between atoms: O_34  and  C_35
REMARK   13  A    between atoms: O_36  and  C_37
REMARK   14  A    between atoms: C_37  and  C_38
REMARK   15  A    between atoms: C_37  and  C_39
REMARK                            x       y       z     vdW  Elec       q    Type
REMARK                         _______ _______ _______ _____ _____    ______ ____
ROOT
ATOM      1  C   UNL     1       4.139  -1.250  -1.970  0.00  0.00    +0.063 C 
ATOM      2  C   UNL     1       3.494  -1.956  -0.776  0.00  0.00    +0.109 C 
ATOM      3  C   UNL     1       2.473  -1.040  -0.152  0.00  0.00    +0.218 C 
ATOM      4  O   UNL     1       1.467  -1.502   0.343  0.00  0.00    -0.275 OA
ATOM      5  N   UNL     1       2.676   0.289  -0.143  0.00  0.00    -0.289 N 
ATOM      6  C   UNL     1       3.817   0.837  -0.673  0.00  0.00    +0.018 C 
ATOM      7  C   UNL     1       4.560   0.142  -1.561  0.00  0.00    +0.020 C 
ATOM      8  C   UNL     1       5.726   0.687  -2.122  0.00  0.00    +0.162 C 
ATOM      9  O   UNL     1       6.375   0.028  -2.910  0.00  0.00    -0.292 OA
ATOM     10  C   UNL     1       6.186   2.075  -1.763  0.00  0.00    +0.088 C 
ATOM     11  C   UNL     1       4.965   2.920  -1.385  0.00  0.00    +0.032 C 
ATOM     12  C   UNL     1       4.223   2.223  -0.242  0.00  0.00    +0.059 C 
ATOM     13  H   UNL     1       1.921   0.958   0.295  0.00  0.00    +0.155 HD
ENDROOT
BRANCH   1  16
ATOM     14  C   UNL     1       2.517  -1.677  -5.355  0.00  0.00    +0.162 A 
ATOM     15  C   UNL     1       3.430  -1.756  -4.315  0.00  0.00    +0.053 A 
ATOM     16  C   UNL     1       3.145  -1.163  -3.099  0.00  0.00    -0.036 A 
ATOM     17  C   UNL     1       1.948  -0.495  -2.916  0.00  0.00    +0.008 A 
ATOM     18  C   UNL     1       1.036  -0.409  -3.950  0.00  0.00    +0.050 A 
ATOM     19  C   UNL     1       1.315  -1.001  -5.172  0.00  0.00    +0.162 A 
BRANCH  14  20
ATOM     20  O   UNL     1       2.796  -2.260  -6.551  0.00  0.00    -0.489 OA
BRANCH  20  22
ATOM     21  C   UNL     1       4.183  -3.525  -8.073  0.00  0.00    +0.048 C 
ATOM     22  C   UNL     1       4.048  -2.938  -6.667  0.00  0.00    +0.226 C 
ENDBRANCH  20  22
ENDBRANCH  14  20
BRANCH  19  23
ATOM     23  O   UNL     1       0.416  -0.921  -6.189  0.00  0.00    -0.486 OA
BRANCH  23  24
ATOM     24  C   UNL     1      -0.843  -0.313  -5.896  0.00  0.00    +0.167 C 
ATOM     25  C   UNL     1      -0.726   1.204  -6.051  0.00  0.00    +0.051 C 
ATOM     26  C   UNL     1      -1.904  -0.845  -6.862  0.00  0.00    +0.051 C 
ENDBRANCH  23  24
ENDBRANCH  19  23
ENDBRANCH   1  16
BRANCH  11  27
ATOM     27  C   UNL     1       5.415   4.287  -0.936  0.00  0.00    -0.040 A 
ATOM     28  C   UNL     1       6.258   4.413   0.153  0.00  0.00    +0.008 A 
ATOM     29  C   UNL     1       6.675   5.664   0.567  0.00  0.00    +0.050 A 
ATOM     30  C   UNL     1       6.248   6.796  -0.109  0.00  0.00    +0.162 A 
ATOM     31  C   UNL     1       5.399   6.669  -1.205  0.00  0.00    +0.162 A 
ATOM     32  C   UNL     1       4.990   5.412  -1.619  0.00  0.00    +0.053 A 
BRANCH  31  33
ATOM     33  O   UNL     1       4.978   7.777  -1.872  0.00  0.00    -0.491 OA
ATOM     34  C   UNL     1       4.108   7.571  -2.987  0.00  0.00    +0.277 C 
ENDBRANCH  31  33
BRANCH  30  35
ATOM     35  O   UNL     1       6.657   8.027   0.297  0.00  0.00    -0.486 OA
BRANCH  35  36
ATOM     36  C   UNL     1       7.428   8.091   1.498  0.00  0.00    +0.167 C 
ATOM     37  C   UNL     1       8.900   7.829   1.174  0.00  0.00    +0.051 C 
ATOM     38  C   UNL     1       7.284   9.479   2.124  0.00  0.00    +0.051 C 
ENDBRANCH  35  36
ENDBRANCH  30  35
ENDBRANCH  11  27
TORSDOF 9
