REMARK  Name = ZINC36117097
REMARK  14 active torsions:
REMARK  status: ('A' for Active; 'I' for Inactive)
REMARK    1  A    between atoms: C_1  and  C_2
REMARK    2  A    between atoms: C_2  and  C_3
REMARK    3  A    between atoms: C_2  and  C_4
REMARK    4  A    between atoms: C_4  and  C_5
REMARK    5  A    between atoms: C_5  and  N_6
REMARK    6  A    between atoms: N_6  and  C_7
REMARK    7  A    between atoms: C_7  and  C_8
REMARK    8  A    between atoms: C_18  and  C_20
REMARK    9  A    between atoms: C_20  and  O_21
REMARK   10  A    between atoms: O_21  and  C_22
REMARK   11  A    between atoms: C_25  and  C_28
REMARK   12  A    between atoms: C_28  and  C_29
REMARK   13  A    between atoms: C_28  and  C_30
REMARK   14  A    between atoms: C_31  and  C_33
REMARK                            x       y       z     vdW  Elec       q    Type
REMARK                         _______ _______ _______ _____ _____    ______ ____
ROOT
ATOM      1  C   UNL     1      -3.147  -3.004  -2.218  0.00  0.00    +0.234 C 
ATOM      2  O   UNL     1      -2.517  -3.971  -1.847  0.00  0.00    -0.274 OA
ATOM      3  N   UNL     1      -3.659  -2.970  -3.464  0.00  0.00    -0.289 N 
ATOM      4  C   UNL     1      -4.419  -1.800  -3.927  0.00  0.00    +0.114 C 
ATOM      5  C   UNL     1      -3.638  -1.140  -5.074  0.00  0.00    +0.061 C 
ATOM      6  C   UNL     1      -3.127  -2.210  -5.983  0.00  0.00    -0.004 A 
ATOM      7  C   UNL     1      -3.020  -3.542  -5.729  0.00  0.00    -0.014 A 
ATOM      8  C   UNL     1      -2.499  -4.335  -6.751  0.00  0.00    +0.013 A 
ATOM      9  C   UNL     1      -2.135  -3.770  -7.925  0.00  0.00    +0.046 A 
ATOM     10  S   UNL     1      -2.517  -2.049  -7.641  0.00  0.00    -0.101 S 
ATOM     11  C   UNL     1      -3.460  -4.101  -4.382  0.00  0.00    +0.144 C 
ENDROOT
BRANCH   1  12
ATOM     12  C   UNL     1      -3.357  -1.838  -1.286  0.00  0.00    +0.204 C 
BRANCH  12  13
ATOM     13  N   UNL     1      -2.708  -2.117  -0.002  0.00  0.00    -0.289 N 
ATOM     14  C   UNL     1      -3.457  -2.354   1.094  0.00  0.00    +0.250 C 
ATOM     15  O   UNL     1      -2.919  -2.545   2.167  0.00  0.00    -0.270 OA
BRANCH  14  16
ATOM     16  C   UNL     1      -4.929  -2.383   0.990  0.00  0.00    +0.072 A 
ATOM     17  C   UNL     1      -5.542  -2.805  -0.192  0.00  0.00    +0.016 A 
ATOM     18  C   UNL     1      -6.917  -2.829  -0.282  0.00  0.00    +0.001 A 
ATOM     19  C   UNL     1      -7.693  -2.437   0.796  0.00  0.00    +0.003 A 
ATOM     20  C   UNL     1      -7.097  -2.017   1.970  0.00  0.00    +0.039 A 
ATOM     21  C   UNL     1      -5.718  -1.993   2.077  0.00  0.00    +0.135 A 
ATOM     22  F   UNL     1      -5.135  -1.588   3.227  0.00  0.00    -0.205 F 
ENDBRANCH  14  16
BRANCH  13  23
ATOM     23  C   UNL     1      -1.247  -2.137   0.091  0.00  0.00    +0.109 C 
BRANCH  23  24
ATOM     24  C   UNL     1      -0.730  -0.714   0.316  0.00  0.00    +0.022 C 
BRANCH  24  26
ATOM     25  C   UNL     1       1.312   0.724   0.357  0.00  0.00    +0.007 C 
ATOM     26  C   UNL     1       0.799  -0.716   0.281  0.00  0.00    -0.016 C 
ATOM     27  C   UNL     1       1.335  -1.511   1.474  0.00  0.00    +0.007 C 
ENDBRANCH  24  26
ENDBRANCH  23  24
ENDBRANCH  13  23
ENDBRANCH  12  13
ENDBRANCH   1  12
BRANCH  11  28
ATOM     28  C   UNL     1      -4.772  -4.870  -4.548  0.00  0.00    +0.256 C 
BRANCH  28  29
ATOM     29  O   UNL     1      -5.737  -4.033  -5.188  0.00  0.00    -0.490 OA
BRANCH  29  30
ATOM     30  C   UNL     1      -6.966  -4.568  -5.413  0.00  0.00    +0.121 A 
ATOM     31  C   UNL     1      -7.239  -5.870  -5.019  0.00  0.00    +0.046 A 
ATOM     32  C   UNL     1      -8.489  -6.412  -5.247  0.00  0.00    +0.007 A 
ATOM     33  C   UNL     1      -9.468  -5.657  -5.869  0.00  0.00    -0.045 A 
ATOM     34  C   UNL     1      -9.198  -4.360  -6.262  0.00  0.00    +0.007 A 
ATOM     35  C   UNL     1      -7.951  -3.812  -6.030  0.00  0.00    +0.046 A 
BRANCH  33  36
ATOM     36  C   UNL     1     -10.831  -6.251  -6.117  0.00  0.00    +0.013 C 
ATOM     37  C   UNL     1     -11.890  -5.417  -5.394  0.00  0.00    +0.012 C 
ATOM     38  C   UNL     1     -11.120  -6.251  -7.620  0.00  0.00    +0.012 C 
ENDBRANCH  33  36
ENDBRANCH  29  30
ENDBRANCH  28  29
ENDBRANCH  11  28
TORSDOF 10
