REMARK  Name = ZINC19798386
REMARK  3 active torsions:
REMARK  status: ('A' for Active; 'I' for Inactive)
REMARK    1  A    between atoms: C_1  and  C_2
REMARK    2  A    between atoms: C_2  and  C_4
REMARK    3  A    between atoms: C_2  and  C_10
REMARK                            x       y       z     vdW  Elec       q    Type
REMARK                         _______ _______ _______ _____ _____    ______ ____
ROOT
ATOM      1  C   UNL     1       4.235   2.592  -0.024  0.00  0.00    +0.117 A 
ATOM      2  N   UNL     1       3.935   1.309  -0.028  0.00  0.00    -0.145 NA
ATOM      3  N   UNL     1       2.743   0.897  -0.013  0.00  0.00    -0.134 NA
ATOM      4  C   UNL     1       1.714   1.735  -0.005  0.00  0.00    +0.169 A 
ATOM      5  S   UNL     1       2.589   3.297  -0.005  0.00  0.00    -0.043 S 
ATOM      6  S   UNL     1      -0.017   1.406   0.010  0.00  0.00    -0.021 SA
ENDROOT
BRANCH   1   8
ATOM      7  C   UNL     1       6.349   2.864  -1.291  0.00  0.00    +0.026 C 
ATOM      8  C   UNL     1       5.580   3.271  -0.033  0.00  0.00    +0.156 C 
BRANCH   8   9
ATOM      9  C   UNL     1       6.360   2.858   1.188  0.00  0.00    +0.365 C 
ATOM     10  O   UNL     1       5.874   2.090   1.984  0.00  0.00    -0.246 OA
ATOM     11  O   UNL     1       7.595   3.342   1.392  0.00  0.00    -0.246 OA
ENDBRANCH   8   9
ENDBRANCH   1   8
TORSDOF 2
