REMARK  Name = ZINC15862399
REMARK  7 active torsions:
REMARK  status: ('A' for Active; 'I' for Inactive)
REMARK    1  A    between atoms: C_1  and  C_2
REMARK    2  A    between atoms: C_2  and  C_3
REMARK    3  A    between atoms: C_2  and  C_4
REMARK    4  A    between atoms: C_7  and  N_10
REMARK    5  A    between atoms: C_24  and  C_25
REMARK    6  A    between atoms: C_24  and  C_26
REMARK    7  A    between atoms: N_28  and  C_29
REMARK                            x       y       z     vdW  Elec       q    Type
REMARK                         _______ _______ _______ _____ _____    ______ ____
ROOT
ATOM      1  N   UNL     1      -3.800   6.263  -0.083  0.00  0.00    -0.243 N 
ATOM      2  C   UNL     1      -2.480   6.186  -0.339  0.00  0.00    +0.269 C 
ATOM      3  O   UNL     1      -1.886   7.173  -0.729  0.00  0.00    -0.268 OA
ATOM      4  C   UNL     1      -1.745   4.925  -0.151  0.00  0.00    +0.113 A 
ATOM      5  C   UNL     1      -0.424   4.650  -0.352  0.00  0.00    +0.041 A 
ATOM      6  C   UNL     1      -0.219   3.245  -0.014  0.00  0.00    +0.002 A 
ATOM      7  C   UNL     1       0.898   2.402  -0.019  0.00  0.00    +0.030 A 
ATOM      8  C   UNL     1       0.763   1.096   0.362  0.00  0.00    +0.042 A 
ATOM      9  C   UNL     1      -0.473   0.599   0.754  0.00  0.00    +0.022 A 
ATOM     10  C   UNL     1      -1.587   1.411   0.760  0.00  0.00    +0.028 A 
ATOM     11  C   UNL     1      -1.471   2.744   0.382  0.00  0.00    +0.057 A 
ATOM     12  N   UNL     1      -2.386   3.781   0.292  0.00  0.00    -0.273 N 
ATOM     13  C   UNL     1      -3.710   3.790   0.566  0.00  0.00    +0.265 C 
ATOM     14  O   UNL     1      -4.259   2.780   0.953  0.00  0.00    -0.269 OA
ATOM     15  C   UNL     1      -4.502   5.061   0.388  0.00  0.00    +0.194 C 
ATOM     16  C   UNL     1      -5.633   4.769  -0.599  0.00  0.00    +0.052 C 
ATOM     17 CL   UNL     1       2.149   0.051   0.356  0.00  0.00    -0.084 Cl
ENDROOT
BRANCH   1  21
ATOM     18  C   UNL     1      -5.856   9.844  -0.622  0.00  0.00    -0.045 A 
ATOM     19  C   UNL     1      -5.095   9.650   0.515  0.00  0.00    +0.006 A 
ATOM     20  C   UNL     1      -4.412   8.464   0.697  0.00  0.00    +0.024 A 
ATOM     21  C   UNL     1      -4.490   7.465  -0.264  0.00  0.00    +0.038 A 
ATOM     22  C   UNL     1      -5.252   7.665  -1.409  0.00  0.00    +0.024 A 
ATOM     23  C   UNL     1      -5.936   8.851  -1.582  0.00  0.00    +0.006 A 
BRANCH  18  25
ATOM     24  C   UNL     1      -6.112  11.821  -2.098  0.00  0.00    +0.012 C 
ATOM     25  C   UNL     1      -6.600  11.140  -0.818  0.00  0.00    +0.013 C 
ATOM     26  C   UNL     1      -8.099  10.855  -0.932  0.00  0.00    +0.012 C 
ENDBRANCH  18  25
ENDBRANCH   1  21
BRANCH  15  27
ATOM     27  C   UNL     1      -5.136   5.394   1.714  0.00  0.00    +0.246 C 
ATOM     28  O   UNL     1      -6.207   4.909   2.012  0.00  0.00    -0.273 OA
ATOM     29  N   UNL     1      -4.513   6.229   2.568  0.00  0.00    -0.310 N 
ATOM     30  H   UNL     1      -3.656   6.617   2.330  0.00  0.00    +0.149 HD
BRANCH  29  31
ATOM     31  C   UNL     1      -5.130   6.553   3.857  0.00  0.00    +0.073 C 
ATOM     32  C   UNL     1      -6.146   7.695   3.652  0.00  0.00    +0.022 C 
ATOM     33  C   UNL     1      -7.119   7.681   4.801  0.00  0.00    +0.002 C 
ATOM     34  C   UNL     1      -6.704   8.639   5.934  0.00  0.00    +0.000 C 
ATOM     35  C   UNL     1      -5.192   8.599   6.228  0.00  0.00    +0.000 C 
ATOM     36  C   UNL     1      -4.640   7.199   6.213  0.00  0.00    +0.002 C 
ATOM     37  C   UNL     1      -4.084   6.907   4.805  0.00  0.00    +0.022 C 
ENDBRANCH  29  31
ENDBRANCH  15  27
TORSDOF 4
