REMARK  Name = ZINC03409884
REMARK  10 active torsions:
REMARK  status: ('A' for Active; 'I' for Inactive)
REMARK    1  A    between atoms: C_1  and  O_2
REMARK    2  A    between atoms: O_2  and  C_3
REMARK    3  A    between atoms: C_5  and  C_20
REMARK    4  A    between atoms: C_8  and  O_9
REMARK    5  A    between atoms: O_9  and  C_10
REMARK    6  A    between atoms: C_15  and  N_16
REMARK    7  A    between atoms: N_22  and  C_23
REMARK    8  A    between atoms: C_23  and  C_24
REMARK    9  A    between atoms: C_24  and  C_26
REMARK   10  A    between atoms: C_24  and  N_61
REMARK                            x       y       z     vdW  Elec       q    Type
REMARK                         _______ _______ _______ _____ _____    ______ ____
ROOT
ATOM      1  C   UNL     1       1.772   0.008   0.192  0.00  0.00    +0.163 A 
ATOM      2  C   UNL     1       0.446  -0.299  -0.040  0.00  0.00    +0.062 A 
ATOM      3  C   UNL     1      -0.499   0.726  -0.138  0.00  0.00    +0.040 A 
ATOM      4  C   UNL     1      -0.099   2.057   0.008  0.00  0.00    +0.017 A 
ATOM      5  C   UNL     1       1.226   2.357   0.240  0.00  0.00    +0.051 A 
ATOM      6  C   UNL     1       2.165   1.339   0.333  0.00  0.00    +0.170 A 
ENDROOT
BRANCH   3   7
ATOM      7  C   UNL     1      -1.917   0.403  -0.392  0.00  0.00    +0.244 C 
ATOM      8  O   UNL     1      -2.264  -0.755  -0.515  0.00  0.00    -0.270 OA
ATOM      9  N   UNL     1      -2.826   1.393  -0.487  0.00  0.00    -0.312 N 
ATOM     10  H   UNL     1      -2.549   2.317  -0.388  0.00  0.00    +0.149 HD
BRANCH   9  11
ATOM     11  C   UNL     1      -4.234   1.073  -0.739  0.00  0.00    +0.097 C 
BRANCH  11  12
ATOM     12  C   UNL     1      -5.026   2.368  -0.925  0.00  0.00    +0.016 C 
BRANCH  12  18
ATOM     13  C   UNL     1      -5.087   4.467  -2.130  0.00  0.00    -0.078 C 
ATOM     14  C   UNL     1      -4.325   5.337  -3.133  0.00  0.00    -0.019 C 
ATOM     15  C   UNL     1      -4.260   4.614  -4.482  0.00  0.00    -0.004 C 
ATOM     16  C   UNL     1      -3.586   3.253  -4.290  0.00  0.00    -0.019 C 
ATOM     17  C   UNL     1      -4.369   2.443  -3.254  0.00  0.00    -0.078 C 
ATOM     18  N   UNL     1      -4.374   3.181  -1.973  0.00  0.00    +0.387 N 
ATOM     19  H   UNL     1      -3.405   3.370  -1.693  0.00  0.00    -0.081 HD
ENDBRANCH  12  18
BRANCH  12  20
ATOM     20  C   UNL     1      -6.444   2.038  -1.315  0.00  0.00    +0.093 A 
ATOM     21  C   UNL     1      -7.529   2.184  -0.534  0.00  0.00    +0.043 A 
ATOM     22  C   UNL     1      -8.642   1.760  -1.296  0.00  0.00    +0.041 A 
ATOM     23  C   UNL     1      -8.169   1.373  -2.494  0.00  0.00    +0.195 A 
ATOM     24  O   UNL     1      -6.837   1.544  -2.501  0.00  0.00    -0.469 OA
ENDBRANCH  12  20
ENDBRANCH  11  12
ENDBRANCH   9  11
ENDBRANCH   3   7
BRANCH   1  26
ATOM     25  C   UNL     1       2.222  -2.326   0.131  0.00  0.00    +0.277 C 
ATOM     26  O   UNL     1       2.695  -0.987   0.284  0.00  0.00    -0.491 OA
ENDBRANCH   1  26
BRANCH   6  27
ATOM     27  O   UNL     1       3.470   1.639   0.561  0.00  0.00    -0.450 OA
BRANCH  27  28
ATOM     28  C   UNL     1       4.310   1.688  -0.506  0.00  0.00    +0.159 A 
ATOM     29  C   UNL     1       3.812   1.517  -1.790  0.00  0.00    +0.050 A 
ATOM     30  C   UNL     1       4.667   1.567  -2.874  0.00  0.00    +0.024 A 
ATOM     31  C   UNL     1       6.019   1.788  -2.679  0.00  0.00    +0.043 A 
ATOM     32  C   UNL     1       6.518   1.958  -1.400  0.00  0.00    +0.056 A 
ATOM     33  C   UNL     1       5.665   1.914  -0.314  0.00  0.00    +0.170 A 
ATOM     34 CL   UNL     1       7.092   1.850  -4.043  0.00  0.00    -0.083 Cl
BRANCH  33  35
ATOM     35  N   UNL     1       6.197   2.102   1.054  0.00  0.00    +0.060 N 
ATOM     36  O   UNL     1       7.387   2.301   1.223  0.00  0.00    -0.126 OA
ATOM     37  O   UNL     1       5.446   2.059   2.012  0.00  0.00    -0.126 OA
ENDBRANCH  33  35
ENDBRANCH  27  28
ENDBRANCH   6  27
TORSDOF 9
