REMARK  Name = ZINC20075327
REMARK  7 active torsions:
REMARK  status: ('A' for Active; 'I' for Inactive)
REMARK    1  A    between atoms: C_1  and  C_2
REMARK    2  A    between atoms: C_2  and  C_3
REMARK    3  A    between atoms: N_4  and  N_5
REMARK    4  A    between atoms: N_5  and  C_6
REMARK    5  A    between atoms: C_9  and  N_15
REMARK    6  A    between atoms: C_11  and  N_12
REMARK    7  A    between atoms: N_18  and  C_19
REMARK                            x       y       z     vdW  Elec       q    Type
REMARK                         _______ _______ _______ _____ _____    ______ ____
ROOT
ATOM      1  C   UNL     1      -0.433   2.482   1.098  0.00  0.00    +0.089 C 
ATOM      2  N   UNL     1      -1.420   3.390   0.958  0.00  0.00    -0.297 N 
ATOM      3  N   UNL     1      -0.225   1.906   2.273  0.00  0.00    -0.303 N 
ATOM      4  H   UNL     1       0.506   1.089   2.363  0.00  0.00    +0.153 HD
ATOM      5  H   UNL     1      -1.960   3.756   1.843  0.00  0.00    +0.185 HD
ENDROOT
BRANCH   3   6
ATOM      6  C   UNL     1      -0.927   2.330   3.384  0.00  0.00    +0.045 A 
ATOM      7  C   UNL     1      -2.177   2.935   3.235  0.00  0.00    +0.024 A 
ATOM      8  C   UNL     1      -2.875   3.351   4.348  0.00  0.00    +0.002 A 
ATOM      9  C   UNL     1      -2.335   3.180   5.612  0.00  0.00    +0.001 A 
ATOM     10  C   UNL     1      -1.094   2.586   5.767  0.00  0.00    +0.016 A 
ATOM     11  C   UNL     1      -0.388   2.160   4.661  0.00  0.00    +0.035 A 
ATOM     12  I   UNL     1       1.490   1.261   4.897  0.00  0.00    -0.042 I 
ENDBRANCH   3   6
BRANCH   1  14
ATOM     13  C   UNL     1      -0.029   0.788  -0.667  0.00  0.00    +0.011 C 
ATOM     14  C   UNL     1       0.434   2.124  -0.081  0.00  0.00    +0.067 C 
ENDBRANCH   1  14
BRANCH   2  15
ATOM     15  N   UNL     1      -1.730   3.830  -0.214  0.00  0.00    -0.257 N 
ATOM     16  H   UNL     1      -1.271   3.383  -1.109  0.00  0.00    +0.172 HD
BRANCH  15  17
ATOM     17  C   UNL     1      -2.631   4.852  -0.346  0.00  0.00    +0.077 A 
ATOM     18  C   UNL     1      -3.062   5.561   0.784  0.00  0.00    +0.029 A 
ATOM     19  C   UNL     1      -3.967   6.588   0.644  0.00  0.00    +0.035 A 
ATOM     20  C   UNL     1      -4.453   6.923  -0.612  0.00  0.00    +0.128 A 
ATOM     21  C   UNL     1      -4.031   6.227  -1.735  0.00  0.00    +0.067 A 
ATOM     22  C   UNL     1      -3.122   5.199  -1.612  0.00  0.00    +0.151 A 
BRANCH  22  23
ATOM     23  N   UNL     1      -2.669   4.461  -2.812  0.00  0.00    +0.058 N 
ATOM     24  O   UNL     1      -2.973   4.908  -4.014  0.00  0.00    -0.126 OA
ATOM     25  O   UNL     1      -1.963   3.358  -2.679  0.00  0.00    -0.126 OA
ENDBRANCH  22  23
BRANCH  20  26
ATOM     26  N   UNL     1      -5.426   8.029  -0.754  0.00  0.00    +0.056 N 
ATOM     27  O   UNL     1      -5.828   8.693   0.310  0.00  0.00    -0.126 OA
ATOM     28  O   UNL     1      -5.889   8.350  -1.945  0.00  0.00    -0.126 OA
ENDBRANCH  20  26
ENDBRANCH  15  17
ENDBRANCH   2  15
TORSDOF 6
