REMARK  Name = ZINC14552322
REMARK  11 active torsions:
REMARK  status: ('A' for Active; 'I' for Inactive)
REMARK    1  A    between atoms: C_1  and  C_2
REMARK    2  A    between atoms: C_2  and  N_64
REMARK    3  A    between atoms: C_3  and  C_4
REMARK    4  A    between atoms: C_3  and  N_64
REMARK    5  A    between atoms: C_5  and  C_6
REMARK    6  A    between atoms: C_5  and  N_64
REMARK    7  A    between atoms: C_6  and  N_7
REMARK    8  A    between atoms: C_8  and  C_10
REMARK    9  A    between atoms: C_23  and  C_26
REMARK   10  A    between atoms: C_29  and  S_32
REMARK   11  A    between atoms: S_32  and  C_33
REMARK                            x       y       z     vdW  Elec       q    Type
REMARK                         _______ _______ _______ _____ _____    ______ ____
ROOT
ATOM      1  C   UNL     1      -0.936   3.500  -0.393  0.00  0.00    +0.037 A 
ATOM      2  C   UNL     1      -1.152   2.136  -0.171  0.00  0.00    +0.015 A 
ATOM      3  C   UNL     1      -0.109   1.248  -0.280  0.00  0.00    +0.024 A 
ATOM      4  C   UNL     1       1.165   1.691  -0.627  0.00  0.00    +0.031 A 
ATOM      5  C   UNL     1       1.378   3.058  -0.863  0.00  0.00    -0.019 A 
ATOM      6  C   UNL     1       0.341   3.949  -0.742  0.00  0.00    +0.019 A 
ATOM      7  C   UNL     1       2.743   3.478  -1.249  0.00  0.00    +0.049 C 
ATOM      8  C   UNL     1       3.248   4.849  -0.976  0.00  0.00    -0.023 C 
ATOM      9  C   UNL     1       4.558   4.785  -0.771  0.00  0.00    -0.030 C 
ATOM     10  C   UNL     1       5.031   3.333  -0.860  0.00  0.00    +0.033 C 
ATOM     11  C   UNL     1       3.754   2.568  -0.488  0.00  0.00    +0.029 C 
ATOM     12  C   UNL     1       3.575   1.183  -1.082  0.00  0.00    +0.105 C 
ATOM     13  N   UNL     1       2.204   0.766  -0.716  0.00  0.00    -0.336 N 
ATOM     14  H   UNL     1       2.024  -0.170  -0.535  0.00  0.00    +0.147 HD
ENDROOT
BRANCH  12  15
ATOM     15  C   UNL     1       3.721   1.236  -2.581  0.00  0.00    -0.027 A 
ATOM     16  C   UNL     1       2.607   1.441  -3.375  0.00  0.00    +0.006 A 
ATOM     17  C   UNL     1       2.737   1.496  -4.749  0.00  0.00    +0.015 A 
ATOM     18  C   UNL     1       3.987   1.333  -5.334  0.00  0.00    +0.008 A 
ATOM     19  C   UNL     1       5.103   1.122  -4.533  0.00  0.00    +0.015 A 
ATOM     20  C   UNL     1       4.966   1.074  -3.160  0.00  0.00    +0.006 A 
BRANCH  18  21
ATOM     21  S   UNL     1       4.157   1.395  -7.087  0.00  0.00    -0.129 S 
ATOM     22  C   UNL     1       2.468   1.683  -7.681  0.00  0.00    +0.090 C 
ENDBRANCH  18  21
ENDBRANCH  12  15
BRANCH   1  24
ATOM     23  N   UNL     1      -3.280   4.021   0.071  0.00  0.00    -0.313 N 
ATOM     24  C   UNL     1      -2.050   4.458  -0.266  0.00  0.00    +0.244 C 
ATOM     25  O   UNL     1      -1.859   5.642  -0.464  0.00  0.00    -0.270 OA
ATOM     26  H   UNL     1      -3.432   3.076   0.229  0.00  0.00    +0.149 HD
BRANCH  23  27
ATOM     27  C   UNL     1      -4.386   4.972   0.197  0.00  0.00    +0.086 C 
BRANCH  27  28
ATOM     28  C   UNL     1      -5.662   4.222   0.585  0.00  0.00    -0.060 C 
BRANCH  28  29
ATOM     29  N   UNL     1      -6.763   5.197   0.729  0.00  0.00    +0.380 N 
ATOM     30  H   UNL     1      -6.461   5.951   1.358  0.00  0.00    -0.082 HD
BRANCH  29  32
ATOM     31  C   UNL     1      -7.514   4.677  -1.568  0.00  0.00    -0.017 C 
ATOM     32  C   UNL     1      -7.101   5.777  -0.588  0.00  0.00    -0.082 C 
ENDBRANCH  29  32
BRANCH  29  33
ATOM     33  C   UNL     1      -7.951   4.536   1.309  0.00  0.00    -0.082 C 
ATOM     34  C   UNL     1      -8.995   5.602   1.647  0.00  0.00    -0.017 C 
ENDBRANCH  29  33
ENDBRANCH  28  29
ENDBRANCH  27  28
ENDBRANCH  23  27
ENDBRANCH   1  24
TORSDOF 8
