REMARK  Name = ZINC40896365
REMARK  14 active torsions:
REMARK  status: ('A' for Active; 'I' for Inactive)
REMARK    1  A    between atoms: C_1  and  C_2
REMARK    2  A    between atoms: C_2  and  C_3
REMARK    3  A    between atoms: C_3  and  C_5
REMARK    4  A    between atoms: C_3  and  N_6
REMARK    5  A    between atoms: C_7  and  C_9
REMARK    6  A    between atoms: C_14  and  O_20
REMARK    7  A    between atoms: O_20  and  C_21
REMARK    8  A    between atoms: C_21  and  C_23
REMARK    9  A    between atoms: C_23  and  O_24
REMARK   10  A    between atoms: O_24  and  C_25
REMARK   11  A    between atoms: C_28  and  C_31
REMARK   12  A    between atoms: C_31  and  C_32
REMARK   13  A    between atoms: C_31  and  C_33
REMARK   14  A    between atoms: C_31  and  C_34
REMARK                            x       y       z     vdW  Elec       q    Type
REMARK                         _______ _______ _______ _____ _____    ______ ____
ROOT
ATOM      1  O   UNL     1      -2.616   1.912  10.421  0.00  0.00    -0.423 OA
ENDROOT
BRANCH   1   7
ATOM      2  C   UNL     1       0.814  -0.983   5.982  0.00  0.00    +0.122 A 
ATOM      3  C   UNL     1       0.399   0.343   6.042  0.00  0.00    +0.031 A 
ATOM      4  C   UNL     1      -0.344   0.758   7.174  0.00  0.00    +0.019 A 
ATOM      5  C   UNL     1      -0.958   2.021   7.197  0.00  0.00    +0.015 A 
ATOM      6  C   UNL     1      -1.705   2.392   8.275  0.00  0.00    +0.047 A 
ATOM      7  C   UNL     1      -1.859   1.530   9.361  0.00  0.00    +0.135 A 
ATOM      8  C   UNL     1      -1.246   0.288   9.365  0.00  0.00    +0.093 A 
ATOM      9  C   UNL     1      -0.476  -0.104   8.281  0.00  0.00    +0.143 A 
ATOM     10  O   UNL     1       0.164  -1.298   8.292  0.00  0.00    -0.422 OA
ATOM     11  C   UNL     1       0.413  -1.869   7.088  0.00  0.00    +0.350 A 
ATOM     12  O   UNL     1       0.312  -3.071   6.927  0.00  0.00    -0.244 OA
BRANCH   2  14
ATOM     13  N   UNL     1       2.000  -2.774   4.819  0.00  0.00    -0.309 N 
ATOM     14  C   UNL     1       1.616  -1.482   4.854  0.00  0.00    +0.251 C 
ATOM     15  O   UNL     1       1.934  -0.730   3.953  0.00  0.00    -0.270 OA
ATOM     16  H   UNL     1       1.746  -3.374   5.538  0.00  0.00    +0.149 HD
BRANCH  13  17
ATOM     17  C   UNL     1       2.799  -3.272   3.697  0.00  0.00    +0.070 C 
ATOM     18  C   UNL     1       4.279  -2.992   3.961  0.00  0.00    +0.028 C 
BRANCH  17  20
ATOM     19  C   UNL     1       1.129  -5.050   3.158  0.00  0.00    +0.005 C 
ATOM     20  C   UNL     1       2.584  -4.779   3.546  0.00  0.00    +0.018 C 
ENDBRANCH  17  20
ENDBRANCH  13  17
ENDBRANCH   2  14
ENDBRANCH   1   7
BRANCH   1  21
ATOM     21  C   UNL     1      -1.991   2.166  11.582  0.00  0.00    +0.350 C 
ATOM     22  O   UNL     1      -0.784   2.155  11.634  0.00  0.00    -0.247 OA
BRANCH  21  23
ATOM     23  C   UNL     1      -2.796   2.466  12.821  0.00  0.00    +0.349 C 
BRANCH  23  24
ATOM     24  O   UNL     1      -1.911   2.701  13.918  0.00  0.00    -0.481 OA
BRANCH  24  25
ATOM     25  C   UNL     1      -2.480   2.987  15.119  0.00  0.00    +0.121 A 
ATOM     26  C   UNL     1      -3.861   3.035  15.240  0.00  0.00    +0.046 A 
ATOM     27  C   UNL     1      -4.437   3.326  16.461  0.00  0.00    +0.008 A 
ATOM     28  C   UNL     1      -3.638   3.569  17.563  0.00  0.00    -0.037 A 
ATOM     29  C   UNL     1      -2.261   3.523  17.445  0.00  0.00    +0.008 A 
ATOM     30  C   UNL     1      -1.680   3.226  16.227  0.00  0.00    +0.046 A 
BRANCH  28  31
ATOM     31  C   UNL     1      -4.268   3.887  18.895  0.00  0.00    +0.015 C 
ATOM     32  C   UNL     1      -5.789   3.762  18.781  0.00  0.00    +0.021 C 
ATOM     33  C   UNL     1      -3.753   2.906  19.950  0.00  0.00    +0.021 C 
BRANCH  31  34
ATOM     34  C   UNL     1      -3.909   5.293  19.298  0.00  0.00    -0.037 A 
ATOM     35  C   UNL     1      -4.184   6.348  18.448  0.00  0.00    +0.004 A 
ATOM     36  C   UNL     1      -3.855   7.639  18.818  0.00  0.00    +0.000 A 
ATOM     37  C   UNL     1      -3.249   7.874  20.038  0.00  0.00    +0.000 A 
ATOM     38  C   UNL     1      -2.974   6.820  20.889  0.00  0.00    +0.000 A 
ATOM     39  C   UNL     1      -3.308   5.530  20.520  0.00  0.00    +0.004 A 
ENDBRANCH  31  34
ENDBRANCH  28  31
ENDBRANCH  24  25
ENDBRANCH  23  24
ENDBRANCH  21  23
ENDBRANCH   1  21
TORSDOF 10
