REMARK  Name = ZINC05034608
REMARK  7 active torsions:
REMARK  status: ('A' for Active; 'I' for Inactive)
REMARK    1  A    between atoms: C_1  and  C_2
REMARK    2  A    between atoms: C_2  and  C_5
REMARK    3  A    between atoms: N_3  and  N_4
REMARK    4  A    between atoms: C_5  and  O_29
REMARK    5  A    between atoms: C_10  and  C_28
REMARK    6  A    between atoms: N_22  and  N_23
REMARK    7  A    between atoms: C_26  and  C_27
REMARK                            x       y       z     vdW  Elec       q    Type
REMARK                         _______ _______ _______ _____ _____    ______ ____
ROOT
ATOM      1  C   UNL     1       0.822  -0.498   1.201  0.00  0.00    +0.111 C 
ATOM      2  C   UNL     1      -0.096  -0.794   2.405  0.00  0.00    +0.042 C 
ATOM      3  C   UNL     1      -1.527  -0.411   1.967  0.00  0.00    +0.007 C 
ATOM      4  C   UNL     1      -1.484  -0.522   0.414  0.00  0.00    +0.002 C 
ATOM      5  C   UNL     1      -0.093   0.056   0.101  0.00  0.00    +0.005 C 
ATOM      6  C   UNL     1       0.377  -0.311  -1.288  0.00  0.00    +0.010 C 
ATOM      7  C   UNL     1       0.336  -1.799  -1.530  0.00  0.00    +0.005 C 
ATOM      8  C   UNL     1      -1.109  -2.283  -1.352  0.00  0.00    +0.002 C 
ATOM      9  C   UNL     1      -1.548  -2.016   0.084  0.00  0.00    -0.003 C 
ATOM     10  C   UNL     1      -2.995  -2.489   0.266  0.00  0.00    +0.008 C 
ATOM     11  C   UNL     1      -3.061  -4.005   0.082  0.00  0.00    +0.031 C 
ATOM     12  C   UNL     1      -2.475  -4.354  -1.274  0.00  0.00    -0.062 C 
ATOM     13  C   UNL     1      -3.179  -5.157  -2.065  0.00  0.00    +0.024 C 
ATOM     14  C   UNL     1      -2.649  -5.540  -3.384  0.00  0.00    +0.059 C 
ATOM     15  N   UNL     1      -3.425  -5.962  -4.337  0.00  0.00    -0.194 NA
ATOM     16  C   UNL     1      -1.149  -5.416  -3.570  0.00  0.00    +0.058 C 
ATOM     17  C   UNL     1      -0.743  -4.024  -3.089  0.00  0.00    +0.017 C 
ATOM     18  C   UNL     1      -1.138  -3.790  -1.642  0.00  0.00    -0.007 C 
ATOM     19  C   UNL     1      -0.084  -4.452  -0.752  0.00  0.00    +0.016 C 
ATOM     20  C   UNL     1      -0.149   1.580   0.222  0.00  0.00    +0.015 C 
ENDROOT
BRANCH   1  22
ATOM     21  C   UNL     1       2.911   0.937   0.577  0.00  0.00    +0.065 C 
ATOM     22  C   UNL     1       1.861   0.526   1.577  0.00  0.00    +0.065 C 
ATOM     23  N   UNL     1       1.853   1.047   2.747  0.00  0.00    -0.196 NA
BRANCH  23  24
ATOM     24  N   UNL     1       2.819   1.999   3.096  0.00  0.00    -0.283 N 
ATOM     25  H   UNL     1       3.495   2.264   2.453  0.00  0.00    +0.164 HD
ATOM     26  H   UNL     1       2.812   2.394   3.982  0.00  0.00    +0.164 HD
ENDBRANCH  23  24
ENDBRANCH   1  22
BRANCH  15  27
ATOM     27  N   UNL     1      -4.806  -6.062  -4.124  0.00  0.00    -0.282 N 
ATOM     28  H   UNL     1      -5.183  -5.817  -3.265  0.00  0.00    +0.164 HD
ATOM     29  H   UNL     1      -5.384  -6.377  -4.836  0.00  0.00    +0.164 HD
ENDBRANCH  15  27
BRANCH   1  30
ATOM     30  O   UNL     1       1.454  -1.700   0.757  0.00  0.00    -0.382 OA
ATOM     31  H   UNL     1       2.046  -2.098   1.410  0.00  0.00    +0.211 HD
ENDBRANCH   1  30
TORSDOF 4
