REMARK  Name = ZINC16259390
REMARK  8 active torsions:
REMARK  status: ('A' for Active; 'I' for Inactive)
REMARK    1  A    between atoms: C_4  and  C_7
REMARK    2  A    between atoms: C_7  and  C_9
REMARK    3  A    between atoms: C_7  and  N_64
REMARK    4  A    between atoms: C_9  and  N_10
REMARK    5  A    between atoms: C_11  and  C_13
REMARK    6  A    between atoms: N_16  and  C_19
REMARK    7  A    between atoms: C_22  and  C_28
REMARK    8  A    between atoms: C_24  and  N_25
REMARK                            x       y       z     vdW  Elec       q    Type
REMARK                         _______ _______ _______ _____ _____    ______ ____
ROOT
ATOM      1  C   UNL     1       4.151  -1.127  -0.162  0.00  0.00    +0.078 C 
ATOM      2  C   UNL     1       3.881  -0.378   1.145  0.00  0.00    +0.031 C 
ATOM      3  C   UNL     1       2.523   0.323   1.055  0.00  0.00    +0.106 C 
ATOM      4  N   UNL     1       2.528   1.260  -0.076  0.00  0.00    -0.328 N 
ATOM      5  C   UNL     1       2.739   0.556  -1.348  0.00  0.00    +0.106 C 
ATOM      6  C   UNL     1       4.104  -0.137  -1.329  0.00  0.00    +0.031 C 
ENDROOT
BRANCH   4   7
ATOM      7  C   UNL     1       1.352   2.011  -0.109  0.00  0.00    +0.060 A 
ATOM      8  C   UNL     1       0.123   1.376  -0.237  0.00  0.00    +0.026 A 
ATOM      9  C   UNL     1      -1.038   2.122  -0.274  0.00  0.00    +0.014 A 
ATOM     10  C   UNL     1      -0.980   3.500  -0.173  0.00  0.00    +0.057 A 
ATOM     11  C   UNL     1       0.242   4.136  -0.046  0.00  0.00    +0.047 A 
ATOM     12  C   UNL     1       1.407   3.396  -0.014  0.00  0.00    +0.148 A 
BRANCH  10  13
ATOM     13  C   UNL     1      -2.249   4.311  -0.209  0.00  0.00    +0.417 C 
ATOM     14  F   UNL     1      -2.550   4.649  -1.532  0.00  0.00    -0.166 F 
ATOM     15  F   UNL     1      -3.298   3.559   0.331  0.00  0.00    -0.166 F 
ATOM     16  F   UNL     1      -2.078   5.479   0.543  0.00  0.00    -0.166 F 
ENDBRANCH  10  13
BRANCH  12  17
ATOM     17  N   UNL     1       2.714   4.077   0.123  0.00  0.00    +0.058 N 
ATOM     18  O   UNL     1       2.762   5.291   0.207  0.00  0.00    -0.126 OA
ATOM     19  O   UNL     1       3.741   3.424   0.152  0.00  0.00    -0.126 OA
ENDBRANCH  12  17
ENDBRANCH   4   7
BRANCH   1  21
ATOM     20  N   UNL     1       5.967  -2.487  -1.148  0.00  0.00    -0.316 N 
ATOM     21  C   UNL     1       5.513  -1.770  -0.101  0.00  0.00    +0.216 C 
ATOM     22  O   UNL     1       6.201  -1.641   0.889  0.00  0.00    -0.276 OA
ATOM     23  H   UNL     1       5.417  -2.590  -1.940  0.00  0.00    +0.149 HD
BRANCH  20  24
ATOM     24  C   UNL     1       7.291  -3.111  -1.090  0.00  0.00    +0.093 C 
BRANCH  24  25
ATOM     25  C   UNL     1       7.513  -3.956  -2.346  0.00  0.00    -0.020 C 
BRANCH  25  29
ATOM     26  C   UNL     1       7.642  -1.407  -5.771  0.00  0.00    +0.000 A 
ATOM     27  C   UNL     1       6.484  -2.099  -5.468  0.00  0.00    +0.000 A 
ATOM     28  C   UNL     1       6.442  -2.924  -4.360  0.00  0.00    +0.002 A 
ATOM     29  C   UNL     1       7.558  -3.057  -3.554  0.00  0.00    -0.059 A 
ATOM     30  C   UNL     1       8.714  -2.360  -3.854  0.00  0.00    +0.002 A 
ATOM     31  C   UNL     1       8.757  -1.539  -4.965  0.00  0.00    +0.000 A 
ENDBRANCH  25  29
BRANCH  25  36
ATOM     32  C   UNL     1       8.786  -5.561  -1.030  0.00  0.00    -0.078 C 
ATOM     33  C   UNL     1       9.899  -6.591  -1.347  0.00  0.00    -0.020 C 
ATOM     34  C   UNL     1       9.729  -6.827  -2.865  0.00  0.00    -0.020 C 
ATOM     35  C   UNL     1       8.989  -5.582  -3.386  0.00  0.00    -0.078 C 
ATOM     36  N   UNL     1       8.799  -4.707  -2.228  0.00  0.00    +0.385 N 
ATOM     37  H   UNL     1       9.575  -4.037  -2.168  0.00  0.00    -0.081 HD
ENDBRANCH  25  36
ENDBRANCH  24  25
ENDBRANCH  20  24
ENDBRANCH   1  21
TORSDOF 8
