REMARK  Name = ZINC09952039
REMARK  8 active torsions:
REMARK  status: ('A' for Active; 'I' for Inactive)
REMARK    1  A    between atoms: C_1  and  C_2
REMARK    2  A    between atoms: C_12  and  C_14
REMARK    3  A    between atoms: C_14  and  C_16
REMARK    4  A    between atoms: C_14  and  O_17
REMARK    5  A    between atoms: O_17  and  C_18
REMARK    6  A    between atoms: C_22  and  C_24
REMARK    7  A    between atoms: N_26  and  C_27
REMARK    8  A    between atoms: C_27  and  C_28
REMARK                            x       y       z     vdW  Elec       q    Type
REMARK                         _______ _______ _______ _____ _____    ______ ____
ROOT
ATOM      1  C   UNL     1       0.143   3.763   1.094  0.00  0.00    +0.122 A 
ATOM      2  C   UNL     1       1.345   3.258   0.614  0.00  0.00    +0.046 A 
ATOM      3  C   UNL     1       1.580   1.896   0.622  0.00  0.00    +0.004 A 
ATOM      4  C   UNL     1       0.623   1.029   1.108  0.00  0.00    +0.013 A 
ATOM      5  C   UNL     1      -0.590   1.527   1.587  0.00  0.00    +0.040 A 
ATOM      6  C   UNL     1      -0.824   2.902   1.584  0.00  0.00    +0.058 A 
ENDROOT
BRANCH   5   7
ATOM      7  C   UNL     1      -1.621   0.600   2.103  0.00  0.00    +0.244 C 
ATOM      8  O   UNL     1      -2.676   1.036   2.520  0.00  0.00    -0.270 OA
ATOM      9  N   UNL     1      -1.390  -0.728   2.109  0.00  0.00    -0.307 N 
ATOM     10  H   UNL     1      -0.548  -1.076   1.776  0.00  0.00    +0.149 HD
BRANCH   9  11
ATOM     11  C   UNL     1      -2.412  -1.646   2.620  0.00  0.00    +0.139 C 
BRANCH  11  12
ATOM     12  C   UNL     1      -1.909  -3.063   2.517  0.00  0.00    -0.030 A 
ATOM     13  C   UNL     1      -2.154  -3.802   1.375  0.00  0.00    +0.005 A 
ATOM     14  C   UNL     1      -1.689  -5.100   1.279  0.00  0.00    +0.000 A 
ATOM     15  C   UNL     1      -0.989  -5.663   2.329  0.00  0.00    +0.000 A 
ATOM     16  C   UNL     1      -0.749  -4.926   3.474  0.00  0.00    +0.000 A 
ATOM     17  C   UNL     1      -1.209  -3.626   3.568  0.00  0.00    +0.005 A 
ENDBRANCH  11  12
ENDBRANCH   9  11
ENDBRANCH   5   7
BRANCH   1  18
ATOM     18  O   UNL     1      -0.083   5.103   1.084  0.00  0.00    -0.480 OA
BRANCH  18  19
ATOM     19  C   UNL     1       1.004   5.941   0.684  0.00  0.00    +0.256 C 
ATOM     20  C   UNL     1       0.973   6.128  -0.834  0.00  0.00    +0.062 C 
BRANCH  19  31
ATOM     21  C   UNL     1       3.870   6.837   0.858  0.00  0.00    +0.029 C 
ATOM     22  C   UNL     1       3.049   8.039   0.389  0.00  0.00    +0.083 C 
ATOM     23  C   UNL     1       3.850   9.338   0.577  0.00  0.00    +0.059 C 
ATOM     24  C   UNL     1       3.023  10.160   1.539  0.00  0.00    -0.024 A 
ATOM     25  C   UNL     1       3.237  11.416   2.074  0.00  0.00    +0.005 A 
ATOM     26  C   UNL     1       2.309  11.972   2.934  0.00  0.00    +0.000 A 
ATOM     27  C   UNL     1       1.172  11.261   3.272  0.00  0.00    +0.002 A 
ATOM     28  C   UNL     1       0.956  10.006   2.744  0.00  0.00    +0.024 A 
ATOM     29  C   UNL     1       1.884   9.442   1.866  0.00  0.00    +0.040 A 
ATOM     30  N   UNL     1       1.857   8.199   1.227  0.00  0.00    -0.265 N 
ATOM     31  C   UNL     1       0.877   7.284   1.358  0.00  0.00    +0.261 C 
ATOM     32  O   UNL     1      -0.108   7.540   2.018  0.00  0.00    -0.271 OA
ENDBRANCH  19  31
ENDBRANCH  18  19
ENDBRANCH   1  18
TORSDOF 6
