REMARK  Name = ZINC10751362
REMARK  9 active torsions:
REMARK  status: ('A' for Active; 'I' for Inactive)
REMARK    1  A    between atoms: C_1  and  N_60
REMARK    2  A    between atoms: C_2  and  N_60
REMARK    3  A    between atoms: C_3  and  C_4
REMARK    4  A    between atoms: C_3  and  N_60
REMARK    5  A    between atoms: C_4  and  C_5
REMARK    6  A    between atoms: C_5  and  N_6
REMARK    7  A    between atoms: C_16  and  C_18
REMARK    8  A    between atoms: N_23  and  S_25
REMARK    9  A    between atoms: S_25  and  C_28
REMARK                            x       y       z     vdW  Elec       q    Type
REMARK                         _______ _______ _______ _____ _____    ______ ____
ROOT
ATOM      1  N   UNL     1      -0.695   1.238  -3.675  0.00  0.00    -0.250 N 
ATOM      2  C   UNL     1      -1.776   2.097  -3.787  0.00  0.00    +0.168 A 
ATOM      3  N   UNL     1      -2.336   2.841  -2.861  0.00  0.00    -0.224 NA
ATOM      4  C   UNL     1      -3.395   3.639  -3.114  0.00  0.00    +0.080 A 
ATOM      5  C   UNL     1      -4.086   4.484  -2.215  0.00  0.00    +0.029 A 
ATOM      6  C   UNL     1      -5.150   5.236  -2.638  0.00  0.00    +0.002 A 
ATOM      7  C   UNL     1      -5.587   5.198  -3.955  0.00  0.00    +0.001 A 
ATOM      8  C   UNL     1      -4.934   4.383  -4.861  0.00  0.00    +0.017 A 
ATOM      9  C   UNL     1      -3.867   3.626  -4.446  0.00  0.00    +0.041 A 
ATOM     10  S   UNL     1      -2.758   2.481  -5.230  0.00  0.00    -0.052 S 
ATOM     11  C   UNL     1      -0.004   1.170  -2.520  0.00  0.00    +0.226 C 
ATOM     12  O   UNL     1       0.994   0.485  -2.449  0.00  0.00    -0.275 OA
ENDROOT
BRANCH  11  13
ATOM     13  C   UNL     1      -0.473   1.945  -1.315  0.00  0.00    +0.091 C 
ATOM     14  C   UNL     1      -1.635   1.202  -0.651  0.00  0.00    +0.015 C 
ATOM     15  C   UNL     1      -2.133   2.005   0.553  0.00  0.00    +0.018 C 
ATOM     16  C   UNL     1      -1.000   2.143   1.575  0.00  0.00    +0.109 C 
ATOM     17  N   UNL     1       0.175   2.725   0.906  0.00  0.00    -0.175 NA
ATOM     18  C   UNL     1       0.679   2.082  -0.315  0.00  0.00    +0.122 C 
BRANCH  17  19
ATOM     19  S   UNL     1       0.912   4.078   1.513  0.00  0.00    +0.067 S 
ATOM     20  O   UNL     1       0.600   4.124   2.898  0.00  0.00    -0.152 OA
ATOM     21  O   UNL     1       2.250   4.062   1.033  0.00  0.00    -0.152 OA
BRANCH  19  22
ATOM     22  C   UNL     1       0.130   5.473   0.774  0.00  0.00    +0.143 A 
ATOM     23  C   UNL     1      -0.950   6.172   1.202  0.00  0.00    +0.036 A 
ATOM     24  C   UNL     1      -1.392   7.247   0.454  0.00  0.00    +0.010 A 
ATOM     25  C   UNL     1      -0.740   7.564  -0.691  0.00  0.00    +0.047 A 
ATOM     26  S   UNL     1       0.548   6.329  -0.736  0.00  0.00    -0.077 S 
ENDBRANCH  19  22
ENDBRANCH  17  19
ENDBRANCH  11  13
BRANCH   1  27
ATOM     27  C   UNL     1      -0.302   0.403  -4.813  0.00  0.00    +0.114 C 
BRANCH  27  28
ATOM     28  C   UNL     1      -1.044  -0.933  -4.745  0.00  0.00    +0.001 C 
BRANCH  28  29
ATOM     29  C   UNL     1      -0.634  -1.805  -5.934  0.00  0.00    -0.078 C 
BRANCH  29  32
ATOM     30  C   UNL     1      -1.164  -3.855  -7.109  0.00  0.00    -0.097 C 
ATOM     31  C   UNL     1      -0.920  -3.869  -4.699  0.00  0.00    -0.097 C 
ATOM     32  N   UNL     1      -1.374  -3.083  -5.866  0.00  0.00    +0.376 N 
ATOM     33  H   UNL     1      -2.376  -2.882  -5.764  0.00  0.00    -0.083 HD
ENDBRANCH  29  32
ENDBRANCH  28  29
ENDBRANCH  27  28
ENDBRANCH   1  27
TORSDOF 7
