REMARK  Name = ZINC35578605
REMARK  8 active torsions:
REMARK  status: ('A' for Active; 'I' for Inactive)
REMARK    1  A    between atoms: C_1  and  C_2
REMARK    2  A    between atoms: C_2  and  C_3
REMARK    3  A    between atoms: C_3  and  N_4
REMARK    4  A    between atoms: N_4  and  C_5
REMARK    5  A    between atoms: C_5  and  C_7
REMARK    6  A    between atoms: C_5  and  C_15
REMARK    7  A    between atoms: C_10  and  C_14
REMARK    8  A    between atoms: C_12  and  C_13
REMARK                            x       y       z     vdW  Elec       q    Type
REMARK                         _______ _______ _______ _____ _____    ______ ____
ROOT
ATOM      1  C   UNL     1      -2.757  -2.533   0.028  0.00  0.00    -0.009 C 
ENDROOT
BRANCH   1   2
ATOM      2  C   UNL     1      -2.490  -4.016   0.010  0.00  0.00    -0.054 A 
ATOM      3  C   UNL     1      -2.439  -4.724   1.197  0.00  0.00    +0.003 A 
ATOM      4  C   UNL     1      -2.194  -6.084   1.181  0.00  0.00    +0.003 A 
ATOM      5  C   UNL     1      -2.001  -6.737  -0.022  0.00  0.00    -0.050 A 
ATOM      6  C   UNL     1      -2.053  -6.030  -1.209  0.00  0.00    +0.007 A 
ATOM      7  C   UNL     1      -2.303  -4.670  -1.193  0.00  0.00    -0.048 A 
ATOM      8  C   UNL     1      -2.365  -3.901  -2.487  0.00  0.00    +0.044 C 
ATOM      9  C   UNL     1      -1.733  -8.220  -0.040  0.00  0.00    +0.044 C 
ENDBRANCH   1   2
BRANCH   1  10
ATOM     10  C   UNL     1      -3.316  -2.139   1.371  0.00  0.00    -0.042 A 
ATOM     11  C   UNL     1      -2.468  -1.698   2.370  0.00  0.00    +0.018 A 
ATOM     12  C   UNL     1      -2.981  -1.337   3.602  0.00  0.00    +0.018 A 
ATOM     13  C   UNL     1      -4.342  -1.417   3.836  0.00  0.00    +0.016 A 
ATOM     14  C   UNL     1      -5.189  -1.857   2.837  0.00  0.00    +0.016 A 
ATOM     15  C   UNL     1      -4.677  -2.214   1.603  0.00  0.00    +0.020 A 
ATOM     16 BR   UNL     1      -5.838  -2.810   0.234  0.00  0.00    -0.050 Br
ATOM     17 BR   UNL     1      -1.821  -0.734   4.969  0.00  0.00    -0.050 Br
ENDBRANCH   1  10
BRANCH   1  18
ATOM     18  N   UNL     1      -1.503  -1.807  -0.213  0.00  0.00    +0.386 N 
ATOM     19  H   UNL     1      -1.087  -2.131  -1.073  0.00  0.00    -0.085 HD
ATOM     20  H   UNL     1      -0.866  -1.973   0.552  0.00  0.00    -0.085 HD
BRANCH  18  21
ATOM     21  C   UNL     1      -1.782  -0.368  -0.315  0.00  0.00    -0.082 C 
BRANCH  21  23
ATOM     22  C   UNL     1      -0.767   1.886  -0.672  0.00  0.00    +0.002 C 
ATOM     23  C   UNL     1      -0.476   0.388  -0.566  0.00  0.00    -0.022 C 
ENDBRANCH  21  23
ENDBRANCH  18  21
ENDBRANCH   1  18
TORSDOF 5
