REMARK  Name = ZINC39965701
REMARK  13 active torsions:
REMARK  status: ('A' for Active; 'I' for Inactive)
REMARK    1  A    between atoms: C_1  and  C_2
REMARK    2  A    between atoms: C_2  and  O_3
REMARK    3  A    between atoms: O_3  and  C_4
REMARK    4  A    between atoms: C_4  and  C_6
REMARK    5  A    between atoms: C_7  and  C_34
REMARK    6  A    between atoms: C_8  and  C_33
REMARK    7  A    between atoms: C_10  and  N_11
REMARK    8  A    between atoms: C_12  and  C_14
REMARK    9  A    between atoms: C_14  and  S_15
REMARK   10  A    between atoms: S_15  and  C_16
REMARK   11  A    between atoms: C_19  and  C_24
REMARK   12  A    between atoms: N_20  and  C_21
REMARK   13  A    between atoms: C_21  and  C_22
REMARK                            x       y       z     vdW  Elec       q    Type
REMARK                         _______ _______ _______ _____ _____    ______ ____
ROOT
ATOM      1  S   UNL     1      -4.423  -3.008   6.175  0.00  0.00    -0.077 S 
ENDROOT
BRANCH   1   2
ATOM      2  C   UNL     1      -3.765  -2.860   7.803  0.00  0.00    +0.193 A 
ATOM      3  N   UNL     1      -2.493  -2.804   8.128  0.00  0.00    -0.122 NA
ATOM      4  N   UNL     1      -2.367  -2.698   9.402  0.00  0.00    -0.128 NA
ATOM      5  C   UNL     1      -3.550  -2.680   9.970  0.00  0.00    +0.165 A 
ATOM      6  N   UNL     1      -4.483  -2.777   8.963  0.00  0.00    -0.298 N 
BRANCH   5   7
ATOM      7  C   UNL     1      -3.829  -2.569  11.417  0.00  0.00    +0.023 A 
ATOM      8  C   UNL     1      -4.936  -3.217  11.969  0.00  0.00    +0.015 A 
ATOM      9  C   UNL     1      -5.194  -3.113  13.319  0.00  0.00    +0.050 A 
ATOM     10  C   UNL     1      -4.356  -2.366  14.134  0.00  0.00    +0.166 A 
ATOM     11  C   UNL     1      -3.250  -1.716  13.590  0.00  0.00    +0.167 A 
ATOM     12  C   UNL     1      -2.983  -1.821  12.238  0.00  0.00    +0.061 A 
ATOM     13  O   UNL     1      -2.596  -1.056  14.591  0.00  0.00    -0.453 OA
ATOM     14  C   UNL     1      -3.539  -0.972  15.676  0.00  0.00    +0.466 C 
ATOM     15  O   UNL     1      -4.394  -2.112  15.476  0.00  0.00    -0.453 OA
ENDBRANCH   5   7
BRANCH   6  16
ATOM     16  C   UNL     1      -5.941  -2.793   9.105  0.00  0.00    +0.152 C 
BRANCH  16  17
ATOM     17  C   UNL     1      -6.430  -4.218   9.112  0.00  0.00    -0.013 C 
ATOM     18  C   UNL     1      -7.196  -4.643  10.086  0.00  0.00    +0.005 C 
ENDBRANCH  16  17
ENDBRANCH   6  16
ENDBRANCH   1   2
BRANCH   1  19
ATOM     19  C   UNL     1      -2.954  -3.069   5.112  0.00  0.00    +0.173 C 
BRANCH  19  21
ATOM     20  N   UNL     1      -2.452  -3.260   2.698  0.00  0.00    -0.279 N 
ATOM     21  C   UNL     1      -3.381  -3.196   3.673  0.00  0.00    +0.228 C 
ATOM     22  O   UNL     1      -4.560  -3.242   3.391  0.00  0.00    -0.275 OA
ATOM     23  H   UNL     1      -1.510  -3.224   2.923  0.00  0.00    +0.155 HD
BRANCH  20  28
ATOM     24  C   UNL     1      -2.037  -3.456   0.248  0.00  0.00    +0.091 A 
ATOM     25  C   UNL     1      -2.712  -3.581  -1.024  0.00  0.00    -0.025 A 
ATOM     26  C   UNL     1      -4.056  -3.602  -0.975  0.00  0.00    -0.008 A 
ATOM     27  S   UNL     1      -4.406  -3.455   0.763  0.00  0.00    -0.078 S 
ATOM     28  C   UNL     1      -2.845  -3.377   1.374  0.00  0.00    +0.086 A 
ATOM     29  C   UNL     1      -5.032  -3.721  -2.118  0.00  0.00    +0.052 C 
ATOM     30  C   UNL     1      -1.957  -3.681  -2.325  0.00  0.00    +0.045 C 
BRANCH  24  31
ATOM     31  C   UNL     1      -0.576  -3.420   0.344  0.00  0.00    +0.342 C 
ATOM     32  O   UNL     1       0.051  -4.454   0.472  0.00  0.00    -0.245 OA
BRANCH  31  33
ATOM     33  O   UNL     1       0.074  -2.239   0.291  0.00  0.00    -0.461 OA
BRANCH  33  35
ATOM     34  C   UNL     1       2.056  -0.855   0.311  0.00  0.00    +0.048 C 
ATOM     35  C   UNL     1       1.500  -2.278   0.391  0.00  0.00    +0.229 C 
ENDBRANCH  33  35
ENDBRANCH  31  33
ENDBRANCH  24  31
ENDBRANCH  20  28
ENDBRANCH  19  21
ENDBRANCH   1  19
TORSDOF 10
