REMARK  Name = ZINC60386547
REMARK  9 active torsions:
REMARK  status: ('A' for Active; 'I' for Inactive)
REMARK    1  A    between atoms: C_1  and  C_2
REMARK    2  A    between atoms: C_2  and  C_3
REMARK    3  A    between atoms: C_3  and  C_4
REMARK    4  A    between atoms: C_4  and  C_5
REMARK    5  A    between atoms: C_5  and  C_27
REMARK    6  A    between atoms: N_8  and  C_12
REMARK    7  A    between atoms: C_12  and  C_13
REMARK    8  A    between atoms: N_15  and  C_16
REMARK    9  A    between atoms: C_17  and  C_24
REMARK                            x       y       z     vdW  Elec       q    Type
REMARK                         _______ _______ _______ _____ _____    ______ ____
ROOT
ATOM      1  C   UNL     1      -2.848  -2.593   0.015  0.00  0.00    +0.138 C 
ATOM      2  C   UNL     1      -3.620  -2.018   1.186  0.00  0.00    +0.251 C 
ATOM      3  O   UNL     1      -3.373  -2.157   2.365  0.00  0.00    -0.272 OA
ATOM      4  N   UNL     1      -4.637  -1.319   0.644  0.00  0.00    -0.215 N 
ATOM      5  C   UNL     1      -4.615  -1.372  -0.692  0.00  0.00    +0.310 C 
ATOM      6  O   UNL     1      -5.431  -0.819  -1.404  0.00  0.00    -0.252 OA
ATOM      7  N   UNL     1      -3.589  -2.106  -1.161  0.00  0.00    -0.281 N 
ATOM      8  H   UNL     1      -3.378  -2.279  -2.091  0.00  0.00    +0.152 HD
ENDROOT
BRANCH   1   9
ATOM      9  C   UNL     1      -2.855  -4.099   0.060  0.00  0.00    -0.015 A 
ATOM     10  C   UNL     1      -1.827  -4.777   0.687  0.00  0.00    +0.006 A 
ATOM     11  C   UNL     1      -1.834  -6.159   0.728  0.00  0.00    +0.000 A 
ATOM     12  C   UNL     1      -2.869  -6.863   0.142  0.00  0.00    +0.000 A 
ATOM     13  C   UNL     1      -3.898  -6.185  -0.485  0.00  0.00    +0.000 A 
ATOM     14  C   UNL     1      -3.893  -4.803  -0.522  0.00  0.00    +0.006 A 
ENDBRANCH   1   9
BRANCH   1  15
ATOM     15  C   UNL     1      -1.413  -2.063   0.004  0.00  0.00    +0.040 C 
BRANCH  15  16
ATOM     16  C   UNL     1      -1.433  -0.534   0.013  0.00  0.00    +0.003 C 
BRANCH  16  18
ATOM     17  C   UNL     1      -0.019   1.526   0.010  0.00  0.00    +0.004 C 
ATOM     18  C   UNL     1       0.002  -0.004   0.002  0.00  0.00    -0.003 C 
ENDBRANCH  16  18
ENDBRANCH  15  16
ENDBRANCH   1  15
BRANCH   4  19
ATOM     19  C   UNL     1      -5.642  -0.592   1.423  0.00  0.00    +0.214 C 
BRANCH  19  20
ATOM     20  C   UNL     1      -5.171   0.820   1.658  0.00  0.00    +0.236 C 
ATOM     21  O   UNL     1      -4.100   1.183   1.218  0.00  0.00    -0.274 OA
ATOM     22  N   UNL     1      -5.939   1.680   2.357  0.00  0.00    -0.278 N 
ATOM     23  H   UNL     1      -6.795   1.389   2.708  0.00  0.00    +0.155 HD
BRANCH  22  24
ATOM     24  C   UNL     1      -5.505   2.979   2.573  0.00  0.00    +0.084 A 
ATOM     25  C   UNL     1      -6.151   3.987   3.264  0.00  0.00    +0.068 A 
ATOM     26  C   UNL     1      -5.475   5.280   3.350  0.00  0.00    -0.023 A 
ATOM     27  C   UNL     1      -4.283   5.319   2.727  0.00  0.00    -0.004 A 
ATOM     28  S   UNL     1      -4.073   3.687   2.062  0.00  0.00    -0.077 S 
ATOM     29  C   UNL     1      -3.634   6.671   2.842  0.00  0.00    +0.043 C 
ATOM     30  C   UNL     1      -4.778   7.619   3.265  0.00  0.00    +0.010 C 
ATOM     31  C   UNL     1      -5.746   6.649   3.971  0.00  0.00    +0.037 C 
BRANCH  25  32
ATOM     32  C   UNL     1      -7.461   3.768   3.886  0.00  0.00    +0.244 C 
ATOM     33  O   UNL     1      -7.530   3.370   5.034  0.00  0.00    -0.270 OA
ATOM     34  N   UNL     1      -8.587   4.007   3.186  0.00  0.00    -0.325 N 
ATOM     35  H   UNL     1      -8.532   4.324   2.271  0.00  0.00    +0.145 HD
ATOM     36  H   UNL     1      -9.454   3.862   3.598  0.00  0.00    +0.145 HD
ENDBRANCH  25  32
ENDBRANCH  22  24
ENDBRANCH  19  20
ENDBRANCH   4  19
TORSDOF 8
