REMARK  Name = ZINC22323832
REMARK  10 active torsions:
REMARK  status: ('A' for Active; 'I' for Inactive)
REMARK    1  A    between atoms: C_1  and  C_2
REMARK    2  A    between atoms: C_5  and  S_8
REMARK    3  A    between atoms: S_8  and  N_11
REMARK    4  A    between atoms: N_11  and  C_12
REMARK    5  A    between atoms: N_11  and  C_30
REMARK    6  A    between atoms: C_12  and  C_13
REMARK    7  A    between atoms: N_15  and  C_16
REMARK    8  A    between atoms: C_16  and  C_18
REMARK    9  A    between atoms: C_16  and  C_19
REMARK   10  A    between atoms: C_22  and  N_25
REMARK                            x       y       z     vdW  Elec       q    Type
REMARK                         _______ _______ _______ _____ _____    ______ ____
ROOT
ATOM      1  N   UNL     1      -6.406   0.564   2.893  0.00  0.00    -0.191 N 
ENDROOT
BRANCH   1   2
ATOM      2  C   UNL     1      -7.539   0.277   2.125  0.00  0.00    +0.087 A 
ATOM      3  C   UNL     1      -7.466  -0.653   1.097  0.00  0.00    +0.027 A 
ATOM      4  C   UNL     1      -8.588  -0.937   0.343  0.00  0.00    +0.002 A 
ATOM      5  C   UNL     1      -9.782  -0.289   0.603  0.00  0.00    +0.003 A 
ATOM      6  C   UNL     1      -9.858   0.642   1.623  0.00  0.00    +0.040 A 
ATOM      7  C   UNL     1      -8.740   0.928   2.385  0.00  0.00    +0.146 A 
ATOM      8  F   UNL     1      -8.815   1.838   3.381  0.00  0.00    -0.203 F 
ENDBRANCH   1   2
BRANCH   1   9
ATOM      9  S   UNL     1      -6.162  -0.218   4.332  0.00  0.00    +0.075 S 
ATOM     10  O   UNL     1      -6.884  -1.440   4.258  0.00  0.00    -0.150 OA
ATOM     11  O   UNL     1      -4.765  -0.173   4.588  0.00  0.00    -0.150 OA
BRANCH   9  16
ATOM     12  C   UNL     1      -8.809   3.089   8.629  0.00  0.00    +0.044 C 
ATOM     13  C   UNL     1      -8.148   2.263   7.556  0.00  0.00    -0.050 A 
ATOM     14  C   UNL     1      -8.863   1.275   6.905  0.00  0.00    +0.005 A 
ATOM     15  C   UNL     1      -8.257   0.517   5.921  0.00  0.00    +0.029 A 
ATOM     16  C   UNL     1      -6.935   0.748   5.587  0.00  0.00    +0.109 A 
ATOM     17  C   UNL     1      -6.219   1.732   6.242  0.00  0.00    +0.029 A 
ATOM     18  C   UNL     1      -6.826   2.493   7.223  0.00  0.00    +0.005 A 
ENDBRANCH   9  16
ENDBRANCH   1   9
BRANCH   1  19
ATOM     19  C   UNL     1      -5.435   1.555   2.424  0.00  0.00    +0.227 C 
BRANCH  19  20
ATOM     20  C   UNL     1      -4.456   0.895   1.488  0.00  0.00    +0.233 C 
ATOM     21  O   UNL     1      -4.559  -0.287   1.237  0.00  0.00    -0.274 OA
ATOM     22  N   UNL     1      -3.465   1.618   0.929  0.00  0.00    -0.307 N 
ATOM     23  H   UNL     1      -3.371   2.690   1.157  0.00  0.00    +0.149 HD
BRANCH  22  24
ATOM     24  C   UNL     1      -2.513   0.977   0.019  0.00  0.00    +0.100 C 
ATOM     25  C   UNL     1      -3.096   0.955  -1.396  0.00  0.00    +0.033 C 
BRANCH  24  26
ATOM     26  C   UNL     1      -1.220   1.750   0.017  0.00  0.00    -0.027 A 
ATOM     27  C   UNL     1      -0.013   1.076  -0.009  0.00  0.00    +0.007 A 
ATOM     28  C   UNL     1       1.174   1.782  -0.016  0.00  0.00    +0.023 A 
ATOM     29  C   UNL     1       1.155   3.171   0.008  0.00  0.00    +0.030 A 
ATOM     30  C   UNL     1      -0.060   3.845   0.040  0.00  0.00    +0.023 A 
ATOM     31  C   UNL     1      -1.243   3.132   0.047  0.00  0.00    +0.007 A 
BRANCH  29  32
ATOM     32  N   UNL     1       2.353   3.888   0.000  0.00  0.00    -0.330 N 
ATOM     33  C   UNL     1       3.152   3.603   1.220  0.00  0.00    +0.105 C 
ATOM     34  C   UNL     1       4.586   4.021   0.809  0.00  0.00    +0.020 C 
ATOM     35  C   UNL     1       4.666   3.577  -0.669  0.00  0.00    +0.020 C 
ATOM     36  C   UNL     1       3.203   3.486  -1.142  0.00  0.00    +0.105 C 
ENDBRANCH  29  32
ENDBRANCH  24  26
ENDBRANCH  22  24
ENDBRANCH  19  20
ENDBRANCH   1  19
TORSDOF 8
