REMARK  Name = ZINC40940209
REMARK  9 active torsions:
REMARK  status: ('A' for Active; 'I' for Inactive)
REMARK    1  A    between atoms: C_1  and  C_2
REMARK    2  A    between atoms: C_2  and  C_3
REMARK    3  A    between atoms: C_3  and  C_4
REMARK    4  A    between atoms: C_4  and  C_5
REMARK    5  A    between atoms: C_11  and  C_25
REMARK    6  A    between atoms: C_12  and  C_15
REMARK    7  A    between atoms: C_18  and  C_21
REMARK    8  A    between atoms: N_26  and  N_27
REMARK    9  A    between atoms: C_28  and  C_30
REMARK                            x       y       z     vdW  Elec       q    Type
REMARK                         _______ _______ _______ _____ _____    ______ ____
ROOT
ATOM      1  C   UNL     1       1.444  -2.513  -2.505  0.00  0.00    -0.047 A 
ATOM      2  C   UNL     1       0.720  -2.742  -3.667  0.00  0.00    +0.005 A 
ATOM      3  C   UNL     1       1.348  -3.186  -4.810  0.00  0.00    +0.026 A 
ATOM      4  C   UNL     1       2.722  -3.410  -4.806  0.00  0.00    +0.048 A 
ATOM      5  C   UNL     1       3.454  -3.178  -3.630  0.00  0.00    +0.009 A 
ATOM      6  C   UNL     1       2.805  -2.724  -2.482  0.00  0.00    +0.014 A 
ATOM      7  C   UNL     1       4.856  -3.501  -3.943  0.00  0.00    +0.028 A 
ATOM      8  C   UNL     1       4.876  -3.901  -5.269  0.00  0.00    +0.056 A 
ATOM      9  N   UNL     1       3.603  -3.844  -5.776  0.00  0.00    -0.354 N 
ATOM     10  H   UNL     1       3.357  -4.075  -6.685  0.00  0.00    +0.166 HD
ENDROOT
BRANCH   8  11
ATOM     11  C   UNL     1       6.077  -4.320  -6.018  0.00  0.00    -0.001 A 
ATOM     12  C   UNL     1       7.260  -3.585  -5.915  0.00  0.00    +0.010 A 
ATOM     13  C   UNL     1       8.378  -3.984  -6.618  0.00  0.00    +0.013 A 
ATOM     14  C   UNL     1       8.330  -5.109  -7.422  0.00  0.00    +0.055 A 
ATOM     15  C   UNL     1       7.161  -5.842  -7.528  0.00  0.00    +0.013 A 
ATOM     16  C   UNL     1       6.037  -5.458  -6.827  0.00  0.00    +0.010 A 
BRANCH  14  17
ATOM     17  C   UNL     1       9.556  -5.537  -8.187  0.00  0.00    +0.417 C 
ATOM     18  F   UNL     1      10.311  -6.416  -7.403  0.00  0.00    -0.166 F 
ATOM     19  F   UNL     1       9.168  -6.180  -9.367  0.00  0.00    -0.166 F 
ATOM     20  F   UNL     1      10.326  -4.412  -8.501  0.00  0.00    -0.166 F 
ENDBRANCH  14  17
ENDBRANCH   8  11
BRANCH   7  21
ATOM     21  C   UNL     1       6.003  -3.416  -3.032  0.00  0.00    +0.141 C 
ATOM     22  N   UNL     1       7.192  -3.736  -3.452  0.00  0.00    -0.187 NA
BRANCH  22  23
ATOM     23  N   UNL     1       8.288  -3.655  -2.582  0.00  0.00    -0.203 N 
ATOM     24  C   UNL     1       9.519  -3.986  -3.017  0.00  0.00    +0.263 C 
ATOM     25  O   UNL     1       9.680  -4.356  -4.164  0.00  0.00    -0.268 OA
ATOM     26  H   UNL     1       8.159  -3.360  -1.667  0.00  0.00    +0.178 HD
BRANCH  24  27
ATOM     27  C   UNL     1      10.677  -3.900  -2.098  0.00  0.00    +0.041 A 
ATOM     28  C   UNL     1      10.513  -3.483  -0.773  0.00  0.00    +0.033 A 
ATOM     29  C   UNL     1      11.621  -3.418   0.050  0.00  0.00    +0.111 A 
ATOM     30  N   UNL     1      12.817  -3.742  -0.398  0.00  0.00    -0.263 NA
ATOM     31  C   UNL     1      13.015  -4.141  -1.639  0.00  0.00    +0.111 A 
ATOM     32  C   UNL     1      11.964  -4.240  -2.529  0.00  0.00    +0.033 A 
ENDBRANCH  24  27
ENDBRANCH  22  23
ENDBRANCH   7  21
BRANCH   1  33
ATOM     33  C   UNL     1       0.739  -2.027  -1.265  0.00  0.00    +0.035 C 
BRANCH  33  34
ATOM     34  C   UNL     1       0.718  -0.497  -1.257  0.00  0.00    +0.004 C 
BRANCH  34  36
ATOM     35  C   UNL     1      -0.019   1.526   0.010  0.00  0.00    +0.004 C 
ATOM     36  C   UNL     1       0.002  -0.004   0.002  0.00  0.00    -0.003 C 
ENDBRANCH  34  36
ENDBRANCH  33  34
ENDBRANCH   1  33
TORSDOF 8
