REMARK  Name = ZINC06077531
REMARK  14 active torsions:
REMARK  status: ('A' for Active; 'I' for Inactive)
REMARK    1  A    between atoms: C_1  and  C_2
REMARK    2  A    between atoms: C_2  and  C_3
REMARK    3  A    between atoms: C_3  and  C_4
REMARK    4  A    between atoms: C_3  and  C_5
REMARK    5  A    between atoms: C_3  and  N_6
REMARK    6  A    between atoms: C_7  and  C_11
REMARK    7  A    between atoms: C_11  and  C_13
REMARK    8  A    between atoms: C_11  and  N_74
REMARK    9  A    between atoms: C_17  and  C_26
REMARK   10  A    between atoms: C_19  and  C_25
REMARK   11  A    between atoms: C_27  and  C_28
REMARK   12  A    between atoms: C_27  and  N_74
REMARK   13  A    between atoms: C_34  and  C_35
REMARK   14  A    between atoms: C_34  and  N_74
REMARK                            x       y       z     vdW  Elec       q    Type
REMARK                         _______ _______ _______ _____ _____    ______ ____
ROOT
ATOM      1  C   UNL     1       3.813   0.064  -1.342  0.00  0.00    +0.040 C 
ENDROOT
BRANCH   1   2
ATOM      2  C   UNL     1       3.582  -0.239  -2.800  0.00  0.00    +0.011 A 
ATOM      3  C   UNL     1       4.190  -1.307  -3.372  0.00  0.00    +0.017 A 
ATOM      4  C   UNL     1       3.942  -1.577  -4.790  0.00  0.00    -0.001 A 
ATOM      5  C   UNL     1       4.537  -2.666  -5.434  0.00  0.00    +0.013 A 
ATOM      6  C   UNL     1       4.290  -2.887  -6.759  0.00  0.00    -0.050 A 
ATOM      7  C   UNL     1       3.453  -2.039  -7.473  0.00  0.00    +0.008 A 
ATOM      8  C   UNL     1       2.855  -0.960  -6.858  0.00  0.00    -0.026 A 
ATOM      9  C   UNL     1       3.092  -0.715  -5.509  0.00  0.00    +0.052 A 
ATOM     10  N   UNL     1       2.509   0.357  -4.869  0.00  0.00    -0.322 N 
ATOM     11  H   UNL     1       1.905   0.968  -5.382  0.00  0.00    +0.169 HD
ATOM     12  C   UNL     1       2.739   0.594  -3.566  0.00  0.00    +0.251 A 
ATOM     13  O   UNL     1       2.206   1.552  -3.033  0.00  0.00    -0.268 OA
ATOM     14  C   UNL     1       1.948  -0.049  -7.644  0.00  0.00    +0.046 C 
ATOM     15  C   UNL     1       4.932  -4.060  -7.454  0.00  0.00    +0.044 C 
ENDBRANCH   1   2
BRANCH   1  17
ATOM     16  N   UNL     1       5.801  -0.984  -0.137  0.00  0.00    -0.225 N 
ATOM     17  C   UNL     1       4.586  -1.065  -0.710  0.00  0.00    +0.143 A 
ATOM     18  N   UNL     1       4.204  -2.314  -0.607  0.00  0.00    -0.115 NA
ATOM     19  N   UNL     1       5.139  -2.969  -0.010  0.00  0.00    -0.023 NA
ATOM     20  N   UNL     1       6.104  -2.168   0.278  0.00  0.00    -0.043 NA
BRANCH  16  21
ATOM     21  C   UNL     1       6.626   0.220  -0.010  0.00  0.00    +0.061 C 
ATOM     22  C   UNL     1       6.936   0.775  -1.402  0.00  0.00    +0.036 C 
ATOM     23  C   UNL     1       5.868   1.273   0.802  0.00  0.00    +0.036 C 
BRANCH  21  25
ATOM     24  C   UNL     1       8.794   1.128   0.835  0.00  0.00    +0.006 C 
ATOM     25  C   UNL     1       7.934  -0.130   0.702  0.00  0.00    +0.026 C 
ENDBRANCH  21  25
ENDBRANCH  16  21
ENDBRANCH   1  17
BRANCH   1  26
ATOM     26  N   UNL     1       2.502   0.229  -0.678  0.00  0.00    +0.395 N 
ATOM     27  H   UNL     1       1.912   0.842  -1.252  0.00  0.00    -0.079 HD
BRANCH  26  28
ATOM     28  C   UNL     1       1.838  -1.084  -0.539  0.00  0.00    -0.041 C 
BRANCH  28  29
ATOM     29  C   UNL     1       1.293  -1.494  -1.883  0.00  0.00    -0.064 A 
ATOM     30  C   UNL     1       0.110  -0.949  -2.345  0.00  0.00    +0.002 A 
ATOM     31  C   UNL     1      -0.388  -1.321  -3.579  0.00  0.00    +0.000 A 
ATOM     32  C   UNL     1       0.293  -2.247  -4.348  0.00  0.00    +0.000 A 
ATOM     33  C   UNL     1       1.473  -2.797  -3.883  0.00  0.00    +0.000 A 
ATOM     34  C   UNL     1       1.973  -2.421  -2.651  0.00  0.00    +0.002 A 
ENDBRANCH  28  29
ENDBRANCH  26  28
BRANCH  26  35
ATOM     35  C   UNL     1       2.684   0.846   0.653  0.00  0.00    -0.040 C 
BRANCH  35  36
ATOM     36  C   UNL     1       1.330   1.170   1.228  0.00  0.00    -0.046 A 
ATOM     37  C   UNL     1       0.679   0.261   2.048  0.00  0.00    +0.005 A 
ATOM     38  C   UNL     1      -0.567   0.599   2.551  0.00  0.00    +0.020 A 
ATOM     39  C   UNL     1      -1.112   1.829   2.230  0.00  0.00    +0.111 A 
ATOM     40  N   UNL     1      -0.464   2.669   1.447  0.00  0.00    -0.263 NA
ATOM     41  C   UNL     1       0.721   2.378   0.946  0.00  0.00    +0.112 A 
ENDBRANCH  35  36
ENDBRANCH  26  35
ENDBRANCH   1  26
TORSDOF 9
