REMARK  Name = ZINC40033154
REMARK  10 active torsions:
REMARK  status: ('A' for Active; 'I' for Inactive)
REMARK    1  A    between atoms: C_1  and  C_2
REMARK    2  A    between atoms: C_2  and  C_33
REMARK    3  A    between atoms: N_14  and  C_30
REMARK    4  A    between atoms: N_17  and  N_18
REMARK    5  A    between atoms: C_19  and  C_20
REMARK    6  A    between atoms: C_23  and  C_26
REMARK    7  A    between atoms: C_26  and  C_27
REMARK    8  A    between atoms: C_26  and  C_28
REMARK    9  A    between atoms: C_26  and  C_29
REMARK   10  A    between atoms: C_30  and  C_31
REMARK                            x       y       z     vdW  Elec       q    Type
REMARK                         _______ _______ _______ _____ _____    ______ ____
ROOT
ATOM      1  C   UNL     1       0.102   1.521   0.082  0.00  0.00    +0.016 C 
ATOM      2  C   UNL     1       0.002  -0.004   0.002  0.00  0.00    +0.001 C 
ATOM      3  C   UNL     1      -1.468  -0.409  -0.082  0.00  0.00    +0.047 C 
ATOM      4  C   UNL     1      -2.167  -0.136   1.222  0.00  0.00    -0.037 A 
ATOM      5  C   UNL     1      -3.481   0.284   1.236  0.00  0.00    +0.004 A 
ATOM      6  C   UNL     1      -4.117   0.528   2.440  0.00  0.00    +0.000 A 
ATOM      7  C   UNL     1      -3.445   0.353   3.636  0.00  0.00    +0.001 A 
ATOM      8  C   UNL     1      -2.129  -0.066   3.636  0.00  0.00    +0.010 A 
ATOM      9  C   UNL     1      -1.484  -0.311   2.427  0.00  0.00    +0.004 A 
ATOM     10  C   UNL     1      -0.071  -0.752   2.394  0.00  0.00    +0.084 A 
ATOM     11  C   UNL     1       0.648  -0.607   1.217  0.00  0.00    +0.049 A 
ATOM     12  C   UNL     1       1.983  -1.033   1.185  0.00  0.00    +0.260 A 
ATOM     13  O   UNL     1       2.648  -0.924   0.168  0.00  0.00    -0.267 OA
ATOM     14  N   UNL     1       2.518  -1.566   2.305  0.00  0.00    -0.276 N 
ATOM     15  C   UNL     1       1.768  -1.680   3.436  0.00  0.00    +0.219 A 
ATOM     16  N   UNL     1       0.513  -1.282   3.473  0.00  0.00    -0.214 NA
ATOM     17  N   UNL     1       2.333  -2.221   4.562  0.00  0.00    -0.206 N 
ATOM     18  C   UNL     1       0.731  -0.491  -1.252  0.00  0.00    +0.016 C 
ATOM     19  H   UNL     1       3.256  -2.517   4.548  0.00  0.00    +0.177 HD
ENDROOT
BRANCH  17  20
ATOM     20  N   UNL     1       1.576  -2.345   5.735  0.00  0.00    -0.188 NA
ATOM     21  C   UNL     1       2.111  -2.857   6.801  0.00  0.00    +0.138 C 
BRANCH  21  22
ATOM     22  C   UNL     1       1.314  -2.989   8.035  0.00  0.00    -0.005 A 
ATOM     23  C   UNL     1      -0.018  -2.568   8.059  0.00  0.00    +0.010 A 
ATOM     24  C   UNL     1      -0.757  -2.694   9.216  0.00  0.00    +0.005 A 
ATOM     25  C   UNL     1      -0.182  -3.235  10.353  0.00  0.00    -0.042 A 
ATOM     26  C   UNL     1       1.137  -3.653  10.337  0.00  0.00    +0.005 A 
ATOM     27  C   UNL     1       1.886  -3.539   9.184  0.00  0.00    +0.010 A 
BRANCH  25  28
ATOM     28  C   UNL     1      -0.996  -3.369  11.614  0.00  0.00    -0.013 C 
ATOM     29  C   UNL     1      -2.207  -4.266  11.347  0.00  0.00    +0.015 C 
ATOM     30  C   UNL     1      -0.134  -3.991  12.714  0.00  0.00    +0.015 C 
ATOM     31  C   UNL     1      -1.475  -1.986  12.061  0.00  0.00    +0.015 C 
ENDBRANCH  25  28
ENDBRANCH  21  22
ENDBRANCH  17  20
BRANCH  14  32
ATOM     32  C   UNL     1       3.909  -2.023   2.302  0.00  0.00    +0.155 C 
BRANCH  32  33
ATOM     33  C   UNL     1       4.812  -0.889   2.713  0.00  0.00    -0.013 C 
ATOM     34  C   UNL     1       5.640  -1.041   3.717  0.00  0.00    +0.005 C 
ENDBRANCH  32  33
ENDBRANCH  14  32
TORSDOF 5
