REMARK  Name = ZINC35568199
REMARK  13 active torsions:
REMARK  status: ('A' for Active; 'I' for Inactive)
REMARK    1  A    between atoms: C_1  and  C_2
REMARK    2  A    between atoms: C_2  and  O_3
REMARK    3  A    between atoms: O_3  and  C_4
REMARK    4  A    between atoms: C_6  and  C_14
REMARK    5  A    between atoms: C_9  and  O_10
REMARK    6  A    between atoms: O_10  and  C_11
REMARK    7  A    between atoms: C_11  and  C_12
REMARK    8  A    between atoms: C_16  and  C_29
REMARK    9  A    between atoms: N_20  and  C_21
REMARK   10  A    between atoms: C_21  and  C_22
REMARK   11  A    between atoms: C_29  and  C_31
REMARK   12  A    between atoms: C_32  and  C_37
REMARK   13  A    between atoms: C_34  and  C_36
REMARK                            x       y       z     vdW  Elec       q    Type
REMARK                         _______ _______ _______ _____ _____    ______ ____
ROOT
ATOM      1  C   UNL     1       0.231  -5.267  -0.539  0.00  0.00    +0.145 C 
ATOM      2  C   UNL     1      -1.164  -5.794  -0.294  0.00  0.00    +0.077 C 
ATOM      3  C   UNL     1      -1.075  -7.144  -0.283  0.00  0.00    +0.249 C 
ATOM      4  C   UNL     1       0.329  -7.540  -0.513  0.00  0.00    +0.288 C 
ATOM      5  O   UNL     1       0.732  -8.685  -0.559  0.00  0.00    -0.266 OA
ATOM      6  N   UNL     1       1.098  -6.444  -0.662  0.00  0.00    -0.279 N 
ATOM      7  O   UNL     1      -2.109  -7.996  -0.093  0.00  0.00    -0.282 OA
ENDROOT
BRANCH   1  10
ATOM      8  C   UNL     1      -0.258  -4.242  -4.142  0.00  0.00    +0.162 A 
ATOM      9  C   UNL     1      -0.288  -4.980  -2.970  0.00  0.00    +0.055 A 
ATOM     10  C   UNL     1       0.264  -4.462  -1.813  0.00  0.00    -0.019 A 
ATOM     11  C   UNL     1       0.846  -3.208  -1.822  0.00  0.00    +0.009 A 
ATOM     12  C   UNL     1       0.879  -2.467  -2.988  0.00  0.00    +0.050 A 
ATOM     13  C   UNL     1       0.334  -2.982  -4.152  0.00  0.00    +0.162 A 
BRANCH   8  14
ATOM     14  O   UNL     1      -0.800  -4.750  -5.281  0.00  0.00    -0.489 OA
BRANCH  14  16
ATOM     15  C   UNL     1      -1.973  -6.433  -6.558  0.00  0.00    +0.048 C 
ATOM     16  C   UNL     1      -1.445  -6.021  -5.182  0.00  0.00    +0.226 C 
ENDBRANCH  14  16
ENDBRANCH   8  14
BRANCH  13  17
ATOM     17  O   UNL     1       0.370  -2.256  -5.302  0.00  0.00    -0.484 OA
BRANCH  17  18
ATOM     18  C   UNL     1       0.993  -0.971  -5.238  0.00  0.00    +0.256 C 
BRANCH  18  19
ATOM     19  C   UNL     1       0.940  -0.319  -6.595  0.00  0.00    +0.006 C 
ATOM     20  C   UNL     1       0.592   0.939  -6.704  0.00  0.00    +0.007 C 
ENDBRANCH  18  19
ENDBRANCH  17  18
ENDBRANCH  13  17
ENDBRANCH   1  10
BRANCH   2  21
ATOM     21  C   UNL     1      -2.381  -4.996  -0.103  0.00  0.00    +0.203 C 
ATOM     22  O   UNL     1      -3.469  -5.542  -0.070  0.00  0.00    -0.286 OA
BRANCH  21  23
ATOM     23  C   UNL     1      -2.287  -3.540   0.048  0.00  0.00    +0.082 A 
ATOM     24  C   UNL     1      -3.293  -2.582   0.078  0.00  0.00    +0.057 A 
ATOM     25  N   UNL     1      -2.907  -1.340   0.227  0.00  0.00    -0.249 NA
ATOM     26  C   UNL     1      -1.637  -1.021   0.342  0.00  0.00    +0.076 A 
ATOM     27  S   UNL     1      -0.846  -2.504   0.253  0.00  0.00    -0.069 S 
ATOM     28  C   UNL     1      -1.033   0.348   0.518  0.00  0.00    +0.073 C 
ATOM     29  C   UNL     1      -4.748  -2.952  -0.054  0.00  0.00    +0.067 C 
ENDBRANCH  21  23
ENDBRANCH   2  21
BRANCH   6  30
ATOM     30  C   UNL     1       2.543  -6.429  -0.906  0.00  0.00    +0.144 C 
BRANCH  30  31
ATOM     31  C   UNL     1       3.274  -6.397   0.412  0.00  0.00    -0.030 A 
ATOM     32  C   UNL     1       3.588  -5.185   0.998  0.00  0.00    +0.005 A 
ATOM     33  C   UNL     1       4.259  -5.156   2.207  0.00  0.00    +0.000 A 
ATOM     34  C   UNL     1       4.615  -6.338   2.829  0.00  0.00    +0.000 A 
ATOM     35  C   UNL     1       4.300  -7.550   2.243  0.00  0.00    +0.000 A 
ATOM     36  C   UNL     1       3.625  -7.579   1.036  0.00  0.00    +0.005 A 
ENDBRANCH  30  31
ENDBRANCH   6  30
TORSDOF 10
