REMARK  Name = ZINC03503467
REMARK  8 active torsions:
REMARK  status: ('A' for Active; 'I' for Inactive)
REMARK    1  A    between atoms: C_1  and  S_2
REMARK    2  A    between atoms: S_2  and  C_5
REMARK    3  A    between atoms: C_8  and  C_14
REMARK    4  A    between atoms: C_10  and  N_11
REMARK    5  A    between atoms: C_14  and  O_16
REMARK    6  A    between atoms: O_16  and  C_17
REMARK    7  A    between atoms: C_17  and  C_18
REMARK    8  A    between atoms: N_20  and  C_21
REMARK                            x       y       z     vdW  Elec       q    Type
REMARK                         _______ _______ _______ _____ _____    ______ ____
ROOT
ATOM      1  O   UNL     1       1.169   1.541   0.443  0.00  0.00    -0.452 OA
ENDROOT
BRANCH   1   2
ATOM      2  C   UNL     1      -0.023   0.916   0.509  0.00  0.00    +0.340 C 
ATOM      3  O   UNL     1      -0.070  -0.293   0.615  0.00  0.00    -0.245 OA
BRANCH   2   7
ATOM      4  C   UNL     1      -3.616   3.174   0.334  0.00  0.00    +0.118 A 
ATOM      5  C   UNL     1      -2.393   3.819   0.271  0.00  0.00    +0.030 A 
ATOM      6  C   UNL     1      -1.222   3.092   0.333  0.00  0.00    +0.017 A 
ATOM      7  C   UNL     1      -1.273   1.702   0.448  0.00  0.00    +0.061 A 
ATOM      8  C   UNL     1      -2.510   1.057   0.511  0.00  0.00    +0.049 A 
ATOM      9  C   UNL     1      -3.673   1.796   0.454  0.00  0.00    +0.152 A 
BRANCH   4  11
ATOM     10  C   UNL     1      -5.871   3.648  -1.317  0.00  0.00    +0.200 C 
ATOM     11  S   UNL     1      -5.106   4.110   0.262  0.00  0.00    -0.004 S 
ATOM     12  O   UNL     1      -5.890   3.629   1.345  0.00  0.00    -0.170 OA
ATOM     13  O   UNL     1      -4.682   5.465   0.221  0.00  0.00    -0.170 OA
ENDBRANCH   4  11
BRANCH   9  14
ATOM     14  N   UNL     1      -4.985   1.115   0.521  0.00  0.00    +0.058 N 
ATOM     15  O   UNL     1      -5.039  -0.082   0.743  0.00  0.00    -0.126 OA
ATOM     16  O   UNL     1      -6.011   1.750   0.355  0.00  0.00    -0.126 OA
ENDBRANCH   9  14
ENDBRANCH   2   7
ENDBRANCH   1   2
BRANCH   1  17
ATOM     17  C   UNL     1       2.355   0.706   0.502  0.00  0.00    +0.328 C 
BRANCH  17  18
ATOM     18  C   UNL     1       3.585   1.573   0.414  0.00  0.00    +0.255 C 
ATOM     19  O   UNL     1       3.472   2.776   0.311  0.00  0.00    -0.272 OA
ATOM     20  N   UNL     1       4.809   1.011   0.450  0.00  0.00    -0.282 N 
ATOM     21  H   UNL     1       4.901   0.056   0.592  0.00  0.00    +0.155 HD
BRANCH  20  22
ATOM     22  C   UNL     1       5.946   1.803   0.283  0.00  0.00    +0.041 A 
ATOM     23  C   UNL     1       5.970   3.095   0.762  0.00  0.00    +0.024 A 
ATOM     24  C   UNL     1       7.098   3.894   0.601  0.00  0.00    +0.002 A 
ATOM     25  C   UNL     1       8.207   3.423  -0.033  0.00  0.00    +0.008 A 
ATOM     26  C   UNL     1       8.225   2.111  -0.536  0.00  0.00    -0.016 A 
ATOM     27  C   UNL     1       7.084   1.287  -0.373  0.00  0.00    +0.003 A 
ATOM     28  C   UNL     1       7.101  -0.022  -0.880  0.00  0.00    +0.010 A 
ATOM     29  C   UNL     1       8.214  -0.485  -1.513  0.00  0.00    +0.001 A 
ATOM     30  C   UNL     1       9.338   0.323  -1.670  0.00  0.00    +0.001 A 
ATOM     31  C   UNL     1       9.356   1.599  -1.195  0.00  0.00    +0.008 A 
ENDBRANCH  20  22
ENDBRANCH  17  18
ENDBRANCH   1  17
TORSDOF 7
