REMARK  Name = ZINC67295676
REMARK  9 active torsions:
REMARK  status: ('A' for Active; 'I' for Inactive)
REMARK    1  A    between atoms: C_1  and  C_2
REMARK    2  A    between atoms: C_6  and  N_8
REMARK    3  A    between atoms: C_9  and  C_11
REMARK    4  A    between atoms: C_17  and  O_32
REMARK    5  A    between atoms: N_21  and  C_22
REMARK    6  A    between atoms: C_26  and  C_28
REMARK    7  A    between atoms: C_28  and  O_30
REMARK    8  A    between atoms: O_30  and  C_31
REMARK    9  A    between atoms: O_32  and  C_33
REMARK                            x       y       z     vdW  Elec       q    Type
REMARK                         _______ _______ _______ _____ _____    ______ ____
ROOT
ATOM      1  C   UNL     1      -0.170  -4.648   3.755  0.00  0.00    +0.098 A 
ATOM      2  C   UNL     1      -0.141  -6.034   3.830  0.00  0.00    +0.030 A 
ATOM      3  C   UNL     1      -0.195  -6.637   5.164  0.00  0.00    +0.022 A 
ATOM      4  C   UNL     1       0.094  -7.996   5.349  0.00  0.00    +0.012 A 
ATOM      5  C   UNL     1       0.043  -8.537   6.603  0.00  0.00    +0.004 A 
ATOM      6  C   UNL     1      -0.292  -7.753   7.697  0.00  0.00    +0.049 A 
ATOM      7  C   UNL     1      -0.584  -6.409   7.538  0.00  0.00    +0.163 A 
ATOM      8  C   UNL     1      -0.540  -5.839   6.269  0.00  0.00    +0.179 A 
ATOM      9  O   UNL     1      -0.830  -4.527   6.090  0.00  0.00    -0.435 OA
ATOM     10  C   UNL     1      -0.246  -3.907   5.029  0.00  0.00    +0.212 A 
ATOM     11  N   UNL     1       0.231  -2.685   5.133  0.00  0.00    -0.325 N 
ATOM     12  H   UNL     1       0.731  -2.296   4.399  0.00  0.00    +0.169 HD
ENDROOT
BRANCH  11  13
ATOM     13  C   UNL     1       0.022  -1.964   6.277  0.00  0.00    +0.043 A 
ATOM     14  C   UNL     1      -1.243  -1.944   6.871  0.00  0.00    +0.026 A 
ATOM     15  C   UNL     1      -1.455  -1.217   8.025  0.00  0.00    +0.003 A 
ATOM     16  C   UNL     1      -0.422  -0.505   8.600  0.00  0.00    +0.015 A 
ATOM     17  C   UNL     1       0.848  -0.515   8.017  0.00  0.00    +0.061 A 
ATOM     18  C   UNL     1       1.072  -1.251   6.855  0.00  0.00    +0.040 A 
BRANCH  17  19
ATOM     19  C   UNL     1       1.952   0.248   8.634  0.00  0.00    +0.339 C 
ATOM     20  O   UNL     1       3.056   0.238   8.126  0.00  0.00    -0.245 OA
BRANCH  19  21
ATOM     21  O   UNL     1       1.736   0.955   9.760  0.00  0.00    -0.464 OA
ATOM     22  C   UNL     1       2.849   1.669  10.302  0.00  0.00    +0.280 C 
ENDBRANCH  19  21
ENDBRANCH  17  19
ENDBRANCH  11  13
BRANCH   1  24
ATOM     23  N   UNL     1      -0.289  -2.611   2.410  0.00  0.00    -0.266 N 
ATOM     24  C   UNL     1      -0.119  -3.948   2.461  0.00  0.00    +0.254 C 
ATOM     25  O   UNL     1       0.075  -4.575   1.437  0.00  0.00    -0.270 OA
ATOM     26  H   UNL     1      -0.396  -2.105   3.231  0.00  0.00    +0.157 HD
BRANCH  23  32
ATOM     27  C   UNL     1      -1.556   1.252  -0.119  0.00  0.00    +0.065 C 
ATOM     28  C   UNL     1      -0.910  -0.108  -0.062  0.00  0.00    +0.040 A 
ATOM     29  C   UNL     1      -0.370  -0.655  -1.209  0.00  0.00    +0.023 A 
ATOM     30  C   UNL     1       0.224  -1.908  -1.150  0.00  0.00    +0.005 A 
ATOM     31  C   UNL     1       0.252  -2.569   0.066  0.00  0.00    +0.044 A 
ATOM     32  C   UNL     1      -0.311  -1.958   1.180  0.00  0.00    +0.125 A 
ATOM     33  N   UNL     1      -0.864  -0.759   1.085  0.00  0.00    -0.237 NA
ENDBRANCH  23  32
ENDBRANCH   1  24
BRANCH   7  34
ATOM     34  O   UNL     1      -0.913  -5.649   8.617  0.00  0.00    -0.491 OA
ATOM     35  C   UNL     1      -0.938  -6.303   9.887  0.00  0.00    +0.277 C 
ENDBRANCH   7  34
TORSDOF 6
