REMARK  Name = ZINC33489760
REMARK  15 active torsions:
REMARK  status: ('A' for Active; 'I' for Inactive)
REMARK    1  A    between atoms: C_4  and  O_7
REMARK    2  A    between atoms: O_7  and  C_8
REMARK    3  A    between atoms: C_11  and  N_14
REMARK    4  A    between atoms: N_14  and  C_15
REMARK    5  A    between atoms: C_15  and  C_16
REMARK    6  A    between atoms: C_16  and  C_17
REMARK    7  A    between atoms: C_17  and  N_18
REMARK    8  A    between atoms: C_19  and  C_21
REMARK    9  A    between atoms: C_21  and  C_22
REMARK   10  A    between atoms: C_22  and  C_23
REMARK   11  A    between atoms: C_23  and  C_24
REMARK   12  A    between atoms: C_24  and  C_25
REMARK   13  A    between atoms: C_25  and  N_26
REMARK   14  A    between atoms: N_29  and  C_30
REMARK   15  A    between atoms: C_33  and  N_36
REMARK                            x       y       z     vdW  Elec       q    Type
REMARK                         _______ _______ _______ _____ _____    ______ ____
ROOT
ATOM      1  N   UNL     1      -5.141   7.387   0.267  0.00  0.00    -0.255 N 
ATOM      2  C   UNL     1      -5.306   8.720   0.163  0.00  0.00    +0.311 C 
ATOM      3  O   UNL     1      -4.335   9.450   0.095  0.00  0.00    -0.252 OA
ATOM      4  N   UNL     1      -6.547   9.246   0.135  0.00  0.00    -0.269 N 
ATOM      5  H   UNL     1      -7.422   8.598   0.292  0.00  0.00    +0.156 HD
ENDROOT
BRANCH   1   9
ATOM      6  C   UNL     1      -1.318   5.736   0.058  0.00  0.00    +0.129 A 
ATOM      7  C   UNL     1      -1.660   6.560   1.120  0.00  0.00    +0.048 A 
ATOM      8  C   UNL     1      -2.924   7.112   1.187  0.00  0.00    +0.027 A 
ATOM      9  C   UNL     1      -3.856   6.832   0.197  0.00  0.00    +0.038 A 
ATOM     10  C   UNL     1      -3.515   6.002  -0.863  0.00  0.00    +0.027 A 
ATOM     11  C   UNL     1      -2.249   5.456  -0.932  0.00  0.00    +0.048 A 
BRANCH   6  12
ATOM     12  O   UNL     1      -0.071   5.197  -0.010  0.00  0.00    -0.456 OA
BRANCH  12  16
ATOM     13  C   UNL     1       2.485   5.821   3.167  0.00  0.00    +0.000 A 
ATOM     14  C   UNL     1       2.766   6.381   1.935  0.00  0.00    +0.004 A 
ATOM     15  C   UNL     1       1.915   6.170   0.868  0.00  0.00    +0.046 A 
ATOM     16  C   UNL     1       0.771   5.403   1.036  0.00  0.00    +0.128 A 
ATOM     17  C   UNL     1       0.488   4.845   2.275  0.00  0.00    +0.046 A 
ATOM     18  C   UNL     1       1.346   5.055   3.338  0.00  0.00    +0.004 A 
ENDBRANCH  12  16
ENDBRANCH   6  12
ENDBRANCH   1   9
BRANCH   4  19
ATOM     19  C   UNL     1      -6.722  10.615  -0.095  0.00  0.00    +0.035 A 
ATOM     20  C   UNL     1      -7.759  11.298   0.526  0.00  0.00    +0.025 A 
ATOM     21  C   UNL     1      -7.926  12.650   0.302  0.00  0.00    +0.034 A 
ATOM     22  C   UNL     1      -7.068  13.322  -0.550  0.00  0.00    +0.126 A 
ATOM     23  C   UNL     1      -6.038  12.644  -1.175  0.00  0.00    +0.034 A 
ATOM     24  C   UNL     1      -5.862  11.292  -0.950  0.00  0.00    +0.025 A 
BRANCH  22  25
ATOM     25  N   UNL     1      -7.253  14.771  -0.793  0.00  0.00    +0.056 N 
ATOM     26  O   UNL     1      -6.498  15.363  -1.543  0.00  0.00    -0.126 OA
ATOM     27  O   UNL     1      -8.160  15.369  -0.243  0.00  0.00    -0.126 OA
ENDBRANCH  22  25
ENDBRANCH   4  19
BRANCH   1  28
ATOM     28  C   UNL     1      -6.305   6.517   0.454  0.00  0.00    +0.117 C 
BRANCH  28  29
ATOM     29  C   UNL     1      -6.577   6.342   1.949  0.00  0.00    +0.038 C 
BRANCH  29  30
ATOM     30  C   UNL     1      -7.792   5.434   2.144  0.00  0.00    +0.105 C 
BRANCH  30  31
ATOM     31  N   UNL     1      -8.052   5.267   3.576  0.00  0.00    -0.315 N 
ATOM     32  C   UNL     1      -9.082   4.502   3.989  0.00  0.00    +0.213 C 
ATOM     33  O   UNL     1      -9.794   3.952   3.176  0.00  0.00    -0.276 OA
ATOM     34  H   UNL     1      -7.407   5.765   4.314  0.00  0.00    +0.149 HD
BRANCH  32  35
ATOM     35  C   UNL     1      -9.350   4.330   5.463  0.00  0.00    +0.096 C 
BRANCH  35  36
ATOM     36  C   UNL     1     -10.565   3.421   5.657  0.00  0.00    +0.009 C 
BRANCH  36  37
ATOM     37  C   UNL     1     -10.837   3.247   7.153  0.00  0.00    -0.001 C 
BRANCH  37  38
ATOM     38  C   UNL     1     -12.052   2.338   7.348  0.00  0.00    -0.020 C 
BRANCH  38  39
ATOM     39  C   UNL     1     -12.324   2.163   8.843  0.00  0.00    -0.086 C 
BRANCH  39  40
ATOM     40  N   UNL     1     -13.491   1.291   9.031  0.00  0.00    +0.378 N 
ATOM     41  H   UNL     1     -13.686   1.166  10.106  0.00  0.00    -0.090 HD
ATOM     42  H   UNL     1     -13.291   0.309   8.577  0.00  0.00    -0.090 HD
ATOM     43  H   UNL     1     -14.369   1.746   8.549  0.00  0.00    -0.090 HD
ENDBRANCH  39  40
ENDBRANCH  38  39
ENDBRANCH  37  38
ENDBRANCH  36  37
ENDBRANCH  35  36
ENDBRANCH  32  35
ENDBRANCH  30  31
ENDBRANCH  29  30
ENDBRANCH  28  29
ENDBRANCH   1  28
TORSDOF 15
