REMARK  Name = ZINC09381216
REMARK  9 active torsions:
REMARK  status: ('A' for Active; 'I' for Inactive)
REMARK    1  A    between atoms: C_1  and  C_2
REMARK    2  A    between atoms: C_2  and  O_3
REMARK    3  A    between atoms: O_3  and  C_4
REMARK    4  A    between atoms: C_4  and  C_6
REMARK    5  A    between atoms: N_9  and  C_12
REMARK    6  A    between atoms: C_12  and  C_14
REMARK    7  A    between atoms: C_12  and  C_21
REMARK    8  A    between atoms: C_22  and  O_30
REMARK    9  A    between atoms: C_27  and  C_29
REMARK                            x       y       z     vdW  Elec       q    Type
REMARK                         _______ _______ _______ _____ _____    ______ ____
ROOT
ATOM      1  C   UNL     1       4.369  -4.570  -4.747  0.00  0.00    +0.005 C 
ENDROOT
BRANCH   1   2
ATOM      2  C   UNL     1       4.340  -6.071  -4.616  0.00  0.00    +0.045 A 
ATOM      3  C   UNL     1       3.951  -6.990  -5.508  0.00  0.00    +0.225 A 
ATOM      4  N   UNL     1       3.999  -8.329  -5.200  0.00  0.00    -0.173 N 
ATOM      5  C   UNL     1       4.454  -8.668  -3.962  0.00  0.00    +0.199 A 
ATOM      6  S   UNL     1       4.824  -7.092  -3.232  0.00  0.00    -0.050 S 
ATOM      7  N   UNL     1       4.435  -9.967  -3.830  0.00  0.00    -0.205 NA
ATOM      8  C   UNL     1       3.977 -10.517  -4.953  0.00  0.00    +0.150 A 
ATOM      9  N   UNL     1       3.699  -9.573  -5.812  0.00  0.00    -0.147 NA
ATOM     10  C   UNL     1       3.807 -11.995  -5.194  0.00  0.00    +0.090 C 
BRANCH   3  11
ATOM     11  O   UNL     1       3.504  -6.596  -6.730  0.00  0.00    -0.492 OA
ATOM     12  H   UNL     1       3.245  -7.326  -7.309  0.00  0.00    +0.294 HD
ENDBRANCH   3  11
ENDBRANCH   1   2
BRANCH   1  16
ATOM     13  C   UNL     1       1.468  -2.353  -2.550  0.00  0.00    +0.094 C 
ATOM     14  C   UNL     1       2.921  -1.871  -2.579  0.00  0.00    -0.004 C 
ATOM     15  C   UNL     1       3.640  -2.506  -3.772  0.00  0.00    -0.077 C 
ATOM     16  N   UNL     1       3.611  -3.968  -3.642  0.00  0.00    +0.387 N 
ATOM     17  C   UNL     1       2.223  -4.444  -3.685  0.00  0.00    -0.077 C 
ATOM     18  C   UNL     1       1.450  -3.884  -2.490  0.00  0.00    -0.004 C 
ATOM     19  H   UNL     1       4.030  -4.235  -2.764  0.00  0.00    -0.080 HD
BRANCH  13  20
ATOM     20  C   UNL     1       0.775  -1.794  -1.334  0.00  0.00    +0.310 C 
ATOM     21  O   UNL     1       0.314  -2.540  -0.504  0.00  0.00    -0.251 OA
BRANCH  20  22
ATOM     22  O   UNL     1       0.671  -0.465  -1.174  0.00  0.00    -0.465 OA
BRANCH  22  24
ATOM     23  C   UNL     1      -0.019   1.526   0.010  0.00  0.00    +0.048 C 
ATOM     24  C   UNL     1       0.002  -0.004   0.002  0.00  0.00    +0.229 C 
ENDBRANCH  22  24
ENDBRANCH  20  22
ENDBRANCH  13  20
ENDBRANCH   1  16
BRANCH   1  25
ATOM     25  C   UNL     1       5.796  -4.089  -4.699  0.00  0.00    -0.055 A 
ATOM     26  C   UNL     1       6.443  -3.966  -3.483  0.00  0.00    +0.002 A 
ATOM     27  C   UNL     1       7.752  -3.524  -3.438  0.00  0.00    +0.002 A 
ATOM     28  C   UNL     1       8.415  -3.205  -4.609  0.00  0.00    +0.020 A 
ATOM     29  C   UNL     1       7.768  -3.328  -5.825  0.00  0.00    +0.041 A 
ATOM     30  C   UNL     1       6.459  -3.776  -5.870  0.00  0.00    +0.022 A 
ATOM     31 CL   UNL     1       8.600  -2.928  -7.295  0.00  0.00    -0.084 Cl
ENDBRANCH   1  25
TORSDOF 7
