REMARK  Name = ZINC39491401
REMARK  12 active torsions:
REMARK  status: ('A' for Active; 'I' for Inactive)
REMARK    1  A    between atoms: C_1  and  C_2
REMARK    2  A    between atoms: C_2  and  C_3
REMARK    3  A    between atoms: C_3  and  C_5
REMARK    4  A    between atoms: C_3  and  C_28
REMARK    5  A    between atoms: C_5  and  N_6
REMARK    6  A    between atoms: C_8  and  C_19
REMARK    7  A    between atoms: C_13  and  C_15
REMARK    8  A    between atoms: C_15  and  O_17
REMARK    9  A    between atoms: O_17  and  C_18
REMARK   10  A    between atoms: C_19  and  N_20
REMARK   11  A    between atoms: N_20  and  C_21
REMARK   12  A    between atoms: C_21  and  C_22
REMARK                            x       y       z     vdW  Elec       q    Type
REMARK                         _______ _______ _______ _____ _____    ______ ____
ROOT
ATOM      1  N   UNL     1       1.722  -2.399   0.035  0.00  0.00    -0.346 N 
ATOM      2  C   UNL     1       1.267  -2.730  -1.212  0.00  0.00    +0.088 A 
ATOM      3  C   UNL     1       2.302  -3.011  -2.018  0.00  0.00    -0.039 A 
ATOM      4  C   UNL     1       3.521  -2.847  -1.220  0.00  0.00    +0.002 A 
ATOM      5  C   UNL     1       3.095  -2.454   0.064  0.00  0.00    +0.049 A 
ATOM      6  C   UNL     1       4.039  -2.213   1.060  0.00  0.00    +0.027 A 
ATOM      7  C   UNL     1       5.369  -2.351   0.793  0.00  0.00    +0.017 A 
ATOM      8  C   UNL     1       5.806  -2.737  -0.482  0.00  0.00    +0.060 A 
ATOM      9  C   UNL     1       4.879  -2.992  -1.489  0.00  0.00    +0.025 A 
ENDROOT
BRANCH   8  10
ATOM     10  C   UNL     1       7.249  -2.882  -0.754  0.00  0.00    +0.339 C 
ATOM     11  O   UNL     1       7.628  -3.216  -1.859  0.00  0.00    -0.245 OA
BRANCH  10  12
ATOM     12  O   UNL     1       8.146  -2.642   0.222  0.00  0.00    -0.464 OA
ATOM     13  C   UNL     1       9.526  -2.802  -0.112  0.00  0.00    +0.280 C 
ENDBRANCH  10  12
ENDBRANCH   8  10
BRANCH   1  14
ATOM     14  C   UNL     1       0.872  -2.034   1.171  0.00  0.00    +0.130 C 
BRANCH  14  15
ATOM     15  C   UNL     1       0.742  -0.511   1.242  0.00  0.00    +0.038 C 
BRANCH  15  16
ATOM     16  C   UNL     1      -0.030  -0.130   2.478  0.00  0.00    -0.043 A 
ATOM     17  C   UNL     1      -1.322  -0.588   2.656  0.00  0.00    +0.004 A 
ATOM     18  C   UNL     1      -2.030  -0.238   3.790  0.00  0.00    +0.000 A 
ATOM     19  C   UNL     1      -1.446   0.570   4.748  0.00  0.00    +0.000 A 
ATOM     20  C   UNL     1      -0.153   1.028   4.571  0.00  0.00    +0.000 A 
ATOM     21  C   UNL     1       0.556   0.674   3.438  0.00  0.00    +0.004 A 
ENDBRANCH  15  16
BRANCH  15  23
ATOM     22  C   UNL     1      -0.019   1.526   0.010  0.00  0.00    +0.004 C 
ATOM     23  C   UNL     1       0.002  -0.004   0.002  0.00  0.00    +0.006 C 
ENDBRANCH  15  23
ENDBRANCH  14  15
ENDBRANCH   1  14
BRANCH   3  24
ATOM     24  C   UNL     1       2.227  -3.419  -3.467  0.00  0.00    -0.044 C 
BRANCH  24  25
ATOM     25  N   UNL     1       2.375  -4.877  -3.574  0.00  0.00    +0.384 N 
ATOM     26  H   UNL     1       3.268  -5.153  -3.193  0.00  0.00    -0.085 HD
ATOM     27  H   UNL     1       1.635  -5.329  -3.058  0.00  0.00    -0.085 HD
BRANCH  25  28
ATOM     28  C   UNL     1       2.301  -5.274  -4.986  0.00  0.00    -0.046 C 
BRANCH  28  29
ATOM     29  C   UNL     1       2.454  -6.770  -5.095  0.00  0.00    -0.064 A 
ATOM     30  C   UNL     1       3.711  -7.328  -5.238  0.00  0.00    +0.002 A 
ATOM     31  C   UNL     1       3.850  -8.699  -5.338  0.00  0.00    +0.000 A 
ATOM     32  C   UNL     1       2.734  -9.513  -5.296  0.00  0.00    +0.000 A 
ATOM     33  C   UNL     1       1.477  -8.955  -5.152  0.00  0.00    +0.000 A 
ATOM     34  C   UNL     1       1.338  -7.584  -5.047  0.00  0.00    +0.002 A 
ENDBRANCH  28  29
ENDBRANCH  25  28
ENDBRANCH  24  25
ENDBRANCH   3  24
TORSDOF 10
