REMARK  Name = ZINC44983170
REMARK  5 active torsions:
REMARK  status: ('A' for Active; 'I' for Inactive)
REMARK    1  A    between atoms: C_1  and  C_2
REMARK    2  A    between atoms: C_7  and  C_9
REMARK    3  A    between atoms: C_7  and  N_21
REMARK    4  A    between atoms: C_11  and  C_14
REMARK    5  A    between atoms: C_17  and  C_20
REMARK                            x       y       z     vdW  Elec       q    Type
REMARK                         _______ _______ _______ _____ _____    ______ ____
ROOT
ATOM      1  C   UNL     1       1.939   1.523   1.233  0.00  0.00    +0.216 A 
ATOM      2  N   UNL     1       2.967   2.302   1.038  0.00  0.00    -0.197 NA
ATOM      3  C   UNL     1       2.591   3.584   1.114  0.00  0.00    +0.175 A 
ATOM      4  N   UNL     1       1.314   3.635   1.358  0.00  0.00    -0.061 NA
ATOM      5  O   UNL     1       0.862   2.292   1.435  0.00  0.00    -0.340 OA
ENDROOT
BRANCH   1  11
ATOM      6  C   UNL     1       2.581   1.541   3.647  0.00  0.00    +0.007 C 
ATOM      7  C   UNL     1       2.602   0.011   3.639  0.00  0.00    -0.015 C 
ATOM      8  C   UNL     1       1.215  -0.520   4.007  0.00  0.00    +0.003 C 
ATOM      9  C   UNL     1       0.190  -0.018   2.988  0.00  0.00    -0.001 C 
ATOM     10  C   UNL     1       0.573  -0.515   1.592  0.00  0.00    -0.004 C 
ATOM     11  C   UNL     1       1.960   0.016   1.224  0.00  0.00    +0.010 C 
ATOM     12  C   UNL     1       2.985  -0.486   2.243  0.00  0.00    -0.001 C 
BRANCH  11  13
ATOM     13  N   UNL     1       2.327  -0.462  -0.116  0.00  0.00    +0.388 N 
ATOM     14  H   UNL     1       1.651  -0.131  -0.788  0.00  0.00    -0.089 HD
ATOM     15  H   UNL     1       3.242  -0.112  -0.358  0.00  0.00    -0.089 HD
ATOM     16  H   UNL     1       2.341  -1.470  -0.121  0.00  0.00    -0.089 HD
ENDBRANCH  11  13
ENDBRANCH   1  11
BRANCH   3  17
ATOM     17  C   UNL     1       3.500   4.774   0.944  0.00  0.00    +0.060 C 
ATOM     18  C   UNL     1       3.482   5.615   2.222  0.00  0.00    +0.011 C 
ATOM     19  C   UNL     1       4.405   6.824   2.049  0.00  0.00    +0.004 C 
ATOM     20  C   UNL     1       3.919   7.673   0.873  0.00  0.00    -0.014 C 
ATOM     21  C   UNL     1       3.936   6.831  -0.405  0.00  0.00    +0.004 C 
ATOM     22  C   UNL     1       3.014   5.623  -0.233  0.00  0.00    +0.011 C 
ATOM     23  C   UNL     1       4.841   8.881   0.700  0.00  0.00    +0.007 C 
ENDBRANCH   3  17
TORSDOF 3
