REMARK  Name = ZINC06925480
REMARK  6 active torsions:
REMARK  status: ('A' for Active; 'I' for Inactive)
REMARK    1  A    between atoms: C_1  and  N_2
REMARK    2  A    between atoms: C_5  and  C_14
REMARK    3  A    between atoms: N_9  and  C_12
REMARK    4  A    between atoms: N_15  and  N_16
REMARK    5  A    between atoms: N_16  and  C_17
REMARK    6  A    between atoms: C_20  and  N_23
REMARK                            x       y       z     vdW  Elec       q    Type
REMARK                         _______ _______ _______ _____ _____    ______ ____
ROOT
ATOM      1  C   UNL     1       4.148  10.797   0.019  0.00  0.00    +0.154 C 
ATOM      2  N   UNL     1       5.115   9.697   0.004  0.00  0.00    -0.295 N 
ATOM      3  C   UNL     1       4.804   8.338  -0.000  0.00  0.00    +0.070 A 
ATOM      4  C   UNL     1       3.610   7.639   0.002  0.00  0.00    +0.038 A 
ATOM      5  C   UNL     1       3.624   6.244   0.000  0.00  0.00    +0.011 A 
ATOM      6  C   UNL     1       4.844   5.558  -0.015  0.00  0.00    +0.029 A 
ATOM      7  C   UNL     1       6.031   6.258  -0.023  0.00  0.00    +0.044 A 
ATOM      8  C   UNL     1       6.019   7.646  -0.016  0.00  0.00    +0.071 A 
ATOM      9  N   UNL     1       7.028   8.607  -0.020  0.00  0.00    -0.295 N 
ATOM     10  C   UNL     1       6.455   9.825  -0.008  0.00  0.00    +0.330 A 
ATOM     11  O   UNL     1       7.058  10.882  -0.007  0.00  0.00    -0.246 OA
ATOM     12  C   UNL     1       8.468   8.337  -0.035  0.00  0.00    +0.154 C 
ATOM     13 BR   UNL     1       4.864   3.667  -0.025  0.00  0.00    -0.050 Br
ENDROOT
BRANCH   5  14
ATOM     14  C   UNL     1       2.356   5.493   0.008  0.00  0.00    +0.139 C 
ATOM     15  N   UNL     1       2.369   4.195   0.002  0.00  0.00    -0.190 NA
BRANCH  15  16
ATOM     16  N   UNL     1       1.164   3.481   0.009  0.00  0.00    -0.238 N 
ATOM     17  H   UNL     1       0.319   3.957   0.019  0.00  0.00    +0.174 HD
BRANCH  16  18
ATOM     18  C   UNL     1       1.179   2.086   0.002  0.00  0.00    +0.048 A 
ATOM     19  C   UNL     1      -0.017   1.377   0.010  0.00  0.00    +0.027 A 
ATOM     20  C   UNL     1       0.002  -0.004   0.002  0.00  0.00    +0.034 A 
ATOM     21  C   UNL     1       1.208  -0.681  -0.013  0.00  0.00    +0.126 A 
ATOM     22  C   UNL     1       2.399   0.022  -0.021  0.00  0.00    +0.034 A 
ATOM     23  C   UNL     1       2.389   1.402  -0.013  0.00  0.00    +0.027 A 
BRANCH  21  24
ATOM     24  N   UNL     1       1.224  -2.163  -0.021  0.00  0.00    +0.056 N 
ATOM     25  O   UNL     1       0.176  -2.783  -0.014  0.00  0.00    -0.126 OA
ATOM     26  O   UNL     1       2.285  -2.760  -0.034  0.00  0.00    -0.126 OA
ENDBRANCH  21  24
ENDBRANCH  16  18
ENDBRANCH  15  16
ENDBRANCH   5  14
TORSDOF 4
