REMARK  Name = ZINC13559583
REMARK  14 active torsions:
REMARK  status: ('A' for Active; 'I' for Inactive)
REMARK    1  A    between atoms: C_1  and  C_2
REMARK    2  A    between atoms: C_3  and  C_30
REMARK    3  A    between atoms: N_6  and  C_19
REMARK    4  A    between atoms: N_9  and  C_10
REMARK    5  A    between atoms: C_10  and  C_11
REMARK    6  A    between atoms: C_19  and  C_20
REMARK    7  A    between atoms: C_20  and  N_73
REMARK    8  A    between atoms: C_21  and  N_73
REMARK    9  A    between atoms: C_22  and  C_23
REMARK   10  A    between atoms: C_22  and  N_73
REMARK   11  A    between atoms: C_23  and  C_24
REMARK   12  A    between atoms: C_33  and  C_36
REMARK   13  A    between atoms: C_36  and  C_37
REMARK   14  A    between atoms: C_36  and  C_38
REMARK                            x       y       z     vdW  Elec       q    Type
REMARK                         _______ _______ _______ _____ _____    ______ ____
ROOT
ATOM      1  C   UNL     1       0.151   3.801   6.196  0.00  0.00    +0.064 C 
ATOM      2  C   UNL     1      -1.279   3.380   5.973  0.00  0.00    +0.034 A 
ATOM      3  C   UNL     1      -1.589   2.497   4.982  0.00  0.00    +0.066 A 
ATOM      4  C   UNL     1      -2.996   2.112   4.807  0.00  0.00    +0.264 A 
ATOM      5  O   UNL     1      -3.320   1.322   3.939  0.00  0.00    -0.267 OA
ATOM      6  N   UNL     1      -3.922   2.651   5.627  0.00  0.00    -0.262 N 
ATOM      7  C   UNL     1      -3.556   3.522   6.584  0.00  0.00    +0.332 A 
ATOM      8  O   UNL     1      -4.409   3.994   7.311  0.00  0.00    -0.246 OA
ATOM      9  N   UNL     1      -2.275   3.885   6.760  0.00  0.00    -0.293 N 
ENDROOT
BRANCH   3  10
ATOM     10  C   UNL     1      -0.532   1.934   4.108  0.00  0.00    -0.011 A 
ATOM     11  C   UNL     1      -0.246   0.570   4.146  0.00  0.00    +0.009 A 
ATOM     12  C   UNL     1       0.739   0.051   3.329  0.00  0.00    +0.004 A 
ATOM     13  C   UNL     1       1.441   0.882   2.475  0.00  0.00    -0.045 A 
ATOM     14  C   UNL     1       1.165   2.237   2.437  0.00  0.00    +0.004 A 
ATOM     15  C   UNL     1       0.179   2.766   3.245  0.00  0.00    +0.009 A 
BRANCH  13  16
ATOM     16  C   UNL     1       2.515   0.310   1.587  0.00  0.00    +0.013 C 
ATOM     17  C   UNL     1       3.854   0.976   1.911  0.00  0.00    +0.012 C 
ATOM     18  C   UNL     1       2.158   0.570   0.122  0.00  0.00    +0.012 C 
ENDBRANCH  13  16
ENDBRANCH   3  10
BRANCH   9  19
ATOM     19  C   UNL     1      -1.938   4.838   7.821  0.00  0.00    +0.167 C 
BRANCH  19  20
ATOM     20  C   UNL     1      -2.096   4.171   9.163  0.00  0.00    +0.043 A 
ATOM     21  C   UNL     1      -3.194   4.459   9.955  0.00  0.00    +0.131 A 
ATOM     22  C   UNL     1      -3.341   3.841  11.185  0.00  0.00    +0.039 A 
ATOM     23  C   UNL     1      -2.385   2.947  11.628  0.00  0.00    +0.006 A 
ATOM     24  C   UNL     1      -1.285   2.663  10.841  0.00  0.00    +0.039 A 
ATOM     25  C   UNL     1      -1.139   3.275   9.608  0.00  0.00    +0.131 A 
ATOM     26  F   UNL     1      -0.064   2.997   8.838  0.00  0.00    -0.205 F 
ATOM     27  F   UNL     1      -4.125   5.338   9.524  0.00  0.00    -0.205 F 
ENDBRANCH  19  20
ENDBRANCH   9  19
BRANCH   6  28
ATOM     28  C   UNL     1      -5.332   2.285   5.475  0.00  0.00    +0.111 C 
BRANCH  28  29
ATOM     29  C   UNL     1      -5.640   1.066   6.345  0.00  0.00    -0.057 C 
BRANCH  29  31
ATOM     30  C   UNL     1      -7.931   1.746   6.734  0.00  0.00    -0.096 C 
ATOM     31  N   UNL     1      -7.060   0.697   6.164  0.00  0.00    +0.379 N 
ATOM     32  H   UNL     1      -7.256   0.610   5.160  0.00  0.00    -0.082 HD
BRANCH  31  33
ATOM     33  C   UNL     1      -7.333  -0.599   6.821  0.00  0.00    -0.073 C 
BRANCH  33  34
ATOM     34  C   UNL     1      -8.738  -1.063   6.432  0.00  0.00    +0.037 C 
BRANCH  34  35
ATOM     35  C   UNL     1      -9.024  -2.394   7.077  0.00  0.00    +0.040 A 
ATOM     36  C   UNL     1     -10.149  -2.543   7.866  0.00  0.00    +0.023 A 
ATOM     37  C   UNL     1     -10.403  -3.772   8.455  0.00  0.00    +0.003 A 
ATOM     38  C   UNL     1      -9.512  -4.810   8.227  0.00  0.00    +0.020 A 
ATOM     39  C   UNL     1      -8.409  -4.587   7.426  0.00  0.00    +0.111 A 
ATOM     40  N   UNL     1      -8.201  -3.405   6.878  0.00  0.00    -0.260 NA
ENDBRANCH  34  35
ENDBRANCH  33  34
ENDBRANCH  31  33
ENDBRANCH  29  31
ENDBRANCH  28  29
ENDBRANCH   6  28
TORSDOF 10
