REMARK  Name = ZINC36788429
REMARK  5 active torsions:
REMARK  status: ('A' for Active; 'I' for Inactive)
REMARK    1  A    between atoms: C_1  and  N_2
REMARK    2  A    between atoms: C_11  and  S_12
REMARK    3  A    between atoms: S_12  and  C_13
REMARK    4  A    between atoms: C_13  and  C_14
REMARK    5  A    between atoms: N_19  and  C_20
REMARK                            x       y       z     vdW  Elec       q    Type
REMARK                         _______ _______ _______ _____ _____    ______ ____
ROOT
ATOM      1  C   UNL     1       0.059  -0.423   5.341  0.00  0.00    +0.231 C 
ATOM      2  O   UNL     1       0.044   0.785   5.441  0.00  0.00    -0.274 OA
ATOM      3  N   UNL     1       0.080  -1.191   6.449  0.00  0.00    -0.239 N 
ATOM      4  C   UNL     1       0.084  -0.615   7.668  0.00  0.00    +0.306 C 
ATOM      5  O   UNL     1       0.069   0.596   7.768  0.00  0.00    -0.252 OA
ATOM      6  N   UNL     1       0.105  -1.382   8.776  0.00  0.00    -0.294 N 
ATOM      7  H   UNL     1       0.092  -2.157   6.369  0.00  0.00    +0.159 HD
ATOM      8  H   UNL     1       0.117  -2.349   8.696  0.00  0.00    +0.151 HD
ENDROOT
BRANCH   6   9
ATOM      9  C   UNL     1       0.110  -0.757  10.100  0.00  0.00    +0.037 C 
ATOM     10  C   UNL     1       1.349   0.130  10.241  0.00  0.00    +0.029 C 
ATOM     11  C   UNL     1       1.353   0.783  11.625  0.00  0.00    -0.008 C 
ATOM     12  C   UNL     1       1.378  -0.303  12.702  0.00  0.00    +0.007 C 
ATOM     13  C   UNL     1       0.139  -1.190  12.561  0.00  0.00    -0.008 C 
ATOM     14  C   UNL     1       0.135  -1.843  11.177  0.00  0.00    +0.029 C 
ATOM     15  C   UNL     1      -1.120  -0.336  12.726  0.00  0.00    +0.007 C 
ATOM     16  C   UNL     1      -1.145   0.750  11.649  0.00  0.00    -0.008 C 
ATOM     17  C   UNL     1       0.094   1.637  11.790  0.00  0.00    +0.007 C 
ATOM     18  C   UNL     1      -1.149   0.097  10.265  0.00  0.00    +0.029 C 
ENDBRANCH   6   9
BRANCH   1  19
ATOM     19  C   UNL     1       0.055  -1.067   3.979  0.00  0.00    +0.173 C 
BRANCH  19  20
ATOM     20  S   UNL     1       0.025   0.221   2.702  0.00  0.00    -0.078 S 
BRANCH  20  31
ATOM     21  C   UNL     1      -0.018   1.461   0.010  0.00  0.00    +0.154 C 
ATOM     22  N   UNL     1       0.002  -0.004   0.002  0.00  0.00    -0.290 N 
ATOM     23  C   UNL     1       0.005  -0.658  -1.174  0.00  0.00    +0.263 A 
ATOM     24  O   UNL     1      -0.008  -0.039  -2.224  0.00  0.00    -0.267 OA
ATOM     25  C   UNL     1       0.025  -2.088  -1.176  0.00  0.00    +0.072 A 
ATOM     26  C   UNL     1       0.032  -3.006  -2.302  0.00  0.00    +0.023 A 
ATOM     27  C   UNL     1       0.052  -4.327  -2.071  0.00  0.00    +0.048 A 
ATOM     28  S   UNL     1       0.061  -4.435  -0.291  0.00  0.00    -0.077 S 
ATOM     29  C   UNL     1       0.039  -2.702   0.090  0.00  0.00    +0.116 A 
ATOM     30  N   UNL     1       0.035  -1.997   1.215  0.00  0.00    -0.216 NA
ATOM     31  C   UNL     1       0.022  -0.680   1.188  0.00  0.00    +0.173 A 
ENDBRANCH  20  31
ENDBRANCH  19  20
ENDBRANCH   1  19
TORSDOF 4
