REMARK  Name = ZINC38546296
REMARK  12 active torsions:
REMARK  status: ('A' for Active; 'I' for Inactive)
REMARK    1  A    between atoms: C_1  and  C_2
REMARK    2  A    between atoms: C_2  and  C_3
REMARK    3  A    between atoms: C_5  and  C_16
REMARK    4  A    between atoms: C_6  and  N_8
REMARK    5  A    between atoms: C_9  and  C_11
REMARK    6  A    between atoms: C_16  and  C_18
REMARK    7  A    between atoms: C_16  and  N_28
REMARK    8  A    between atoms: C_21  and  O_26
REMARK    9  A    between atoms: C_22  and  O_24
REMARK   10  A    between atoms: O_24  and  C_25
REMARK   11  A    between atoms: O_26  and  C_27
REMARK   12  A    between atoms: C_31  and  C_34
REMARK                            x       y       z     vdW  Elec       q    Type
REMARK                         _______ _______ _______ _____ _____    ______ ____
ROOT
ATOM      1  C   UNL     1       3.909  -1.511  -2.897  0.00  0.00    -0.004 C 
ENDROOT
BRANCH   1   2
ATOM      2  N   UNL     1       4.727  -0.841  -1.877  0.00  0.00    +0.387 N 
ATOM      3  C   UNL     1       6.143  -1.151  -2.107  0.00  0.00    -0.077 C 
ATOM      4  C   UNL     1       6.993  -0.523  -1.000  0.00  0.00    -0.015 C 
ATOM      5  C   UNL     1       6.793   0.996  -1.011  0.00  0.00    -0.018 C 
ATOM      6  C   UNL     1       5.302   1.306  -0.846  0.00  0.00    -0.015 C 
ATOM      7  C   UNL     1       4.515   0.609  -1.958  0.00  0.00    -0.077 C 
ATOM      8  C   UNL     1       7.577   1.623   0.142  0.00  0.00    +0.007 C 
ATOM      9  H   UNL     1       4.457  -1.169  -0.962  0.00  0.00    -0.080 HD
ENDBRANCH   1   2
BRANCH   1  10
ATOM     10  C   UNL     1       4.125  -3.000  -2.816  0.00  0.00    -0.053 A 
ATOM     11  C   UNL     1       4.226  -3.616  -1.582  0.00  0.00    +0.006 A 
ATOM     12  C   UNL     1       4.424  -4.982  -1.502  0.00  0.00    +0.049 A 
ATOM     13  C   UNL     1       4.521  -5.737  -2.659  0.00  0.00    +0.161 A 
ATOM     14  C   UNL     1       4.419  -5.117  -3.901  0.00  0.00    +0.162 A 
ATOM     15  C   UNL     1       4.215  -3.748  -3.974  0.00  0.00    +0.051 A 
BRANCH  14  16
ATOM     16  O   UNL     1       4.513  -5.854  -5.040  0.00  0.00    -0.491 OA
ATOM     17  C   UNL     1       4.399  -5.151  -6.279  0.00  0.00    +0.277 C 
ENDBRANCH  14  16
BRANCH  13  18
ATOM     18  O   UNL     1       4.717  -7.080  -2.583  0.00  0.00    -0.491 OA
ATOM     19  C   UNL     1       4.813  -7.648  -1.275  0.00  0.00    +0.277 C 
ENDBRANCH  13  18
ENDBRANCH   1  10
BRANCH   1  22
ATOM     20  C   UNL     1       0.707  -0.490  -1.238  0.00  0.00    -0.008 A 
ATOM     21  C   UNL     1       2.022  -0.760  -1.419  0.00  0.00    +0.015 A 
ATOM     22  C   UNL     1       2.454  -1.201  -2.657  0.00  0.00    -0.028 A 
ATOM     23  C   UNL     1       1.539  -1.349  -3.656  0.00  0.00    +0.074 A 
ATOM     24  S   UNL     1       0.024  -0.865  -2.844  0.00  0.00    -0.078 S 
BRANCH  23  25
ATOM     25  N   UNL     1       1.734  -1.773  -4.972  0.00  0.00    -0.273 N 
ATOM     26  C   UNL     1       0.688  -1.853  -5.817  0.00  0.00    +0.284 C 
ATOM     27  O   UNL     1      -0.429  -1.555  -5.433  0.00  0.00    -0.266 OA
ATOM     28  H   UNL     1       2.624  -2.011  -5.278  0.00  0.00    +0.156 HD
BRANCH  26  29
ATOM     29  C   UNL     1       0.893  -2.299  -7.199  0.00  0.00    +0.189 A 
ATOM     30  C   UNL     1      -0.074  -2.420  -8.155  0.00  0.00    +0.054 A 
ATOM     31  C   UNL     1       0.564  -2.874  -9.320  0.00  0.00    +0.042 A 
ATOM     32  C   UNL     1       1.876  -3.009  -9.027  0.00  0.00    +0.196 A 
ATOM     33  O   UNL     1       2.071  -2.657  -7.749  0.00  0.00    -0.458 OA
ENDBRANCH  26  29
ENDBRANCH  23  25
BRANCH  20  35
ATOM     34  C   UNL     1      -0.019   1.526   0.010  0.00  0.00    +0.009 C 
ATOM     35  C   UNL     1       0.002  -0.004   0.002  0.00  0.00    +0.039 C 
ENDBRANCH  20  35
ENDBRANCH   1  22
TORSDOF 8
