REMARK  Name = ZINC13689575
REMARK  10 active torsions:
REMARK  status: ('A' for Active; 'I' for Inactive)
REMARK    1  A    between atoms: C_1  and  C_2
REMARK    2  A    between atoms: C_5  and  C_8
REMARK    3  A    between atoms: C_11  and  S_19
REMARK    4  A    between atoms: N_12  and  C_13
REMARK    5  A    between atoms: S_19  and  C_20
REMARK    6  A    between atoms: C_20  and  C_21
REMARK    7  A    between atoms: N_23  and  N_24
REMARK    8  A    between atoms: C_25  and  C_26
REMARK    9  A    between atoms: C_35  and  O_36
REMARK   10  A    between atoms: O_36  and  C_37
REMARK                            x       y       z     vdW  Elec       q    Type
REMARK                         _______ _______ _______ _____ _____    ______ ____
ROOT
ATOM      1  S   UNL     1      -3.617  11.867  -0.469  0.00  0.00    -0.077 S 
ENDROOT
BRANCH   1   5
ATOM      2  C   UNL     1      -6.899  13.900   0.132  0.00  0.00    +0.165 A 
ATOM      3  N   UNL     1      -7.238  12.688   0.506  0.00  0.00    -0.128 NA
ATOM      4  N   UNL     1      -6.243  11.889   0.358  0.00  0.00    -0.122 NA
ATOM      5  C   UNL     1      -5.204  12.543  -0.111  0.00  0.00    +0.193 A 
ATOM      6  N   UNL     1      -5.586  13.844  -0.274  0.00  0.00    -0.299 N 
BRANCH   2  11
ATOM      7  C   UNL     1     -10.270  18.564   0.182  0.00  0.00    +0.044 C 
ATOM      8  C   UNL     1      -9.387  17.342   0.169  0.00  0.00    -0.050 A 
ATOM      9  C   UNL     1      -9.941  16.094  -0.054  0.00  0.00    +0.004 A 
ATOM     10  C   UNL     1      -9.139  14.972  -0.068  0.00  0.00    +0.012 A 
ATOM     11  C   UNL     1      -7.765  15.098   0.145  0.00  0.00    +0.019 A 
ATOM     12  C   UNL     1      -7.213  16.359   0.376  0.00  0.00    +0.012 A 
ATOM     13  C   UNL     1      -8.026  17.474   0.381  0.00  0.00    +0.004 A 
ENDBRANCH   2  11
BRANCH   6  14
ATOM     14  C   UNL     1      -4.768  14.950  -0.777  0.00  0.00    +0.091 C 
ATOM     15  C   UNL     1      -4.186  14.575  -2.142  0.00  0.00    +0.025 C 
ATOM     16  C   UNL     1      -3.331  15.730  -2.667  0.00  0.00    +0.002 C 
ATOM     17  C   UNL     1      -2.191  16.008  -1.686  0.00  0.00    +0.000 C 
ATOM     18  C   UNL     1      -2.773  16.384  -0.321  0.00  0.00    +0.002 C 
ATOM     19  C   UNL     1      -3.627  15.229   0.204  0.00  0.00    +0.025 C 
ENDBRANCH   6  14
ENDBRANCH   1   5
BRANCH   1  20
ATOM     20  C   UNL     1      -3.898  10.141  -0.001  0.00  0.00    +0.174 C 
BRANCH  20  21
ATOM     21  C   UNL     1      -2.638   9.347  -0.229  0.00  0.00    +0.242 C 
ATOM     22  O   UNL     1      -1.646   9.895  -0.665  0.00  0.00    -0.273 OA
ATOM     23  N   UNL     1      -2.611   8.029   0.052  0.00  0.00    -0.206 N 
ATOM     24  H   UNL     1      -3.404   7.592   0.401  0.00  0.00    +0.177 HD
BRANCH  23  25
ATOM     25  N   UNL     1      -1.439   7.291  -0.160  0.00  0.00    -0.188 NA
ATOM     26  C   UNL     1      -1.414   6.020   0.111  0.00  0.00    +0.142 C 
BRANCH  26  27
ATOM     27  C   UNL     1      -0.185   5.246  -0.112  0.00  0.00    +0.044 A 
ATOM     28  C   UNL     1      -0.139   3.816   0.187  0.00  0.00    -0.006 A 
ATOM     29  C   UNL     1      -1.256   3.138   0.691  0.00  0.00    +0.009 A 
ATOM     30  C   UNL     1      -1.173   1.803   0.950  0.00  0.00    +0.001 A 
ATOM     31  C   UNL     1       0.011   1.103   0.731  0.00  0.00    +0.001 A 
ATOM     32  C   UNL     1       1.116   1.731   0.241  0.00  0.00    +0.008 A 
ATOM     33  C   UNL     1       1.065   3.107  -0.043  0.00  0.00    -0.017 A 
ATOM     34  C   UNL     1       2.186   3.789  -0.550  0.00  0.00    +0.012 A 
ATOM     35  C   UNL     1       2.126   5.119  -0.822  0.00  0.00    +0.047 A 
ATOM     36  C   UNL     1       0.963   5.860  -0.613  0.00  0.00    +0.129 A 
BRANCH  36  37
ATOM     37  O   UNL     1       0.948   7.187  -0.899  0.00  0.00    -0.494 OA
ATOM     38  C   UNL     1       2.156   7.754  -1.409  0.00  0.00    +0.277 C 
ENDBRANCH  36  37
ENDBRANCH  26  27
ENDBRANCH  23  25
ENDBRANCH  20  21
ENDBRANCH   1  20
TORSDOF 8
