REMARK  Name = ZINC16294158
REMARK  7 active torsions:
REMARK  status: ('A' for Active; 'I' for Inactive)
REMARK    1  A    between atoms: C_1  and  C_2
REMARK    2  A    between atoms: C_10  and  C_13
REMARK    3  A    between atoms: C_18  and  C_23
REMARK    4  A    between atoms: C_29  and  C_39
REMARK    5  A    between atoms: C_30  and  C_31
REMARK    6  A    between atoms: C_31  and  O_33
REMARK    7  A    between atoms: O_33  and  C_34
REMARK                            x       y       z     vdW  Elec       q    Type
REMARK                         _______ _______ _______ _____ _____    ______ ____
ROOT
ATOM      1  C   UNL     1      -4.246   5.073   0.033  0.00  0.00    +0.099 C 
ATOM      2  C   UNL     1      -2.917   4.369   0.147  0.00  0.00    +0.024 C 
ATOM      3  C   UNL     1      -2.330   4.194   1.350  0.00  0.00    +0.016 C 
ATOM      4  C   UNL     1      -0.992   3.508   1.471  0.00  0.00    +0.062 C 
ATOM      5  C   UNL     1      -0.840   2.476   0.352  0.00  0.00    +0.068 C 
ATOM      6  C   UNL     1      -0.985   3.189  -0.996  0.00  0.00    +0.091 C 
ATOM      7  C   UNL     1      -2.307   3.906  -1.032  0.00  0.00    +0.162 C 
ATOM      8  O   UNL     1      -2.857   4.090  -2.100  0.00  0.00    -0.292 OA
ATOM      9  N   UNL     1      -2.942   4.636   2.492  0.00  0.00    -0.321 N 
ATOM     10  C   UNL     1      -4.283   4.901   2.507  0.00  0.00    +0.016 C 
ATOM     11  C   UNL     1      -4.948   5.113   1.359  0.00  0.00    +0.065 C 
ATOM     12  C   UNL     1      -5.020   4.954   3.820  0.00  0.00    +0.061 C 
ATOM     13  H   UNL     1      -2.353   4.781   3.410  0.00  0.00    +0.152 HD
ENDROOT
BRANCH   1  23
ATOM     14  C   UNL     1      -5.160  10.730  -4.862  0.00  0.00    +0.044 C 
ATOM     15  C   UNL     1      -4.593  10.152  -3.591  0.00  0.00    -0.050 A 
ATOM     16  C   UNL     1      -3.795  10.938  -2.771  0.00  0.00    +0.007 A 
ATOM     17  C   UNL     1      -3.267  10.428  -1.605  0.00  0.00    +0.047 A 
ATOM     18  C   UNL     1      -3.531   9.113  -1.241  0.00  0.00    +0.138 A 
ATOM     19  C   UNL     1      -4.338   8.319  -2.072  0.00  0.00    +0.064 A 
ATOM     20  C   UNL     1      -4.867   8.847  -3.249  0.00  0.00    +0.018 A 
ATOM     21  C   UNL     1      -4.600   6.925  -1.666  0.00  0.00    +0.197 A 
ATOM     22  O   UNL     1      -5.289   6.184  -2.347  0.00  0.00    -0.287 OA
ATOM     23  C   UNL     1      -4.019   6.483  -0.448  0.00  0.00    +0.047 A 
ATOM     24  C   UNL     1      -3.261   7.330   0.272  0.00  0.00    +0.204 A 
ATOM     25  O   UNL     1      -3.025   8.591  -0.105  0.00  0.00    -0.462 OA
ENDBRANCH   1  23
BRANCH   5  26
ATOM     26  C   UNL     1       0.518   1.829   0.439  0.00  0.00    +0.109 A 
ATOM     27  C   UNL     1       0.755   0.516   0.610  0.00  0.00    +0.045 A 
ATOM     28  C   UNL     1       2.159   0.352   0.629  0.00  0.00    +0.041 A 
ATOM     29  C   UNL     1       2.696   1.575   0.469  0.00  0.00    +0.195 A 
ATOM     30  O   UNL     1       1.698   2.466   0.354  0.00  0.00    -0.468 OA
ENDBRANCH   5  26
BRANCH  11  31
ATOM     31  C   UNL     1      -6.337   5.378   1.400  0.00  0.00    +0.338 C 
ATOM     32  O   UNL     1      -6.941   5.293   2.453  0.00  0.00    -0.245 OA
BRANCH  31  33
ATOM     33  O   UNL     1      -6.991   5.727   0.273  0.00  0.00    -0.458 OA
BRANCH  33  34
ATOM     34  C   UNL     1      -8.393   5.980   0.388  0.00  0.00    +0.177 C 
ATOM     35  C   UNL     1      -9.189   4.693   0.089  0.00  0.00    +0.044 C 
ATOM     36  C   UNL     1     -10.442   5.191  -0.674  0.00  0.00    +0.004 C 
ATOM     37  C   UNL     1      -9.874   6.329  -1.558  0.00  0.00    +0.004 C 
ATOM     38  C   UNL     1      -8.828   7.020  -0.659  0.00  0.00    +0.044 C 
ENDBRANCH  33  34
ENDBRANCH  31  33
ENDBRANCH  11  31
TORSDOF 5
