REMARK  Name = ZINC36064739
REMARK  12 active torsions:
REMARK  status: ('A' for Active; 'I' for Inactive)
REMARK    1  A    between atoms: C_1  and  C_2
REMARK    2  A    between atoms: C_2  and  C_3
REMARK    3  A    between atoms: C_4  and  C_33
REMARK    4  A    between atoms: C_5  and  C_25
REMARK    5  A    between atoms: C_8  and  C_13
REMARK    6  A    between atoms: C_14  and  N_16
REMARK    7  A    between atoms: N_16  and  C_17
REMARK    8  A    between atoms: C_17  and  C_18
REMARK    9  A    between atoms: C_28  and  C_32
REMARK   10  A    between atoms: C_30  and  C_31
REMARK   11  A    between atoms: C_33  and  O_35
REMARK   12  A    between atoms: O_35  and  C_36
REMARK                            x       y       z     vdW  Elec       q    Type
REMARK                         _______ _______ _______ _____ _____    ______ ____
ROOT
ATOM      1  C   UNL     1       1.129  -0.726  -1.399  0.00  0.00    +0.056 C 
ATOM      2  C   UNL     1       2.482  -0.963  -1.549  0.00  0.00    +0.083 C 
ATOM      3  C   UNL     1       2.972  -1.411  -2.907  0.00  0.00    +0.150 C 
ATOM      4  N   UNL     1       1.953  -1.562  -3.979  0.00  0.00    -0.267 N 
ATOM      5  C   UNL     1       2.171  -1.957  -5.284  0.00  0.00    +0.048 C 
ATOM      6  C   UNL     1       1.100  -2.030  -6.105  0.00  0.00    +0.072 C 
ATOM      7  S   UNL     1      -0.227  -1.537  -5.023  0.00  0.00    -0.060 S 
ATOM      8  C   UNL     1       0.664  -1.277  -3.625  0.00  0.00    +0.166 C 
ATOM      9  N   UNL     1       0.301  -0.894  -2.417  0.00  0.00    -0.229 NA
ENDROOT
BRANCH   3  10
ATOM     10  C   UNL     1       4.000  -0.416  -3.381  0.00  0.00    -0.019 A 
ATOM     11  C   UNL     1       3.610   0.670  -4.144  0.00  0.00    +0.006 A 
ATOM     12  C   UNL     1       4.552   1.583  -4.578  0.00  0.00    +0.004 A 
ATOM     13  C   UNL     1       5.884   1.411  -4.250  0.00  0.00    -0.050 A 
ATOM     14  C   UNL     1       6.274   0.326  -3.488  0.00  0.00    +0.007 A 
ATOM     15  C   UNL     1       5.330  -0.585  -3.049  0.00  0.00    -0.045 A 
ATOM     16  C   UNL     1       5.754  -1.765  -2.213  0.00  0.00    +0.044 C 
ATOM     17  C   UNL     1       6.912   2.405  -4.725  0.00  0.00    +0.044 C 
ENDBRANCH   3  10
BRANCH   5  18
ATOM     18  C   UNL     1       3.521  -2.285  -5.764  0.00  0.00    +0.091 C 
ATOM     19  C   UNL     1       3.691  -2.792  -7.000  0.00  0.00    +0.239 C 
ATOM     20  O   UNL     1       2.635  -2.893  -7.843  0.00  0.00    -0.271 OA
BRANCH  19  21
ATOM     21  N   UNL     1       4.946  -3.211  -7.410  0.00  0.00    -0.308 N 
ATOM     22  H   UNL     1       5.687  -3.208  -6.784  0.00  0.00    +0.149 HD
BRANCH  21  23
ATOM     23  C   UNL     1       5.154  -3.659  -8.789  0.00  0.00    +0.139 C 
BRANCH  23  24
ATOM     24  C   UNL     1       6.563  -4.173  -8.943  0.00  0.00    -0.030 A 
ATOM     25  C   UNL     1       7.577  -3.307  -9.310  0.00  0.00    +0.008 A 
ATOM     26  C   UNL     1       8.869  -3.777  -9.451  0.00  0.00    +0.038 A 
ATOM     27  C   UNL     1       9.148  -5.114  -9.224  0.00  0.00    +0.123 A 
ATOM     28  C   UNL     1       8.132  -5.979  -8.857  0.00  0.00    +0.038 A 
ATOM     29  C   UNL     1       6.841  -5.507  -8.712  0.00  0.00    +0.008 A 
ATOM     30  F   UNL     1      10.411  -5.574  -9.362  0.00  0.00    -0.205 F 
ENDBRANCH  23  24
ENDBRANCH  21  23
ENDBRANCH  19  21
ENDBRANCH   5  18
BRANCH   1  32
ATOM     31  C   UNL     1       0.583   1.252  -0.005  0.00  0.00    +0.010 C 
ATOM     32  C   UNL     1       0.591  -0.277  -0.064  0.00  0.00    +0.053 C 
ENDBRANCH   1  32
BRANCH   2  33
ATOM     33  C   UNL     1       3.369  -0.794  -0.479  0.00  0.00    +0.339 C 
ATOM     34  O   UNL     1       4.002   0.242  -0.370  0.00  0.00    -0.245 OA
BRANCH  33  35
ATOM     35  O   UNL     1       3.523  -1.779   0.433  0.00  0.00    -0.465 OA
ATOM     36  C   UNL     1       4.445  -1.538   1.498  0.00  0.00    +0.280 C 
ENDBRANCH  33  35
ENDBRANCH   2  33
TORSDOF 8
