REMARK  Name = ZINC22972304
REMARK  11 active torsions:
REMARK  status: ('A' for Active; 'I' for Inactive)
REMARK    1  A    between atoms: C_1  and  C_2
REMARK    2  A    between atoms: C_2  and  N_3
REMARK    3  A    between atoms: N_3  and  C_4
REMARK    4  A    between atoms: N_3  and  C_15
REMARK    5  A    between atoms: C_4  and  C_5
REMARK    6  A    between atoms: C_8  and  O_13
REMARK    7  A    between atoms: C_9  and  O_11
REMARK    8  A    between atoms: O_11  and  C_12
REMARK    9  A    between atoms: O_13  and  C_14
REMARK   10  A    between atoms: C_15  and  C_16
REMARK   11  A    between atoms: C_29  and  C_31
REMARK                            x       y       z     vdW  Elec       q    Type
REMARK                         _______ _______ _______ _____ _____    ______ ____
ROOT
ATOM      1  C   UNL     1      -2.941   3.537   3.091  0.00  0.00    +0.204 C 
ATOM      2  O   UNL     1      -2.128   3.125   3.891  0.00  0.00    -0.277 OA
ATOM      3  N   UNL     1      -3.953   4.326   3.503  0.00  0.00    -0.259 N 
ATOM      4  C   UNL     1      -4.897   4.814   2.590  0.00  0.00    +0.058 A 
ATOM      5  C   UNL     1      -5.854   3.964   2.048  0.00  0.00    +0.025 A 
ATOM      6  C   UNL     1      -6.803   4.466   1.175  0.00  0.00    +0.002 A 
ATOM      7  C   UNL     1      -6.803   5.808   0.842  0.00  0.00    +0.002 A 
ATOM      8  C   UNL     1      -5.846   6.657   1.368  0.00  0.00    +0.025 A 
ATOM      9  C   UNL     1      -4.886   6.159   2.232  0.00  0.00    +0.055 A 
ATOM     10  N   UNL     1      -3.886   6.989   2.754  0.00  0.00    -0.284 N 
ATOM     11  C   UNL     1      -3.618   6.993   4.079  0.00  0.00    +0.219 C 
ATOM     12  O   UNL     1      -2.699   7.660   4.505  0.00  0.00    -0.275 OA
ATOM     13  C   UNL     1      -4.452   6.176   5.029  0.00  0.00    +0.128 C 
ATOM     14  C   UNL     1      -4.085   4.695   4.913  0.00  0.00    +0.194 C 
ATOM     15  H   UNL     1      -3.312   7.646   2.084  0.00  0.00    +0.155 HD
ENDROOT
BRANCH  14  16
ATOM     16  C   UNL     1      -5.183   3.848   5.560  0.00  0.00    +0.409 C 
ATOM     17  F   UNL     1      -4.846   2.494   5.462  0.00  0.00    -0.169 F 
ATOM     18  F   UNL     1      -5.310   4.200   6.908  0.00  0.00    -0.169 F 
ATOM     19  F   UNL     1      -6.396   4.076   4.902  0.00  0.00    -0.169 F 
ENDBRANCH  14  16
BRANCH   1  20
ATOM     20  C   UNL     1      -2.820   3.166   1.635  0.00  0.00    +0.020 C 
BRANCH  20  21
ATOM     21  N   UNL     1      -1.645   2.306   1.445  0.00  0.00    +0.388 N 
ATOM     22  H   UNL     1      -0.780   2.810   1.901  0.00  0.00    -0.081 HD
BRANCH  21  24
ATOM     23  C   UNL     1      -0.457   0.359   2.338  0.00  0.00    -0.017 C 
ATOM     24  C   UNL     1      -1.823   1.014   2.121  0.00  0.00    -0.081 C 
ENDBRANCH  21  24
BRANCH  21  25
ATOM     25  C   UNL     1      -1.355   2.117   0.017  0.00  0.00    -0.042 C 
BRANCH  25  26
ATOM     26  C   UNL     1      -0.715   3.365  -0.534  0.00  0.00    -0.060 A 
ATOM     27  C   UNL     1      -1.492   4.315  -1.171  0.00  0.00    +0.005 A 
ATOM     28  C   UNL     1      -0.909   5.458  -1.684  0.00  0.00    +0.049 A 
ATOM     29  C   UNL     1       0.457   5.655  -1.561  0.00  0.00    +0.161 A 
ATOM     30  C   UNL     1       1.239   4.698  -0.920  0.00  0.00    +0.162 A 
ATOM     31  C   UNL     1       0.648   3.554  -0.408  0.00  0.00    +0.051 A 
BRANCH  30  32
ATOM     32  O   UNL     1       2.580   4.886  -0.796  0.00  0.00    -0.491 OA
ATOM     33  C   UNL     1       3.320   3.864  -0.126  0.00  0.00    +0.277 C 
ENDBRANCH  30  32
BRANCH  29  34
ATOM     34  O   UNL     1       1.033   6.779  -2.064  0.00  0.00    -0.491 OA
ATOM     35  C   UNL     1       0.168   7.717  -2.709  0.00  0.00    +0.277 C 
ENDBRANCH  29  34
ENDBRANCH  25  26
ENDBRANCH  21  25
ENDBRANCH  20  21
ENDBRANCH   1  20
TORSDOF 8
