REMARK  Name = ZINC36737954
REMARK  6 active torsions:
REMARK  status: ('A' for Active; 'I' for Inactive)
REMARK    1  A    between atoms: C_1  and  C_2
REMARK    2  A    between atoms: C_2  and  C_3
REMARK    3  A    between atoms: C_3  and  C_5
REMARK    4  A    between atoms: C_3  and  C_6
REMARK    5  A    between atoms: N_8  and  C_9
REMARK    6  A    between atoms: C_14  and  N_15
REMARK                            x       y       z     vdW  Elec       q    Type
REMARK                         _______ _______ _______ _____ _____    ______ ____
ROOT
ATOM      1  C   UNL     1       1.056  -4.075   2.368  0.00  0.00    +0.058 A 
ATOM      2  C   UNL     1       0.377  -4.728   1.349  0.00  0.00    +0.074 A 
ATOM      3  C   UNL     1       0.198  -6.099   1.410  0.00  0.00    +0.164 A 
ATOM      4  C   UNL     1       0.694  -6.821   2.487  0.00  0.00    +0.164 A 
ATOM      5  C   UNL     1       1.371  -6.174   3.507  0.00  0.00    +0.074 A 
ATOM      6  C   UNL     1       1.558  -4.800   3.447  0.00  0.00    +0.050 A 
ATOM      7  O   UNL     1       0.510  -8.173   2.534  0.00  0.00    -0.488 OA
ATOM      8  C   UNL     1      -0.836  -8.615   2.723  0.00  0.00    +0.232 C 
ATOM      9  C   UNL     1      -1.575  -8.674   1.395  0.00  0.00    +0.082 C 
ATOM     10  C   UNL     1      -1.738  -7.301   0.762  0.00  0.00    +0.232 C 
ATOM     11  O   UNL     1      -0.467  -6.751   0.411  0.00  0.00    -0.488 OA
ENDROOT
BRANCH   1  14
ATOM     12  C   UNL     1       1.235  -2.054   1.120  0.00  0.00    +0.220 C 
ATOM     13  O   UNL     1       1.170  -2.696   0.093  0.00  0.00    -0.275 OA
ATOM     14  N   UNL     1       1.241  -2.685   2.311  0.00  0.00    -0.284 N 
ATOM     15  H   UNL     1       1.373  -2.179   3.127  0.00  0.00    +0.155 HD
BRANCH  12  16
ATOM     16  C   UNL     1       1.308  -0.549   1.064  0.00  0.00    +0.072 C 
ATOM     17  C   UNL     1       2.604  -0.077   1.727  0.00  0.00    +0.017 C 
BRANCH  16  19
ATOM     18  C   UNL     1       1.234   1.437  -0.449  0.00  0.00    +0.004 C 
ATOM     19  C   UNL     1       1.285  -0.091  -0.395  0.00  0.00    +0.009 C 
ENDBRANCH  16  19
ENDBRANCH  12  16
ENDBRANCH   1  14
BRANCH   6  20
ATOM     20  N   UNL     1       2.248  -4.141   4.474  0.00  0.00    -0.356 N 
ATOM     21  H   UNL     1       2.376  -3.181   4.433  0.00  0.00    +0.142 HD
ATOM     22  H   UNL     1       2.598  -4.646   5.224  0.00  0.00    +0.142 HD
ENDBRANCH   6  20
TORSDOF 4
