REMARK  Name = ZINC02148449
REMARK  10 active torsions:
REMARK  status: ('A' for Active; 'I' for Inactive)
REMARK    1  A    between atoms: C_1  and  C_2
REMARK    2  A    between atoms: C_2  and  C_3
REMARK    3  A    between atoms: C_3  and  C_4
REMARK    4  A    between atoms: C_13  and  O_16
REMARK    5  A    between atoms: C_14  and  C_15
REMARK    6  A    between atoms: O_16  and  C_17
REMARK    7  A    between atoms: C_17  and  C_18
REMARK    8  A    between atoms: C_33  and  C_35
REMARK    9  A    between atoms: C_35  and  O_37
REMARK   10  A    between atoms: O_37  and  C_38
REMARK                            x       y       z     vdW  Elec       q    Type
REMARK                         _______ _______ _______ _____ _____    ______ ____
ROOT
ATOM      1  C   UNL     1       5.399   8.697   1.978  0.00  0.00    +0.254 C 
ATOM      2  O   UNL     1       6.193   7.787   1.865  0.00  0.00    -0.272 OA
ATOM      3  N   UNL     1       5.431   9.731   1.114  0.00  0.00    -0.279 N 
ATOM      4  C   UNL     1       4.406  10.788   1.163  0.00  0.00    +0.162 C 
ATOM      5  C   UNL     1       3.976  11.069  -0.260  0.00  0.00    +0.038 A 
ATOM      6  C   UNL     1       4.627  10.594  -1.343  0.00  0.00    -0.015 A 
ATOM      7  C   UNL     1       3.918  11.080  -2.510  0.00  0.00    +0.003 A 
ATOM      8  C   UNL     1       4.128  10.917  -3.882  0.00  0.00    +0.010 A 
ATOM      9  C   UNL     1       3.237  11.535  -4.724  0.00  0.00    +0.001 A 
ATOM     10  C   UNL     1       2.175  12.287  -4.248  0.00  0.00    +0.002 A 
ATOM     11  C   UNL     1       1.944  12.465  -2.895  0.00  0.00    +0.026 A 
ATOM     12  C   UNL     1       2.833  11.850  -2.017  0.00  0.00    +0.047 A 
ATOM     13  N   UNL     1       2.900  11.820  -0.653  0.00  0.00    -0.356 N 
ATOM     14  H   UNL     1       2.280  12.263  -0.054  0.00  0.00    +0.166 HD
ATOM     15  C   UNL     1       5.856   9.723  -1.294  0.00  0.00    +0.071 C 
ATOM     16  C   UNL     1       6.493   9.836   0.103  0.00  0.00    +0.189 C 
ENDROOT
BRANCH  16  17
ATOM     17  C   UNL     1       7.488   8.721   0.299  0.00  0.00    +0.328 C 
ATOM     18  O   UNL     1       7.231   7.606  -0.089  0.00  0.00    -0.249 OA
BRANCH  17  19
ATOM     19  O   UNL     1       8.661   8.967   0.904  0.00  0.00    -0.467 OA
ATOM     20  C   UNL     1       9.571   7.846   1.059  0.00  0.00    +0.280 C 
ENDBRANCH  17  19
ENDBRANCH  16  17
BRANCH   1  21
ATOM     21  C   UNL     1       4.375   8.671   3.084  0.00  0.00    +0.324 C 
BRANCH  21  22
ATOM     22  O   UNL     1       4.543   7.482   3.860  0.00  0.00    -0.482 OA
BRANCH  22  32
ATOM     23  C   UNL     1       1.044   6.752   8.156  0.00  0.00    -0.030 A 
ATOM     24  C   UNL     1       1.187   5.624   8.899  0.00  0.00    +0.096 A 
ATOM     25  C   UNL     1       2.200   4.697   8.579  0.00  0.00    +0.337 A 
ATOM     26  O   UNL     1       2.320   3.692   9.257  0.00  0.00    -0.245 OA
ATOM     27  O   UNL     1       3.031   4.890   7.543  0.00  0.00    -0.422 OA
ATOM     28  C   UNL     1       2.940   5.987   6.761  0.00  0.00    +0.146 A 
ATOM     29  C   UNL     1       1.955   6.957   7.027  0.00  0.00    +0.021 A 
ATOM     30  C   UNL     1       1.856   8.094   6.218  0.00  0.00    +0.015 A 
ATOM     31  C   UNL     1       2.717   8.260   5.173  0.00  0.00    +0.047 A 
ATOM     32  C   UNL     1       3.694   7.303   4.904  0.00  0.00    +0.128 A 
ATOM     33  C   UNL     1       3.806   6.171   5.695  0.00  0.00    +0.034 A 
ATOM     34  C   UNL     1       4.867   5.143   5.396  0.00  0.00    +0.051 C 
BRANCH  23  35
ATOM     35  C   UNL     1      -0.026   7.762   8.479  0.00  0.00    +0.036 C 
BRANCH  35  37
ATOM     36  C   UNL     1      -2.353   8.507   7.957  0.00  0.00    +0.004 C 
ATOM     37  C   UNL     1      -1.266   7.482   7.628  0.00  0.00    +0.001 C 
ENDBRANCH  35  37
ENDBRANCH  23  35
ENDBRANCH  22  32
ENDBRANCH  21  22
ENDBRANCH   1  21
TORSDOF 7
