REMARK  Name = ZINC39795394
REMARK  7 active torsions:
REMARK  status: ('A' for Active; 'I' for Inactive)
REMARK    1  A    between atoms: C_1  and  C_2
REMARK    2  A    between atoms: C_2  and  O_3
REMARK    3  A    between atoms: O_3  and  C_4
REMARK    4  A    between atoms: C_9  and  N_10
REMARK    5  A    between atoms: C_11  and  C_13
REMARK    6  A    between atoms: C_13  and  O_14
REMARK    7  A    between atoms: O_14  and  C_15
REMARK                            x       y       z     vdW  Elec       q    Type
REMARK                         _______ _______ _______ _____ _____    ______ ____
ROOT
ATOM      1  O   UNL     1       4.011  -1.799  -6.431  0.00  0.00    -0.483 OA
ENDROOT
BRANCH   1   2
ATOM      2  C   UNL     1       4.674  -1.105  -7.394  0.00  0.00    +0.120 C 
ATOM      3  C   UNL     1       4.654   0.241  -7.346  0.00  0.00    +0.047 C 
ATOM      4  C   UNL     1       5.450   1.013  -8.341  0.00  0.00    +0.137 C 
ATOM      5  C   UNL     1       5.651   0.179  -9.588  0.00  0.00    -0.012 C 
ATOM      6  C   UNL     1       5.496   1.058 -10.632  0.00  0.00    +0.003 A 
ATOM      7  C   UNL     1       5.696   0.913 -12.024  0.00  0.00    +0.010 A 
ATOM      8  C   UNL     1       5.423   2.001 -12.802  0.00  0.00    +0.001 A 
ATOM      9  C   UNL     1       4.970   3.215 -12.289  0.00  0.00    +0.002 A 
ATOM     10  C   UNL     1       4.761   3.438 -10.961  0.00  0.00    +0.026 A 
ATOM     11  C   UNL     1       5.028   2.357 -10.078  0.00  0.00    +0.044 A 
ATOM     12  N   UNL     1       4.933   2.293  -8.779  0.00  0.00    -0.374 N 
ATOM     13  C   UNL     1       5.767  -1.208  -9.552  0.00  0.00    +0.010 C 
ATOM     14  C   UNL     1       5.359  -1.829  -8.398  0.00  0.00    +0.046 C 
ATOM     15  H   UNL     1       4.578   2.990  -8.206  0.00  0.00    +0.161 HD
ENDBRANCH   1   2
BRANCH   1  16
ATOM     16  C   UNL     1       3.331  -1.035  -5.433  0.00  0.00    +0.324 C 
BRANCH  16  18
ATOM     17  N   UNL     1       1.953  -1.467  -3.424  0.00  0.00    -0.280 N 
ATOM     18  C   UNL     1       2.659  -1.967  -4.458  0.00  0.00    +0.255 C 
ATOM     19  O   UNL     1       2.753  -3.168  -4.603  0.00  0.00    -0.272 OA
ATOM     20  H   UNL     1       1.810  -0.511  -3.352  0.00  0.00    +0.155 HD
BRANCH  17  26
ATOM     21  C   UNL     1       0.317  -1.943  -1.704  0.00  0.00    +0.142 A 
ATOM     22  C   UNL     1      -0.203  -2.801  -0.749  0.00  0.00    +0.047 A 
ATOM     23  C   UNL     1       0.382  -4.036  -0.537  0.00  0.00    +0.004 A 
ATOM     24  C   UNL     1       1.486  -4.418  -1.277  0.00  0.00    +0.002 A 
ATOM     25  C   UNL     1       2.010  -3.568  -2.232  0.00  0.00    +0.027 A 
ATOM     26  C   UNL     1       1.426  -2.329  -2.453  0.00  0.00    +0.076 A 
BRANCH  21  27
ATOM     27  O   UNL     1      -0.257  -0.728  -1.914  0.00  0.00    -0.490 OA
BRANCH  27  29
ATOM     28  C   UNL     1      -1.896   0.995  -1.485  0.00  0.00    +0.048 C 
ATOM     29  C   UNL     1      -1.391  -0.399  -1.109  0.00  0.00    +0.226 C 
ENDBRANCH  27  29
ENDBRANCH  21  27
ENDBRANCH  17  26
ENDBRANCH  16  18
ENDBRANCH   1  16
TORSDOF 6
