REMARK  Name = ZINC40545362
REMARK  7 active torsions:
REMARK  status: ('A' for Active; 'I' for Inactive)
REMARK    1  A    between atoms: C_1  and  C_2
REMARK    2  A    between atoms: C_5  and  C_9
REMARK    3  A    between atoms: C_6  and  N_8
REMARK    4  A    between atoms: C_15  and  C_20
REMARK    5  A    between atoms: C_20  and  C_21
REMARK    6  A    between atoms: C_20  and  C_22
REMARK    7  A    between atoms: C_20  and  C_23
REMARK                            x       y       z     vdW  Elec       q    Type
REMARK                         _______ _______ _______ _____ _____    ______ ____
ROOT
ATOM      1  C   UNL     1      -0.007   1.501  -0.068  0.00  0.00    +0.086 C 
ATOM      2  C   UNL     1       0.012  -0.006  -0.036  0.00  0.00    +0.106 C 
ATOM      3  C   UNL     1      -1.124  -0.651   0.067  0.00  0.00    +0.087 C 
ATOM      4  C   UNL     1      -1.171  -2.153   0.104  0.00  0.00    +0.235 C 
ATOM      5  C   UNL     1       0.195  -2.711   0.399  0.00  0.00    +0.137 C 
ATOM      6  C   UNL     1       1.299  -1.927   0.274  0.00  0.00    +0.198 C 
ATOM      7  O   UNL     1       1.199  -0.644  -0.120  0.00  0.00    -0.446 OA
ATOM      8  N   UNL     1      -1.658  -2.675  -1.178  0.00  0.00    -0.297 N 
ATOM      9  C   UNL     1      -2.828  -3.392  -0.888  0.00  0.00    +0.073 A 
ATOM     10  C   UNL     1      -3.695  -4.095  -1.715  0.00  0.00    +0.031 A 
ATOM     11  C   UNL     1      -4.798  -4.731  -1.179  0.00  0.00    -0.040 A 
ATOM     12  C   UNL     1      -5.040  -4.668   0.180  0.00  0.00    +0.008 A 
ATOM     13  C   UNL     1      -4.183  -3.971   1.008  0.00  0.00    +0.048 A 
ATOM     14  C   UNL     1      -3.070  -3.328   0.479  0.00  0.00    +0.145 A 
ATOM     15  O   UNL     1      -2.103  -2.594   1.093  0.00  0.00    -0.458 OA
ATOM     16  H   UNL     1      -1.253  -2.549  -2.050  0.00  0.00    +0.151 HD
ENDROOT
BRANCH   5  17
ATOM     17  C   UNL     1       0.331  -4.049   0.806  0.00  0.00    +0.248 C 
ATOM     18  O   UNL     1       0.278  -4.945  -0.019  0.00  0.00    -0.270 OA
ATOM     19  N   UNL     1       0.519  -4.341   2.108  0.00  0.00    -0.325 N 
ATOM     20  H   UNL     1       0.485  -3.636   2.773  0.00  0.00    +0.145 HD
ATOM     21  H   UNL     1       0.688  -5.257   2.380  0.00  0.00    +0.145 HD
ENDBRANCH   5  17
BRANCH  11  22
ATOM     22  C   UNL     1      -5.738  -5.493  -2.078  0.00  0.00    -0.013 C 
ATOM     23  C   UNL     1      -4.972  -6.613  -2.784  0.00  0.00    +0.015 C 
ATOM     24  C   UNL     1      -6.867  -6.097  -1.240  0.00  0.00    +0.015 C 
ATOM     25  C   UNL     1      -6.329  -4.543  -3.121  0.00  0.00    +0.015 C 
ENDBRANCH  11  22
BRANCH   6  26
ATOM     26  N   UNL     1       2.534  -2.454   0.548  0.00  0.00    -0.329 N 
ATOM     27  H   UNL     1       2.625  -3.400   0.744  0.00  0.00    +0.145 HD
ATOM     28  H   UNL     1       3.317  -1.882   0.545  0.00  0.00    +0.145 HD
ENDBRANCH   6  26
TORSDOF 3
