REMARK  Name = ZINC07250967
REMARK  15 active torsions:
REMARK  status: ('A' for Active; 'I' for Inactive)
REMARK    1  A    between atoms: C_1  and  C_2
REMARK    2  A    between atoms: C_2  and  C_3
REMARK    3  A    between atoms: C_2  and  C_4
REMARK    4  A    between atoms: C_4  and  N_5
REMARK    5  A    between atoms: N_5  and  C_6
REMARK    6  A    between atoms: C_6  and  C_7
REMARK    7  A    between atoms: C_7  and  C_8
REMARK    8  A    between atoms: C_7  and  C_9
REMARK    9  A    between atoms: C_10  and  C_12
REMARK   10  A    between atoms: C_12  and  S_13
REMARK   11  A    between atoms: S_13  and  C_14
REMARK   12  A    between atoms: C_15  and  C_26
REMARK   13  A    between atoms: C_16  and  C_24
REMARK   14  A    between atoms: C_16  and  C_25
REMARK   15  A    between atoms: C_17  and  C_22
REMARK                            x       y       z     vdW  Elec       q    Type
REMARK                         _______ _______ _______ _____ _____    ______ ____
ROOT
ATOM      1  C   UNL     1      -2.601   2.139  -0.208  0.00  0.00    +0.082 C 
ATOM      2  C   UNL     1      -1.938   2.148   0.980  0.00  0.00    +0.064 C 
ATOM      3  C   UNL     1      -0.477   2.510   1.028  0.00  0.00    +0.026 C 
ATOM      4  C   UNL     1       0.212   2.016  -0.246  0.00  0.00    +0.188 C 
ATOM      5  C   UNL     1      -0.602   2.418  -1.447  0.00  0.00    +0.235 C 
ATOM      6  O   UNL     1      -0.043   2.707  -2.484  0.00  0.00    -0.274 OA
ATOM      7  N   UNL     1      -1.946   2.458  -1.379  0.00  0.00    -0.278 N 
ATOM      8  C   UNL     1       0.172   1.851   2.247  0.00  0.00    +0.018 C 
ATOM      9  C   UNL     1      -0.330   4.029   1.131  0.00  0.00    +0.018 C 
ATOM     10  H   UNL     1      -2.458   2.715  -2.161  0.00  0.00    +0.155 HD
ENDROOT
BRANCH   4  11
ATOM     11  C   UNL     1       0.330   0.549  -0.202  0.00  0.00    +0.076 C 
ATOM     12  N   UNL     1       0.422  -0.583  -0.169  0.00  0.00    -0.196 NA
ENDBRANCH   4  11
BRANCH   2  13
ATOM     13  C   UNL     1      -2.631   1.813   2.188  0.00  0.00    +0.098 C 
ATOM     14  N   UNL     1      -3.181   1.547   3.146  0.00  0.00    -0.191 NA
ENDBRANCH   2  13
BRANCH   1  15
ATOM     15  S   UNL     1      -4.311   1.715  -0.252  0.00  0.00    -0.100 S 
BRANCH  15  16
ATOM     16  C   UNL     1      -4.628   1.871  -2.027  0.00  0.00    +0.171 C 
BRANCH  16  18
ATOM     17  N   UNL     1      -6.566   1.700  -3.555  0.00  0.00    -0.300 N 
ATOM     18  C   UNL     1      -6.072   1.547  -2.310  0.00  0.00    +0.226 C 
ATOM     19  O   UNL     1      -6.790   1.147  -1.418  0.00  0.00    -0.275 OA
BRANCH  17  20
ATOM     20  C   UNL     1      -7.996   1.500  -3.805  0.00  0.00    +0.110 C 
BRANCH  20  22
ATOM     21  C   UNL     1     -10.206   2.648  -4.006  0.00  0.00    +0.009 C 
ATOM     22  C   UNL     1      -8.736   2.827  -3.624  0.00  0.00    +0.000 C 
ATOM     23  C   UNL     1      -8.639   3.270  -2.163  0.00  0.00    +0.009 C 
ENDBRANCH  20  22
ENDBRANCH  17  20
BRANCH  17  24
ATOM     24  C   UNL     1      -5.674   2.066  -4.657  0.00  0.00    +0.110 C 
BRANCH  24  25
ATOM     25  C   UNL     1      -5.253   0.804  -5.413  0.00  0.00    +0.000 C 
ATOM     26  C   UNL     1      -4.442   1.197  -6.650  0.00  0.00    +0.009 C 
ATOM     27  C   UNL     1      -4.396  -0.075  -4.500  0.00  0.00    +0.009 C 
ENDBRANCH  24  25
ENDBRANCH  17  24
ENDBRANCH  16  18
ENDBRANCH  15  16
ENDBRANCH   1  15
TORSDOF 9
