REMARK  Name = ZINC35404407
REMARK  5 active torsions:
REMARK  status: ('A' for Active; 'I' for Inactive)
REMARK    1  A    between atoms: C_4  and  S_10
REMARK    2  A    between atoms: C_5  and  N_7
REMARK    3  A    between atoms: S_10  and  C_11
REMARK    4  A    between atoms: C_25  and  C_33
REMARK    5  A    between atoms: CA_28  and  C_30
REMARK                            x       y       z     vdW  Elec       q    Type
REMARK                         _______ _______ _______ _____ _____    ______ ____
ROOT
ATOM      1  C   UNL     1       4.587   0.012   0.008  0.00  0.00    +0.070 C 
ATOM      2  C   UNL     1       5.979  -0.601  -0.256  0.00  0.00    +0.022 C 
ATOM      3  C   UNL     1       6.957   0.396   0.403  0.00  0.00    +0.030 C 
ATOM      4  C   UNL     1       6.216   0.837   1.676  0.00  0.00    +0.045 C 
ATOM      5  C   UNL     1       4.736   0.932   1.233  0.00  0.00    +0.101 C 
ATOM      6 CL   UNL     1       3.655   0.371   2.562  0.00  0.00    -0.120 Cl
ATOM      7  C   UNL     1       6.318  -0.194   2.768  0.00  0.00    -0.021 A 
ATOM      8  C   UNL     1       5.500  -0.053   3.880  0.00  0.00    +0.006 A 
ATOM      9  C   UNL     1       5.548  -0.970   4.915  0.00  0.00    +0.001 A 
ATOM     10  C   UNL     1       6.413  -2.042   4.859  0.00  0.00    +0.015 A 
ATOM     11  C   UNL     1       7.244  -2.201   3.748  0.00  0.00    +0.058 A 
ATOM     12  C   UNL     1       7.190  -1.266   2.701  0.00  0.00    +0.044 A 
ATOM     13  N   UNL     1       8.024  -1.435   1.601  0.00  0.00    -0.330 N 
ATOM     14  CA  UNL     1       8.279  -0.285   0.726  0.00  0.00    +0.188 C 
ATOM     15  H   UNL     1       8.427  -2.297   1.408  0.00  0.00    +0.147 HD
ENDROOT
BRANCH  11  16
ATOM     16  C   UNL     1       8.173  -3.343   3.676  0.00  0.00    +0.243 C 
ATOM     17  O   UNL     1       8.973  -3.419   2.763  0.00  0.00    -0.270 OA
ATOM     18  N   UNL     1       8.136  -4.303   4.621  0.00  0.00    -0.325 N 
ATOM     19  H   UNL     1       7.497  -4.243   5.349  0.00  0.00    +0.145 HD
ATOM     20  H   UNL     1       8.747  -5.055   4.573  0.00  0.00    +0.145 HD
ENDBRANCH  11  16
BRANCH  14  21
ATOM     21  C   UNL     1       9.177   0.681   1.456  0.00  0.00    +0.376 C 
ATOM     22  O   UNL     1       9.426   0.508   2.637  0.00  0.00    -0.244 OA
ATOM     23  OXT UNL     1       9.655   1.634   0.865  0.00  0.00    -0.244 OA
ENDBRANCH  14  21
BRANCH   1  24
ATOM     24  S   UNL     1       3.386  -1.302   0.360  0.00  0.00    -0.118 S 
BRANCH  24  28
ATOM     25  C   UNL     1      -0.558   0.892   0.737  0.00  0.00    +0.002 A 
ATOM     26  C   UNL     1       0.600   1.597   0.466  0.00  0.00    +0.001 A 
ATOM     27  C   UNL     1       1.805   0.932   0.350  0.00  0.00    +0.017 A 
ATOM     28  C   UNL     1       1.852  -0.448   0.507  0.00  0.00    +0.038 A 
ATOM     29  C   UNL     1       0.686  -1.153   0.780  0.00  0.00    +0.140 A 
ATOM     30  C   UNL     1      -0.515  -0.481   0.894  0.00  0.00    +0.034 A 
BRANCH  29  31
ATOM     31  N   UNL     1       0.731  -2.623   0.947  0.00  0.00    +0.058 N 
ATOM     32  O   UNL     1      -0.283  -3.236   1.185  0.00  0.00    -0.126 OA
ATOM     33  O   UNL     1       1.783  -3.211   0.847  0.00  0.00    -0.126 OA
ENDBRANCH  29  31
ENDBRANCH  24  28
ENDBRANCH   1  24
TORSDOF 5
