REMARK  Name = ZINC63993994
REMARK  6 active torsions:
REMARK  status: ('A' for Active; 'I' for Inactive)
REMARK    1  A    between atoms: C_7  and  C_10
REMARK    2  A    between atoms: C_10  and  C_11
REMARK    3  A    between atoms: C_11  and  C_12
REMARK    4  A    between atoms: C_23  and  C_32
REMARK    5  A    between atoms: N_27  and  C_28
REMARK    6  A    between atoms: C_28  and  C_29
REMARK                            x       y       z     vdW  Elec       q    Type
REMARK                         _______ _______ _______ _____ _____    ______ ____
ROOT
ATOM      1  C   UNL     1      -0.484  -4.830  -1.460  0.00  0.00    +0.216 C 
ATOM      2  O   UNL     1      -0.925  -5.254  -0.412  0.00  0.00    -0.276 OA
ATOM      3  N   UNL     1      -0.837  -5.413  -2.623  0.00  0.00    -0.301 N 
ATOM      4  C   UNL     1      -0.305  -4.912  -3.897  0.00  0.00    +0.109 C 
ATOM      5  C   UNL     1      -1.468  -4.641  -4.859  0.00  0.00    +0.042 C 
ATOM      6  C   UNL     1      -2.321  -5.904  -4.969  0.00  0.00    +0.082 C 
ATOM      7  C   UNL     1      -2.905  -6.241  -3.595  0.00  0.00    +0.028 C 
ATOM      8  C   UNL     1      -1.755  -6.563  -2.632  0.00  0.00    +0.113 C 
ATOM      9  C   UNL     1      -3.835  -7.447  -3.742  0.00  0.00    +0.024 C 
ATOM     10  C   UNL     1      -5.048  -7.019  -4.574  0.00  0.00    +0.105 C 
ATOM     11  C   UNL     1      -4.606  -6.268  -5.796  0.00  0.00    +0.223 C 
ATOM     12  O   UNL     1      -5.402  -6.129  -6.700  0.00  0.00    -0.275 OA
ATOM     13  N   UNL     1      -3.398  -5.736  -5.931  0.00  0.00    -0.297 N 
ENDROOT
BRANCH  10  14
ATOM     14  C   UNL     1      -5.818  -8.243  -4.998  0.00  0.00    -0.034 A 
ATOM     15  C   UNL     1      -5.204  -9.215  -5.766  0.00  0.00    +0.004 A 
ATOM     16  C   UNL     1      -5.909 -10.338  -6.155  0.00  0.00    +0.002 A 
ATOM     17  C   UNL     1      -7.230 -10.490  -5.777  0.00  0.00    +0.020 A 
ATOM     18  C   UNL     1      -7.846  -9.518  -5.008  0.00  0.00    +0.041 A 
ATOM     19  C   UNL     1      -7.137  -8.397  -4.614  0.00  0.00    +0.024 A 
ATOM     20 CL   UNL     1      -9.505  -9.708  -4.533  0.00  0.00    -0.084 Cl
ENDBRANCH  10  14
BRANCH   1  21
ATOM     21  C   UNL     1       0.457  -3.653  -1.462  0.00  0.00    +0.100 C 
BRANCH  21  22
ATOM     22  C   UNL     1       0.691  -3.186  -0.024  0.00  0.00    +0.042 C 
BRANCH  22  29
ATOM     23  C   UNL     1      -0.016   1.348   0.009  0.00  0.00    +0.001 A 
ATOM     24  C   UNL     1       1.166   2.101   0.002  0.00  0.00    +0.002 A 
ATOM     25  C   UNL     1       2.391   1.535  -0.013  0.00  0.00    +0.026 A 
ATOM     26  C   UNL     1       2.529   0.120  -0.022  0.00  0.00    +0.043 A 
ATOM     27  N   UNL     1       3.587  -0.654  -0.037  0.00  0.00    -0.380 N 
ATOM     28  C   UNL     1       3.143  -2.053  -0.041  0.00  0.00    +0.144 C 
ATOM     29  C   UNL     1       1.631  -2.008  -0.025  0.00  0.00    -0.041 C 
ATOM     30  C   UNL     1       1.295  -0.698  -0.014  0.00  0.00    -0.001 A 
ATOM     31  C   UNL     1       0.002  -0.004   0.002  0.00  0.00    +0.010 A 
ATOM     32  H   UNL     1       4.509  -0.353  -0.045  0.00  0.00    +0.160 HD
ENDBRANCH  22  29
ENDBRANCH  21  22
ENDBRANCH   1  21
BRANCH  13  33
ATOM     33  C   UNL     1      -3.135  -4.947  -7.138  0.00  0.00    +0.111 C 
BRANCH  33  34
ATOM     34  C   UNL     1      -2.616  -5.867  -8.245  0.00  0.00    +0.006 C 
ATOM     35  C   UNL     1      -1.193  -5.626  -8.754  0.00  0.00    +0.005 C 
ATOM     36  C   UNL     1      -2.392  -5.251  -9.627  0.00  0.00    +0.005 C 
ENDBRANCH  33  34
ENDBRANCH  13  33
TORSDOF 6
