REMARK  Name = ZINC40016526
REMARK  10 active torsions:
REMARK  status: ('A' for Active; 'I' for Inactive)
REMARK    1  A    between atoms: C_1  and  C_2
REMARK    2  A    between atoms: C_7  and  C_12
REMARK    3  A    between atoms: C_19  and  C_37
REMARK    4  A    between atoms: C_20  and  C_31
REMARK    5  A    between atoms: C_21  and  C_23
REMARK    6  A    between atoms: C_26  and  S_29
REMARK    7  A    between atoms: S_29  and  C_30
REMARK    8  A    between atoms: C_31  and  O_33
REMARK    9  A    between atoms: O_33  and  C_34
REMARK   10  A    between atoms: C_34  and  C_35
REMARK                            x       y       z     vdW  Elec       q    Type
REMARK                         _______ _______ _______ _____ _____    ______ ____
ROOT
ATOM      1  C   UNL     1      -2.434  -5.088   2.284  0.00  0.00    +0.028 C 
ATOM      2  C   UNL     1      -1.958  -6.115   3.036  0.00  0.00    +0.081 A 
ATOM      3  C   UNL     1      -2.570  -7.418   3.332  0.00  0.00    +0.268 A 
ATOM      4  O   UNL     1      -3.662  -7.714   2.883  0.00  0.00    -0.266 OA
ATOM      5  N   UNL     1      -1.889  -8.269   4.110  0.00  0.00    -0.275 N 
ATOM      6  C   UNL     1      -0.659  -7.885   4.591  0.00  0.00    +0.178 A 
ATOM      7  N   UNL     1       0.094  -8.632   5.359  0.00  0.00    -0.228 NA
ATOM      8  C   UNL     1      -0.223  -9.852   5.774  0.00  0.00    +0.053 C 
ATOM      9  C   UNL     1      -1.409 -10.425   5.408  0.00  0.00    +0.085 C 
ATOM     10  C   UNL     1      -2.339  -9.629   4.521  0.00  0.00    +0.162 C 
ATOM     11  C   UNL     1       0.732 -10.612   6.658  0.00  0.00    +0.066 C 
ATOM     12  S   UNL     1      -0.416  -6.250   3.926  0.00  0.00    -0.046 S 
ENDROOT
BRANCH   1  18
ATOM     13  C   UNL     1       2.438   0.326   3.588  0.00  0.00    +0.052 C 
ATOM     14  C   UNL     1       1.039  -0.289   3.663  0.00  0.00    +0.175 C 
ATOM     15  C   UNL     1       1.122  -1.803   3.969  0.00  0.00    +0.083 C 
ATOM     16  C   UNL     1      -0.025  -2.353   3.142  0.00  0.00    -0.002 A 
ATOM     17  C   UNL     1      -0.677  -3.561   3.164  0.00  0.00    +0.015 A 
ATOM     18  C   UNL     1      -1.730  -3.800   2.271  0.00  0.00    -0.023 A 
ATOM     19  C   UNL     1      -2.105  -2.800   1.365  0.00  0.00    +0.011 A 
ATOM     20  C   UNL     1      -1.441  -1.596   1.352  0.00  0.00    +0.046 A 
ATOM     21  C   UNL     1      -0.389  -1.358   2.239  0.00  0.00    +0.124 A 
ATOM     22  O   UNL     1       0.398  -0.254   2.376  0.00  0.00    -0.488 OA
ENDBRANCH   1  18
BRANCH  10  23
ATOM     23  C   UNL     1      -3.655  -9.484   5.242  0.00  0.00    -0.020 A 
ATOM     24  C   UNL     1      -3.852  -8.427   6.111  0.00  0.00    +0.007 A 
ATOM     25  C   UNL     1      -5.056  -8.290   6.773  0.00  0.00    +0.015 A 
ATOM     26  C   UNL     1      -6.071  -9.217   6.565  0.00  0.00    +0.008 A 
ATOM     27  C   UNL     1      -5.869 -10.278   5.690  0.00  0.00    +0.015 A 
ATOM     28  C   UNL     1      -4.664 -10.405   5.027  0.00  0.00    +0.007 A 
BRANCH  26  29
ATOM     29  S   UNL     1      -7.608  -9.048   7.408  0.00  0.00    -0.129 S 
ATOM     30  C   UNL     1      -8.586 -10.460   6.825  0.00  0.00    +0.090 C 
ENDBRANCH  26  29
ENDBRANCH  10  23
BRANCH   9  31
ATOM     31  C   UNL     1      -1.753 -11.715   5.842  0.00  0.00    +0.340 C 
ATOM     32  O   UNL     1      -0.990 -12.341   6.556  0.00  0.00    -0.245 OA
BRANCH  31  33
ATOM     33  O   UNL     1      -2.929 -12.263   5.468  0.00  0.00    -0.457 OA
BRANCH  33  34
ATOM     34  C   UNL     1      -3.214 -13.579   5.947  0.00  0.00    +0.259 C 
BRANCH  34  35
ATOM     35  C   UNL     1      -4.559 -14.021   5.431  0.00  0.00    +0.006 C 
ATOM     36  C   UNL     1      -4.708 -15.226   4.939  0.00  0.00    +0.007 C 
ENDBRANCH  34  35
ENDBRANCH  33  34
ENDBRANCH  31  33
ENDBRANCH   9  31
TORSDOF 7
