REMARK  Name = ZINC41022049
REMARK  10 active torsions:
REMARK  status: ('A' for Active; 'I' for Inactive)
REMARK    1  A    between atoms: C_1  and  N_2
REMARK    2  A    between atoms: N_2  and  C_3
REMARK    3  A    between atoms: N_2  and  C_4
REMARK    4  A    between atoms: C_4  and  C_6
REMARK    5  A    between atoms: C_4  and  C_24
REMARK    6  A    between atoms: C_6  and  N_7
REMARK    7  A    between atoms: C_8  and  C_10
REMARK    8  A    between atoms: C_10  and  C_11
REMARK    9  A    between atoms: C_11  and  C_12
REMARK   10  A    between atoms: C_15  and  C_17
REMARK                            x       y       z     vdW  Elec       q    Type
REMARK                         _______ _______ _______ _____ _____    ______ ____
ROOT
ATOM      1  N   UNL     1       0.204  -2.151   0.754  0.00  0.00    -0.317 N 
ATOM      2  C   UNL     1       0.641  -3.421   0.866  0.00  0.00    +0.213 C 
ATOM      3  O   UNL     1       0.254  -4.266   0.086  0.00  0.00    -0.276 OA
ATOM      4  H   UNL     1       0.514  -1.475   1.377  0.00  0.00    +0.149 HD
ENDROOT
BRANCH   1   5
ATOM      5  C   UNL     1      -0.737  -1.790  -0.308  0.00  0.00    +0.093 C 
BRANCH   5   6
ATOM      6  C   UNL     1      -1.168  -0.333  -0.135  0.00  0.00    -0.021 C 
BRANCH   6   7
ATOM      7  C   UNL     1      -1.945  -0.188   1.148  0.00  0.00    -0.059 A 
ATOM      8  C   UNL     1      -3.277  -0.556   1.194  0.00  0.00    +0.003 A 
ATOM      9  C   UNL     1      -3.990  -0.424   2.371  0.00  0.00    +0.020 A 
ATOM     10  C   UNL     1      -3.371   0.078   3.502  0.00  0.00    +0.041 A 
ATOM     11  C   UNL     1      -2.039   0.447   3.455  0.00  0.00    +0.020 A 
ATOM     12  C   UNL     1      -1.325   0.309   2.279  0.00  0.00    +0.003 A 
ATOM     13 CL   UNL     1      -4.267   0.246   4.980  0.00  0.00    -0.084 Cl
ENDBRANCH   6   7
BRANCH   6  15
ATOM     14  C   UNL     1      -2.469   1.450  -1.076  0.00  0.00    -0.096 C 
ATOM     15  N   UNL     1      -2.014   0.066  -1.268  0.00  0.00    +0.382 N 
ATOM     16  C   UNL     1      -1.241  -0.027  -2.513  0.00  0.00    -0.096 C 
ATOM     17  H   UNL     1      -2.814  -0.546  -1.322  0.00  0.00    -0.082 HD
ENDBRANCH   6  15
ENDBRANCH   5   6
ENDBRANCH   1   5
BRANCH   2  18
ATOM     18  C   UNL     1       1.609  -3.792   1.959  0.00  0.00    +0.105 C 
BRANCH  18  19
ATOM     19  C   UNL     1       1.941  -5.283   1.862  0.00  0.00    +0.105 C 
BRANCH  19  20
ATOM     20  C   UNL     1       2.910  -5.654   2.955  0.00  0.00    +0.197 A 
ATOM     21  N   UNL     1       2.583  -6.068   4.147  0.00  0.00    -0.221 NA
ATOM     22  C   UNL     1       3.703  -6.303   4.848  0.00  0.00    +0.161 A 
ATOM     23  C   UNL     1       4.757  -6.017   4.041  0.00  0.00    +0.155 A 
ATOM     24  O   UNL     1       4.246  -5.616   2.856  0.00  0.00    -0.440 OA
BRANCH  23  25
ATOM     25  C   UNL     1       6.189  -6.127   4.390  0.00  0.00    +0.019 A 
ATOM     26  C   UNL     1       7.167  -5.790   3.453  0.00  0.00    +0.013 A 
ATOM     27  C   UNL     1       8.502  -5.896   3.785  0.00  0.00    +0.021 A 
ATOM     28  C   UNL     1       8.872  -6.335   5.045  0.00  0.00    +0.041 A 
ATOM     29  C   UNL     1       7.907  -6.671   5.979  0.00  0.00    +0.021 A 
ATOM     30  C   UNL     1       6.569  -6.564   5.661  0.00  0.00    +0.013 A 
ATOM     31 CL   UNL     1      10.554  -6.465   5.455  0.00  0.00    -0.084 Cl
ENDBRANCH  23  25
ENDBRANCH  19  20
ENDBRANCH  18  19
ENDBRANCH   2  18
TORSDOF 8
