REMARK  Name = ZINC63893409
REMARK  6 active torsions:
REMARK  status: ('A' for Active; 'I' for Inactive)
REMARK    1  A    between atoms: C_1  and  C_2
REMARK    2  A    between atoms: C_5  and  N_8
REMARK    3  A    between atoms: C_9  and  C_24
REMARK    4  A    between atoms: C_12  and  S_13
REMARK    5  A    between atoms: S_13  and  C_14
REMARK    6  A    between atoms: C_14  and  C_15
REMARK                            x       y       z     vdW  Elec       q    Type
REMARK                         _______ _______ _______ _____ _____    ______ ____
ROOT
ATOM      1  N   UNL     1       0.037  -4.173  -0.059  0.00  0.00    -0.270 N 
ATOM      2  C   UNL     1      -0.879  -5.021   0.523  0.00  0.00    +0.169 A 
ATOM      3  N   UNL     1      -0.450  -6.246   0.326  0.00  0.00    -0.128 NA
ATOM      4  N   UNL     1       0.656  -6.224  -0.329  0.00  0.00    -0.122 NA
ATOM      5  C   UNL     1       0.999  -4.984  -0.597  0.00  0.00    +0.197 A 
ENDROOT
BRANCH   1  10
ATOM      6  C   UNL     1      -0.149   1.497  -0.214  0.00  0.00    +0.044 C 
ATOM      7  C   UNL     1      -0.100  -0.008  -0.172  0.00  0.00    -0.050 A 
ATOM      8  C   UNL     1      -0.262  -0.736  -1.337  0.00  0.00    +0.005 A 
ATOM      9  C   UNL     1      -0.217  -2.116  -1.302  0.00  0.00    +0.026 A 
ATOM     10  C   UNL     1      -0.009  -2.772  -0.097  0.00  0.00    +0.051 A 
ATOM     11  C   UNL     1       0.154  -2.039   1.070  0.00  0.00    +0.026 A 
ATOM     12  C   UNL     1       0.113  -0.659   1.029  0.00  0.00    +0.005 A 
ENDBRANCH   1  10
BRANCH   2  13
ATOM     13  C   UNL     1      -2.113  -4.627   1.235  0.00  0.00    +0.020 A 
ATOM     14  C   UNL     1      -2.647  -3.349   1.057  0.00  0.00    +0.013 A 
ATOM     15  C   UNL     1      -3.798  -2.986   1.724  0.00  0.00    +0.021 A 
ATOM     16  C   UNL     1      -4.425  -3.887   2.569  0.00  0.00    +0.041 A 
ATOM     17  C   UNL     1      -3.901  -5.156   2.750  0.00  0.00    +0.021 A 
ATOM     18  C   UNL     1      -2.753  -5.532   2.083  0.00  0.00    +0.013 A 
ATOM     19 CL   UNL     1      -5.873  -3.423   3.406  0.00  0.00    -0.084 Cl
ENDBRANCH   2  13
BRANCH   5  20
ATOM     20  S   UNL     1       2.432  -4.464  -1.480  0.00  0.00    -0.081 S 
BRANCH  20  21
ATOM     21  C   UNL     1       3.270  -6.014  -1.909  0.00  0.00    +0.110 C 
BRANCH  21  22
ATOM     22  C   UNL     1       4.529  -5.708  -2.678  0.00  0.00    -0.031 C 
ATOM     23  C   UNL     1       5.781  -5.597  -2.178  0.00  0.00    -0.000 A 
ATOM     24  C   UNL     1       6.324  -5.721  -0.820  0.00  0.00    +0.010 A 
ATOM     25  C   UNL     1       7.652  -5.551  -0.626  0.00  0.00    +0.001 A 
ATOM     26  C   UNL     1       8.520  -5.259  -1.687  0.00  0.00    +0.002 A 
ATOM     27  C   UNL     1       8.096  -5.129  -2.962  0.00  0.00    +0.026 A 
ATOM     28  C   UNL     1       6.719  -5.288  -3.281  0.00  0.00    +0.043 A 
ATOM     29  N   UNL     1       6.073  -5.212  -4.419  0.00  0.00    -0.380 N 
ATOM     30  C   UNL     1       4.651  -5.470  -4.167  0.00  0.00    +0.145 C 
ATOM     31  H   UNL     1       6.469  -5.021  -5.283  0.00  0.00    +0.160 HD
ENDBRANCH  21  22
ENDBRANCH  20  21
ENDBRANCH   5  20
TORSDOF 5
