REMARK  Name = ZINC35404812
REMARK  12 active torsions:
REMARK  status: ('A' for Active; 'I' for Inactive)
REMARK    1  A    between atoms: C_1  and  C_2
REMARK    2  A    between atoms: C_5  and  C_8
REMARK    3  A    between atoms: C_8  and  N_9
REMARK    4  A    between atoms: N_9  and  C_10
REMARK    5  A    between atoms: N_9  and  C_20
REMARK    6  A    between atoms: C_10  and  C_11
REMARK    7  A    between atoms: C_20  and  C_21
REMARK    8  A    between atoms: C_23  and  C_26
REMARK    9  A    between atoms: N_28  and  C_29
REMARK   10  A    between atoms: C_29  and  C_30
REMARK   11  A    between atoms: C_29  and  C_31
REMARK   12  A    between atoms: C_29  and  C_32
REMARK                            x       y       z     vdW  Elec       q    Type
REMARK                         _______ _______ _______ _____ _____    ______ ____
ROOT
ATOM      1  N   UNL     1       1.350  -4.121   0.035  0.00  0.00    +0.389 N 
ATOM      2  H   UNL     1       1.931  -3.585  -0.593  0.00  0.00    -0.080 HD
ENDROOT
BRANCH   1   3
ATOM      3  C   UNL     1       0.048  -3.457   0.183  0.00  0.00    -0.042 C 
BRANCH   3   8
ATOM      4  C   UNL     1       0.849   1.997   1.915  0.00  0.00    +0.044 C 
ATOM      5  C   UNL     1       0.640   0.575   1.464  0.00  0.00    -0.050 A 
ATOM      6  C   UNL     1       0.724   0.257   0.121  0.00  0.00    +0.003 A 
ATOM      7  C   UNL     1       0.532  -1.048  -0.293  0.00  0.00    +0.002 A 
ATOM      8  C   UNL     1       0.258  -2.035   0.635  0.00  0.00    -0.064 A 
ATOM      9  C   UNL     1       0.175  -1.717   1.978  0.00  0.00    +0.002 A 
ATOM     10  C   UNL     1       0.370  -0.413   2.392  0.00  0.00    +0.003 A 
ENDBRANCH   3   8
ENDBRANCH   1   3
BRANCH   1  11
ATOM     11  C   UNL     1       1.152  -5.470  -0.513  0.00  0.00    -0.042 C 
BRANCH  11  12
ATOM     12  C   UNL     1       0.595  -5.369  -1.909  0.00  0.00    -0.060 A 
ATOM     13  C   UNL     1      -0.773  -5.333  -2.105  0.00  0.00    +0.005 A 
ATOM     14  C   UNL     1      -1.289  -5.240  -3.384  0.00  0.00    +0.050 A 
ATOM     15  C   UNL     1      -0.435  -5.182  -4.474  0.00  0.00    +0.166 A 
ATOM     16  C   UNL     1       0.944  -5.218  -4.276  0.00  0.00    +0.166 A 
ATOM     17  C   UNL     1       1.453  -5.306  -2.991  0.00  0.00    +0.051 A 
ATOM     18  O   UNL     1       1.560  -5.148  -5.492  0.00  0.00    -0.453 OA
ATOM     19  C   UNL     1       0.545  -5.481  -6.458  0.00  0.00    +0.466 C 
ATOM     20  O   UNL     1      -0.681  -5.090  -5.813  0.00  0.00    -0.453 OA
ENDBRANCH  11  12
ENDBRANCH   1  11
BRANCH   1  21
ATOM     21  C   UNL     1       2.003  -4.215   1.347  0.00  0.00    -0.014 C 
BRANCH  21  22
ATOM     22  C   UNL     1       3.390  -4.779   1.178  0.00  0.00    +0.063 A 
ATOM     23  N   UNL     1       4.499  -4.132   0.940  0.00  0.00    -0.241 NA
ATOM     24  C   UNL     1       5.631  -4.833   0.825  0.00  0.00    +0.133 A 
ATOM     25  C   UNL     1       5.516  -6.190   0.971  0.00  0.00    +0.079 A 
ATOM     26  S   UNL     1       3.873  -6.385   1.259  0.00  0.00    -0.082 S 
BRANCH  24  27
ATOM     27  C   UNL     1       6.926  -4.185   0.556  0.00  0.00    +0.263 C 
ATOM     28  O   UNL     1       7.917  -4.863   0.364  0.00  0.00    -0.268 OA
ATOM     29  N   UNL     1       7.012  -2.840   0.523  0.00  0.00    -0.305 N 
ATOM     30  H   UNL     1       6.238  -2.299   0.745  0.00  0.00    +0.150 HD
BRANCH  29  31
ATOM     31  C   UNL     1       8.274  -2.196   0.151  0.00  0.00    +0.027 C 
ATOM     32  C   UNL     1       8.719  -2.701  -1.223  0.00  0.00    +0.031 C 
ATOM     33  C   UNL     1       8.076  -0.680   0.097  0.00  0.00    +0.031 C 
ATOM     34  C   UNL     1       9.345  -2.534   1.190  0.00  0.00    +0.031 C 
ENDBRANCH  29  31
ENDBRANCH  24  27
ENDBRANCH  21  22
ENDBRANCH   1  21
TORSDOF 8
