REMARK  Name = ZINC12529669
REMARK  6 active torsions:
REMARK  status: ('A' for Active; 'I' for Inactive)
REMARK    1  A    between atoms: C_6  and  C_7
REMARK    2  A    between atoms: C_7  and  N_8
REMARK    3  A    between atoms: N_8  and  C_9
REMARK    4  A    between atoms: C_18  and  N_23
REMARK    5  A    between atoms: C_20  and  O_22
REMARK    6  A    between atoms: C_26  and  C_29
REMARK                            x       y       z     vdW  Elec       q    Type
REMARK                         _______ _______ _______ _____ _____    ______ ____
ROOT
ATOM      1  C   UNL     1      -3.066  -1.643  -1.425  0.00  0.00    +0.112 C 
ATOM      2  C   UNL     1      -2.766  -3.141  -1.251  0.00  0.00    +0.166 C 
ATOM      3  C   UNL     1      -4.038  -3.925  -1.651  0.00  0.00    +0.196 C 
ATOM      4  O   UNL     1      -3.890  -4.178  -3.060  0.00  0.00    -0.350 OA
ATOM      5  C   UNL     1      -2.656  -3.559  -3.470  0.00  0.00    +0.240 C 
ATOM      6  O   UNL     1      -1.811  -3.509  -2.277  0.00  0.00    -0.346 OA
ATOM      7  C   UNL     1      -2.962  -2.117  -3.901  0.00  0.00    +0.019 C 
ATOM      8  C   UNL     1      -3.761  -1.436  -2.776  0.00  0.00    +0.125 C 
ENDROOT
BRANCH   7   9
ATOM      9  N   UNL     1      -1.704  -1.384  -4.096  0.00  0.00    +0.387 N 
ATOM     10  C   UNL     1      -0.888  -2.075  -5.101  0.00  0.00    -0.077 C 
ATOM     11  C   UNL     1       0.457  -1.361  -5.250  0.00  0.00    -0.006 C 
ATOM     12  C   UNL     1       0.216   0.085  -5.691  0.00  0.00    +0.071 C 
ATOM     13  C   UNL     1      -0.697   0.774  -4.673  0.00  0.00    -0.006 C 
ATOM     14  C   UNL     1      -2.000  -0.018  -4.546  0.00  0.00    -0.077 C 
ATOM     15  H   UNL     1      -1.199  -1.347  -3.223  0.00  0.00    -0.081 HD
BRANCH  12  16
ATOM     16  C   UNL     1       1.532   0.816  -5.764  0.00  0.00    +0.213 C 
ATOM     17  O   UNL     1       2.562   0.238  -5.489  0.00  0.00    -0.276 OA
ATOM     18  N   UNL     1       1.564   2.112  -6.134  0.00  0.00    -0.329 N 
ATOM     19  H   UNL     1       0.740   2.574  -6.353  0.00  0.00    +0.145 HD
ATOM     20  H   UNL     1       2.411   2.582  -6.181  0.00  0.00    +0.145 HD
ENDBRANCH  12  16
ENDBRANCH   7   9
BRANCH   1  21
ATOM     21  N   UNL     1      -1.809  -0.883  -1.395  0.00  0.00    -0.305 NA
ATOM     22  H   UNL     1      -1.881  -0.043  -1.951  0.00  0.00    +0.123 HD
BRANCH  21  23
ATOM     23  C   UNL     1      -1.417  -0.569  -0.015  0.00  0.00    +0.116 C 
BRANCH  23  29
ATOM     24  C   UNL     1      -0.155   1.591  -0.086  0.00  0.00    +0.009 A 
ATOM     25  C   UNL     1       1.025   2.310  -0.094  0.00  0.00    +0.050 A 
ATOM     26  C   UNL     1       2.241   1.648  -0.042  0.00  0.00    +0.166 A 
ATOM     27  C   UNL     1       2.269   0.257   0.020  0.00  0.00    +0.167 A 
ATOM     28  C   UNL     1       1.083  -0.457   0.028  0.00  0.00    +0.054 A 
ATOM     29  C   UNL     1      -0.127   0.210  -0.024  0.00  0.00    -0.030 A 
ATOM     30  O   UNL     1       3.571  -0.151   0.062  0.00  0.00    -0.453 OA
ATOM     31  C   UNL     1       4.343   0.979  -0.385  0.00  0.00    +0.466 C 
ATOM     32  O   UNL     1       3.525   2.111  -0.038  0.00  0.00    -0.453 OA
ENDBRANCH  23  29
ENDBRANCH  21  23
ENDBRANCH   1  21
BRANCH   8  33
ATOM     33  O   UNL     1      -5.061  -2.028  -2.739  0.00  0.00    -0.392 OA
ATOM     34  H   UNL     1      -5.642  -1.659  -2.059  0.00  0.00    +0.210 HD
ENDBRANCH   8  33
TORSDOF 6
