REMARK  Name = ZINC02192244
REMARK  13 active torsions:
REMARK  status: ('A' for Active; 'I' for Inactive)
REMARK    1  A    between atoms: C_1  and  C_2
REMARK    2  A    between atoms: C_2  and  C_3
REMARK    3  A    between atoms: N_5  and  C_6
REMARK    4  A    between atoms: C_6  and  C_33
REMARK    5  A    between atoms: N_14  and  C_19
REMARK    6  A    between atoms: C_19  and  C_20
REMARK    7  A    between atoms: C_20  and  C_21
REMARK    8  A    between atoms: C_24  and  O_30
REMARK    9  A    between atoms: C_25  and  O_27
REMARK   10  A    between atoms: O_27  and  C_28
REMARK   11  A    between atoms: C_28  and  C_29
REMARK   12  A    between atoms: O_30  and  C_31
REMARK   13  A    between atoms: C_31  and  C_32
REMARK                            x       y       z     vdW  Elec       q    Type
REMARK                         _______ _______ _______ _____ _____    ______ ____
ROOT
ATOM      1  C   UNL     1      -4.305   0.772   2.251  0.00  0.00    +0.240 C 
ATOM      2  C   UNL     1      -5.113   1.183   3.459  0.00  0.00    +0.096 A 
ATOM      3  C   UNL     1      -5.551   2.422   3.942  0.00  0.00    +0.262 A 
ATOM      4  O   UNL     1      -5.281   3.448   3.341  0.00  0.00    -0.267 OA
ATOM      5  N   UNL     1      -6.276   2.470   5.080  0.00  0.00    -0.275 N 
ATOM      6  H   UNL     1      -6.594   3.349   5.433  0.00  0.00    +0.173 HD
ATOM      7  C   UNL     1      -6.571   1.335   5.740  0.00  0.00    +0.331 A 
ATOM      8  O   UNL     1      -7.224   1.395   6.764  0.00  0.00    -0.246 OA
ATOM      9  N   UNL     1      -6.156   0.128   5.292  0.00  0.00    -0.281 N 
ATOM     10  C   UNL     1      -5.414   0.032   4.133  0.00  0.00    +0.120 A 
ATOM     11  N   UNL     1      -4.893  -1.065   3.492  0.00  0.00    -0.269 N 
ATOM     12  C   UNL     1      -4.223  -0.737   2.373  0.00  0.00    +0.256 C 
ATOM     13  O   UNL     1      -3.662  -1.497   1.613  0.00  0.00    -0.272 OA
ATOM     14  H   UNL     1      -4.998  -1.975   3.809  0.00  0.00    +0.156 HD
ENDROOT
BRANCH   1  17
ATOM     15  C   UNL     1      -2.129   1.061   3.308  0.00  0.00    +0.214 C 
ATOM     16  O   UNL     1      -2.512   0.366   4.225  0.00  0.00    -0.276 OA
ATOM     17  N   UNL     1      -2.967   1.367   2.298  0.00  0.00    -0.291 N 
ATOM     18  H   UNL     1      -2.686   1.982   1.603  0.00  0.00    +0.150 HD
BRANCH  15  20
ATOM     19  C   UNL     1       0.019   1.091   4.546  0.00  0.00    +0.013 C 
ATOM     20  C   UNL     1      -0.714   1.581   3.296  0.00  0.00    +0.092 C 
ENDBRANCH  15  20
ENDBRANCH   1  17
BRANCH   1  21
ATOM     21  C   UNL     1      -5.025   1.169   0.961  0.00  0.00    +0.424 C 
ATOM     22  F   UNL     1      -4.342   0.635  -0.137  0.00  0.00    -0.167 F 
ATOM     23  F   UNL     1      -6.332   0.672   0.984  0.00  0.00    -0.167 F 
ATOM     24  F   UNL     1      -5.058   2.564   0.856  0.00  0.00    -0.167 F 
ENDBRANCH   1  21
BRANCH   9  25
ATOM     25  C   UNL     1      -6.498  -1.086   6.037  0.00  0.00    +0.133 C 
BRANCH  25  26
ATOM     26  C   UNL     1      -5.402  -1.381   7.064  0.00  0.00    +0.057 C 
BRANCH  26  27
ATOM     27  C   UNL     1      -5.754  -2.630   7.830  0.00  0.00    -0.042 A 
ATOM     28  C   UNL     1      -6.492  -2.538   8.995  0.00  0.00    +0.007 A 
ATOM     29  C   UNL     1      -6.822  -3.682   9.699  0.00  0.00    +0.050 A 
ATOM     30  C   UNL     1      -6.404  -4.921   9.243  0.00  0.00    +0.162 A 
ATOM     31  C   UNL     1      -5.656  -5.012   8.073  0.00  0.00    +0.162 A 
ATOM     32  C   UNL     1      -5.333  -3.863   7.369  0.00  0.00    +0.053 A 
BRANCH  31  33
ATOM     33  O   UNL     1      -5.242  -6.227   7.621  0.00  0.00    -0.489 OA
BRANCH  33  34
ATOM     34  C   UNL     1      -4.478  -6.244   6.414  0.00  0.00    +0.226 C 
ATOM     35  C   UNL     1      -4.106  -7.687   6.066  0.00  0.00    +0.048 C 
ENDBRANCH  33  34
ENDBRANCH  31  33
BRANCH  30  36
ATOM     36  O   UNL     1      -6.723  -6.046   9.937  0.00  0.00    -0.489 OA
BRANCH  36  37
ATOM     37  C   UNL     1      -7.492  -5.877  11.129  0.00  0.00    +0.226 C 
ATOM     38  C   UNL     1      -7.751  -7.243  11.768  0.00  0.00    +0.048 C 
ENDBRANCH  36  37
ENDBRANCH  30  36
ENDBRANCH  26  27
ENDBRANCH  25  26
ENDBRANCH   9  25
TORSDOF 10
