REMARK  Name = ZINC41585412
REMARK  7 active torsions:
REMARK  status: ('A' for Active; 'I' for Inactive)
REMARK    1  A    between atoms: C_1  and  C_2
REMARK    2  A    between atoms: C_4  and  O_37
REMARK    3  A    between atoms: C_5  and  C_23
REMARK    4  A    between atoms: C_11  and  C_12
REMARK    5  A    between atoms: N_14  and  C_21
REMARK    6  A    between atoms: C_23  and  N_24
REMARK    7  A    between atoms: N_27  and  C_30
REMARK                            x       y       z     vdW  Elec       q    Type
REMARK                         _______ _______ _______ _____ _____    ______ ____
ROOT
ATOM      1  C   UNL     1      -1.567   1.446   0.263  0.00  0.00    +0.045 C 
ATOM      2  C   UNL     1      -1.270  -0.030   0.186  0.00  0.00    -0.033 A 
ATOM      3  C   UNL     1      -1.386  -0.691  -1.004  0.00  0.00    +0.050 A 
ATOM      4  C   UNL     1      -1.113  -2.054  -1.078  0.00  0.00    +0.122 A 
ATOM      5  C   UNL     1      -0.721  -2.756   0.050  0.00  0.00    +0.020 A 
ATOM      6  C   UNL     1      -0.598  -2.099   1.266  0.00  0.00    +0.145 A 
ATOM      7  C   UNL     1      -0.870  -0.722   1.329  0.00  0.00    +0.071 A 
ATOM      8  C   UNL     1      -0.645  -0.325   2.730  0.00  0.00    +0.232 C 
ATOM      9  O   UNL     1      -0.775   0.787   3.215  0.00  0.00    -0.283 OA
ATOM     10  C   UNL     1      -0.246  -1.515   3.394  0.00  0.00    +0.176 C 
ATOM     11  C   UNL     1       0.069  -1.621   4.716  0.00  0.00    +0.060 C 
ATOM     12  O   UNL     1      -0.242  -2.528   2.496  0.00  0.00    -0.451 OA
ENDROOT
BRANCH  11  13
ATOM     13  C   UNL     1       0.171  -0.420   5.542  0.00  0.00    +0.004 A 
ATOM     14  C   UNL     1       0.721   0.790   5.177  0.00  0.00    +0.094 A 
ATOM     15  N   UNL     1       0.629   1.660   6.214  0.00  0.00    -0.349 N 
ATOM     16  C   UNL     1       0.018   1.060   7.296  0.00  0.00    +0.049 A 
ATOM     17  C   UNL     1      -0.301  -0.257   6.931  0.00  0.00    +0.007 A 
ATOM     18  C   UNL     1      -0.937  -1.100   7.838  0.00  0.00    +0.010 A 
ATOM     19  C   UNL     1      -1.254  -0.633   9.096  0.00  0.00    +0.001 A 
ATOM     20  C   UNL     1      -0.942   0.668   9.458  0.00  0.00    +0.002 A 
ATOM     21  C   UNL     1      -0.306   1.511   8.572  0.00  0.00    +0.026 A 
ATOM     22  C   UNL     1       1.113   3.042   6.189  0.00  0.00    +0.149 C 
ENDBRANCH  11  13
BRANCH   4  23
ATOM     23  O   UNL     1      -1.232  -2.700  -2.266  0.00  0.00    -0.506 OA
ATOM     24  H   UNL     1      -0.421  -2.708  -2.793  0.00  0.00    +0.292 HD
ENDBRANCH   4  23
BRANCH   5  25
ATOM     25  C   UNL     1      -0.429  -4.232  -0.043  0.00  0.00    -0.035 C 
BRANCH  25  26
ATOM     26  N   UNL     1       0.991  -4.431  -0.360  0.00  0.00    +0.385 N 
ATOM     27  C   UNL     1       1.275  -3.883  -1.692  0.00  0.00    -0.059 C 
ATOM     28  C   UNL     1       2.777  -3.987  -1.976  0.00  0.00    +0.086 C 
ATOM     29  N   UNL     1       3.191  -5.387  -1.794  0.00  0.00    -0.331 N 
ATOM     30  C   UNL     1       2.804  -6.068  -0.549  0.00  0.00    +0.086 C 
ATOM     31  C   UNL     1       1.300  -5.866  -0.333  0.00  0.00    -0.059 C 
ATOM     32  H   UNL     1       1.557  -3.953   0.325  0.00  0.00    -0.081 HD
BRANCH  29  33
ATOM     33  C   UNL     1       3.931  -6.052  -2.777  0.00  0.00    +0.065 A 
ATOM     34  C   UNL     1       5.318  -6.019  -2.745  0.00  0.00    +0.026 A 
ATOM     35  C   UNL     1       6.046  -6.677  -3.717  0.00  0.00    +0.002 A 
ATOM     36  C   UNL     1       5.396  -7.368  -4.723  0.00  0.00    +0.003 A 
ATOM     37  C   UNL     1       4.014  -7.404  -4.760  0.00  0.00    +0.040 A 
ATOM     38  C   UNL     1       3.278  -6.752  -3.786  0.00  0.00    +0.144 A 
ATOM     39  F   UNL     1       1.928  -6.792  -3.819  0.00  0.00    -0.204 F 
ENDBRANCH  29  33
ENDBRANCH  25  26
ENDBRANCH   5  25
TORSDOF 5
