REMARK  Name = ZINC36304891
REMARK  16 active torsions:
REMARK  status: ('A' for Active; 'I' for Inactive)
REMARK    1  A    between atoms: C_1  and  C_2
REMARK    2  A    between atoms: C_6  and  O_8
REMARK    3  A    between atoms: O_8  and  C_9
REMARK    4  A    between atoms: C_10  and  C_21
REMARK    5  A    between atoms: C_11  and  C_20
REMARK    6  A    between atoms: N_13  and  C_14
REMARK    7  A    between atoms: C_21  and  N_22
REMARK    8  A    between atoms: N_22  and  C_23
REMARK    9  A    between atoms: N_22  and  C_27
REMARK   10  A    between atoms: C_23  and  C_24
REMARK   11  A    between atoms: C_27  and  C_28
REMARK   12  A    between atoms: C_28  and  C_30
REMARK   13  A    between atoms: C_28  and  O_38
REMARK   14  A    between atoms: C_30  and  O_31
REMARK   15  A    between atoms: O_31  and  C_32
REMARK   16  A    between atoms: C_32  and  C_33
REMARK                            x       y       z     vdW  Elec       q    Type
REMARK                         _______ _______ _______ _____ _____    ______ ____
ROOT
ATOM      1  C   UNL     1      -0.596  -4.775   1.615  0.00  0.00    +0.225 A 
ATOM      2  C   UNL     1      -0.132  -5.263   2.797  0.00  0.00    +0.021 A 
ATOM      3  C   UNL     1       0.411  -6.528   2.557  0.00  0.00    +0.065 A 
ATOM      4  N   UNL     1       0.283  -6.798   1.282  0.00  0.00    -0.168 NA
ATOM      5  N   UNL     1      -0.353  -5.715   0.663  0.00  0.00    -0.200 N 
ATOM      6  C   UNL     1       1.039  -7.429   3.589  0.00  0.00    +0.068 C 
ENDROOT
BRANCH   5   7
ATOM      7  C   UNL     1      -0.679  -5.617  -0.697  0.00  0.00    +0.069 A 
ATOM      8  C   UNL     1      -1.893  -5.064  -1.083  0.00  0.00    +0.028 A 
ATOM      9  C   UNL     1      -2.212  -4.968  -2.423  0.00  0.00    +0.002 A 
ATOM     10  C   UNL     1      -1.323  -5.422  -3.381  0.00  0.00    +0.000 A 
ATOM     11  C   UNL     1      -0.113  -5.972  -2.999  0.00  0.00    +0.002 A 
ATOM     12  C   UNL     1       0.214  -6.065  -1.661  0.00  0.00    +0.028 A 
ENDBRANCH   5   7
BRANCH   1  13
ATOM     13  O   UNL     1      -1.196  -3.573   1.423  0.00  0.00    -0.438 OA
BRANCH  13  19
ATOM     14  C   UNL     1      -0.855   1.065  -0.057  0.00  0.00    +0.044 C 
ATOM     15  C   UNL     1      -0.221  -0.259   0.284  0.00  0.00    -0.047 A 
ATOM     16  C   UNL     1       1.149  -0.415   0.180  0.00  0.00    +0.003 A 
ATOM     17  C   UNL     1       1.735  -1.628   0.493  0.00  0.00    +0.004 A 
ATOM     18  C   UNL     1       0.952  -2.687   0.909  0.00  0.00    +0.046 A 
ATOM     19  C   UNL     1      -0.423  -2.533   1.014  0.00  0.00    +0.131 A 
ATOM     20  C   UNL     1      -1.008  -1.313   0.705  0.00  0.00    +0.049 A 
ENDBRANCH  13  19
ENDBRANCH   1  13
BRANCH   2  21
ATOM     21  C   UNL     1      -0.193  -4.563   4.130  0.00  0.00    -0.036 C 
BRANCH  21  22
ATOM     22  N   UNL     1      -1.522  -4.758   4.725  0.00  0.00    +0.384 N 
ATOM     23  H   UNL     1      -2.229  -4.425   4.087  0.00  0.00    -0.081 HD
BRANCH  22  24
ATOM     24  C   UNL     1      -1.609  -4.008   5.986  0.00  0.00    -0.075 C 
BRANCH  24  25
ATOM     25  C   UNL     1      -1.392  -2.519   5.709  0.00  0.00    -0.028 C 
ATOM     26  C   UNL     1      -0.146  -1.863   6.309  0.00  0.00    +0.002 C 
ATOM     27  C   UNL     1      -1.528  -1.554   6.889  0.00  0.00    +0.002 C 
ENDBRANCH  24  25
ENDBRANCH  22  24
BRANCH  22  28
ATOM     28  C   UNL     1      -1.736  -6.187   4.990  0.00  0.00    -0.044 C 
BRANCH  28  29
ATOM     29  C   UNL     1      -3.189  -6.416   5.410  0.00  0.00    +0.124 C 
BRANCH  29  30
ATOM     30  O   UNL     1      -3.408  -5.840   6.700  0.00  0.00    -0.391 OA
ATOM     31  H   UNL     1      -2.848  -6.210   7.396  0.00  0.00    +0.210 HD
ENDBRANCH  29  30
BRANCH  29  32
ATOM     32  C   UNL     1      -3.471  -7.919   5.468  0.00  0.00    +0.189 C 
BRANCH  32  33
ATOM     33  O   UNL     1      -4.857  -8.133   5.747  0.00  0.00    -0.370 OA
BRANCH  33  34
ATOM     34  C   UNL     1      -5.229  -9.510   5.822  0.00  0.00    +0.234 C 
BRANCH  34  35
ATOM     35  C   UNL     1      -6.702  -9.617   6.118  0.00  0.00    +0.130 A 
ATOM     36  C   UNL     1      -7.686  -9.679   5.203  0.00  0.00    +0.047 A 
ATOM     37  C   UNL     1      -8.904  -9.771   5.916  0.00  0.00    +0.041 A 
ATOM     38  C   UNL     1      -8.591  -9.760   7.224  0.00  0.00    +0.195 A 
ATOM     39  O   UNL     1      -7.256  -9.673   7.341  0.00  0.00    -0.465 OA
ENDBRANCH  34  35
ENDBRANCH  33  34
ENDBRANCH  32  33
ENDBRANCH  29  32
ENDBRANCH  28  29
ENDBRANCH  22  28
ENDBRANCH  21  22
ENDBRANCH   2  21
TORSDOF 14
