REMARK  Name = ZINC41027107
REMARK  4 active torsions:
REMARK  status: ('A' for Active; 'I' for Inactive)
REMARK    1  A    between atoms: C_3  and  S_12
REMARK    2  A    between atoms: C_8  and  N_11
REMARK    3  A    between atoms: S_12  and  C_13
REMARK    4  A    between atoms: C_19  and  N_21
REMARK                            x       y       z     vdW  Elec       q    Type
REMARK                         _______ _______ _______ _____ _____    ______ ____
ROOT
ATOM      1  C   UNL     1      -0.017   1.406   0.010  0.00  0.00    +0.012 A 
ATOM      2  C   UNL     1       1.174   2.068   0.002  0.00  0.00    +0.036 A 
ATOM      3  C   UNL     1       2.374   1.345  -0.013  0.00  0.00    +0.105 A 
ATOM      4  N   UNL     1       2.386   0.028  -0.021  0.00  0.00    -0.240 NA
ATOM      5  C   UNL     1       1.249  -0.677  -0.014  0.00  0.00    +0.072 A 
ATOM      6  C   UNL     1       0.002  -0.004   0.002  0.00  0.00    +0.002 A 
ATOM      7  C   UNL     1      -1.188  -0.747   0.008  0.00  0.00    +0.032 A 
ATOM      8  C   UNL     1      -1.129  -2.123  -0.001  0.00  0.00    +0.025 A 
ATOM      9  C   UNL     1       0.106  -2.782  -0.016  0.00  0.00    +0.025 A 
ATOM     10  C   UNL     1       1.272  -2.083  -0.023  0.00  0.00    +0.030 A 
ENDROOT
BRANCH   8  11
ATOM     11  N   UNL     1      -2.311  -2.868   0.006  0.00  0.00    -0.358 N 
ATOM     12  H   UNL     1      -3.169  -2.416   0.017  0.00  0.00    +0.142 HD
ATOM     13  H   UNL     1      -2.274  -3.837  -0.000  0.00  0.00    +0.142 HD
ENDBRANCH   8  11
BRANCH   3  14
ATOM     14  S   UNL     1       3.905   2.218  -0.023  0.00  0.00    -0.032 S 
BRANCH  14  15
ATOM     15  C   UNL     1       5.122   0.945  -0.042  0.00  0.00    +0.177 A 
ATOM     16  N   UNL     1       6.441   1.284  -0.047  0.00  0.00    -0.302 N 
ATOM     17  H   UNL     1       6.701   2.218  -0.040  0.00  0.00    +0.171 HD
ATOM     18  C   UNL     1       7.388   0.322  -0.060  0.00  0.00    +0.254 A 
ATOM     19  O   UNL     1       8.573   0.616  -0.065  0.00  0.00    -0.268 OA
ATOM     20  C   UNL     1       6.988  -1.018  -0.069  0.00  0.00    +0.113 A 
ATOM     21  C   UNL     1       5.631  -1.310  -0.063  0.00  0.00    +0.124 A 
ATOM     22  N   UNL     1       4.738  -0.314  -0.045  0.00  0.00    -0.208 NA
BRANCH  21  23
ATOM     23  N   UNL     1       5.205  -2.623  -0.072  0.00  0.00    -0.343 N 
ATOM     24  H   UNL     1       5.854  -3.344  -0.083  0.00  0.00    +0.144 HD
ATOM     25  H   UNL     1       4.256  -2.825  -0.068  0.00  0.00    +0.144 HD
ENDBRANCH  21  23
ENDBRANCH  14  15
ENDBRANCH   3  14
TORSDOF 4
