REMARK  Name = ZINC00173647
REMARK  2 active torsions:
REMARK  status: ('A' for Active; 'I' for Inactive)
REMARK    1  A    between atoms: C_3  and  C_13
REMARK    2  A    between atoms: C_7  and  C_11
REMARK                            x       y       z     vdW  Elec       q    Type
REMARK                         _______ _______ _______ _____ _____    ______ ____
ROOT
ATOM      1  C   UNL     1      -0.019   1.522   0.010  0.00  0.00    +0.028 C 
ATOM      2  C   UNL     1       0.002  -0.004   0.002  0.00  0.00    +0.028 C 
ATOM      3  C   UNL     1       1.435  -0.533   0.130  0.00  0.00    +0.136 C 
ATOM      4  C   UNL     1       2.218  -0.088  -1.121  0.00  0.00    +0.101 C 
ATOM      5  C   UNL     1       2.160   1.430  -1.143  0.00  0.00    +0.152 C 
ATOM      6  O   UNL     1       2.685   2.076  -2.018  0.00  0.00    -0.296 OA
ATOM      7  C   UNL     1       1.405   2.089  -0.000  0.00  0.00    +0.136 C 
ATOM      8  C   UNL     1       2.095   1.663   1.311  0.00  0.00    +0.101 C 
ATOM      9  C   UNL     1       2.076   0.144   1.330  0.00  0.00    +0.152 C 
ATOM     10  O   UNL     1       2.545  -0.488   2.245  0.00  0.00    -0.296 OA
ENDROOT
BRANCH   7  11
ATOM     11  C   UNL     1       1.387   3.589  -0.138  0.00  0.00    +0.370 C 
ATOM     12  O   UNL     1       0.334   4.176  -0.222  0.00  0.00    -0.245 OA
ATOM     13  O   UNL     1       2.541   4.275  -0.167  0.00  0.00    -0.245 OA
ENDBRANCH   7  11
BRANCH   3  14
ATOM     14  C   UNL     1       1.444  -2.032   0.288  0.00  0.00    +0.370 C 
ATOM     15  O   UNL     1       0.403  -2.645   0.299  0.00  0.00    -0.245 OA
ATOM     16  O   UNL     1       2.609  -2.686   0.415  0.00  0.00    -0.245 OA
ENDBRANCH   3  14
TORSDOF 2
