REMARK  Name = ZINC01413343
REMARK  12 active torsions:
REMARK  status: ('A' for Active; 'I' for Inactive)
REMARK    1  A    between atoms: C_1  and  C_2
REMARK    2  A    between atoms: C_5  and  C_8
REMARK    3  A    between atoms: C_10  and  C_28
REMARK    4  A    between atoms: C_11  and  O_27
REMARK    5  A    between atoms: N_14  and  C_15
REMARK    6  A    between atoms: C_15  and  C_16
REMARK    7  A    between atoms: C_16  and  C_17
REMARK    8  A    between atoms: C_20  and  O_25
REMARK    9  A    between atoms: C_21  and  O_23
REMARK   10  A    between atoms: O_23  and  C_24
REMARK   11  A    between atoms: O_25  and  C_26
REMARK   12  A    between atoms: C_28  and  C_30
REMARK                            x       y       z     vdW  Elec       q    Type
REMARK                         _______ _______ _______ _____ _____    ______ ____
ROOT
ATOM      1  C   UNL     1       3.008   2.998  -0.017  0.00  0.00    +0.145 C 
ATOM      2  C   UNL     1       1.500   2.902  -0.033  0.00  0.00    +0.074 C 
ATOM      3  C   UNL     1       1.193   1.585   0.003  0.00  0.00    +0.188 C 
ATOM      4  C   UNL     1       2.440   0.796   0.049  0.00  0.00    +0.282 C 
ATOM      5  O   UNL     1       2.497  -0.417   0.094  0.00  0.00    -0.267 OA
ATOM      6  N   UNL     1       3.505   1.618   0.031  0.00  0.00    -0.283 N 
ENDROOT
BRANCH   1  11
ATOM      7  C   UNL     1       4.882   5.625  -4.812  0.00  0.00    +0.044 C 
ATOM      8  C   UNL     1       4.393   4.939  -3.561  0.00  0.00    -0.050 A 
ATOM      9  C   UNL     1       4.407   5.613  -2.354  0.00  0.00    +0.004 A 
ATOM     10  C   UNL     1       3.958   4.985  -1.207  0.00  0.00    +0.006 A 
ATOM     11  C   UNL     1       3.496   3.683  -1.268  0.00  0.00    -0.022 A 
ATOM     12  C   UNL     1       3.488   3.008  -2.474  0.00  0.00    +0.006 A 
ATOM     13  C   UNL     1       3.931   3.638  -3.622  0.00  0.00    +0.004 A 
ENDBRANCH   1  11
BRANCH   3  14
ATOM     14  O   UNL     1      -0.060   1.072   0.003  0.00  0.00    -0.502 OA
ATOM     15  H   UNL     1      -0.011   0.073   0.034  0.00  0.00    +0.292 HD
ENDBRANCH   3  14
BRANCH   2  16
ATOM     16  C   UNL     1       0.551   4.021  -0.079  0.00  0.00    +0.230 C 
ATOM     17  O   UNL     1      -0.165   4.173  -1.052  0.00  0.00    -0.284 OA
BRANCH  16  18
ATOM     18  C   UNL     1       0.467   4.956   1.047  0.00  0.00    +0.175 A 
ATOM     19  C   UNL     1      -0.436   5.990   1.177  0.00  0.00    +0.053 A 
ATOM     20  C   UNL     1      -0.154   6.614   2.401  0.00  0.00    +0.042 A 
ATOM     21  C   UNL     1       0.891   5.957   2.953  0.00  0.00    +0.196 A 
ATOM     22  O   UNL     1       1.262   4.962   2.137  0.00  0.00    -0.460 OA
ENDBRANCH  16  18
ENDBRANCH   2  16
BRANCH   6  23
ATOM     23  C   UNL     1       4.911   1.209   0.060  0.00  0.00    +0.114 C 
BRANCH  23  24
ATOM     24  C   UNL     1       5.383   1.111   1.512  0.00  0.00    +0.054 C 
BRANCH  24  25
ATOM     25  C   UNL     1       6.830   0.689   1.542  0.00  0.00    -0.042 A 
ATOM     26  C   UNL     1       7.157  -0.653   1.593  0.00  0.00    +0.007 A 
ATOM     27  C   UNL     1       8.482  -1.045   1.615  0.00  0.00    +0.049 A 
ATOM     28  C   UNL     1       9.487  -0.091   1.598  0.00  0.00    +0.161 A 
ATOM     29  C   UNL     1       9.158   1.261   1.553  0.00  0.00    +0.162 A 
ATOM     30  C   UNL     1       7.828   1.646   1.525  0.00  0.00    +0.053 A 
BRANCH  29  31
ATOM     31  O   UNL     1      10.141   2.201   1.535  0.00  0.00    -0.491 OA
ATOM     32  C   UNL     1       9.729   3.568   1.488  0.00  0.00    +0.277 C 
ENDBRANCH  29  31
BRANCH  28  33
ATOM     33  O   UNL     1      10.791  -0.474   1.626  0.00  0.00    -0.491 OA
ATOM     34  C   UNL     1      11.054  -1.878   1.672  0.00  0.00    +0.277 C 
ENDBRANCH  28  33
ENDBRANCH  24  25
ENDBRANCH  23  24
ENDBRANCH   6  23
TORSDOF 9
