REMARK  Name = ZINC63138259
REMARK  8 active torsions:
REMARK  status: ('A' for Active; 'I' for Inactive)
REMARK    1  A    between atoms: C_1  and  O_2
REMARK    2  A    between atoms: O_2  and  C_3
REMARK    3  A    between atoms: C_7  and  C_11
REMARK    4  A    between atoms: C_8  and  O_9
REMARK    5  A    between atoms: O_9  and  C_10
REMARK    6  A    between atoms: N_30  and  C_33
REMARK    7  A    between atoms: C_33  and  C_34
REMARK    8  A    between atoms: C_34  and  C_35
REMARK                            x       y       z     vdW  Elec       q    Type
REMARK                         _______ _______ _______ _____ _____    ______ ____
ROOT
ATOM      1  C   UNL     1       2.082  -4.338  -2.529  0.00  0.00    +0.137 C 
ATOM      2  C   UNL     1       1.038  -5.188  -3.258  0.00  0.00    +0.131 C 
ATOM      3  C   UNL     1       1.699  -6.524  -3.571  0.00  0.00    -0.034 C 
ATOM      4  C   UNL     1       0.923  -7.461  -3.040  0.00  0.00    -0.001 A 
ATOM      5  C   UNL     1       0.998  -8.930  -3.073  0.00  0.00    +0.010 A 
ATOM      6  C   UNL     1       0.024  -9.596  -2.398  0.00  0.00    +0.001 A 
ATOM      7  C   UNL     1      -1.005  -8.954  -1.702  0.00  0.00    +0.002 A 
ATOM      8  C   UNL     1      -1.155  -7.608  -1.623  0.00  0.00    +0.026 A 
ATOM      9  C   UNL     1      -0.194  -6.800  -2.298  0.00  0.00    +0.043 A 
ATOM     10  N   UNL     1      -0.115  -5.487  -2.406  0.00  0.00    -0.375 N 
ATOM     11  C   UNL     1       3.027  -6.621  -4.282  0.00  0.00    +0.065 C 
ATOM     12  C   UNL     1       3.988  -5.666  -3.551  0.00  0.00    +0.167 C 
ATOM     13  N   UNL     1       3.332  -4.383  -3.321  0.00  0.00    -0.279 N 
ATOM     14  C   UNL     1       3.812  -3.229  -3.800  0.00  0.00    +0.234 C 
ATOM     15  O   UNL     1       3.181  -2.219  -3.571  0.00  0.00    -0.274 OA
ATOM     16  C   UNL     1       5.067  -3.098  -4.597  0.00  0.00    +0.203 C 
ATOM     17  N   UNL     1       5.730  -4.377  -4.793  0.00  0.00    -0.291 N 
ATOM     18  C   UNL     1       5.253  -5.532  -4.332  0.00  0.00    +0.237 C 
ATOM     19  O   UNL     1       5.891  -6.539  -4.557  0.00  0.00    -0.274 OA
ATOM     20  H   UNL     1      -0.703  -4.833  -1.998  0.00  0.00    +0.160 HD
ENDROOT
BRANCH   1  25
ATOM     21  C   UNL     1       1.643  -0.776  -1.325  0.00  0.00    +0.162 A 
ATOM     22  C   UNL     1       0.701  -0.301  -2.223  0.00  0.00    +0.049 A 
ATOM     23  C   UNL     1       0.211  -1.130  -3.214  0.00  0.00    +0.004 A 
ATOM     24  C   UNL     1       0.658  -2.435  -3.312  0.00  0.00    +0.009 A 
ATOM     25  C   UNL     1       1.598  -2.916  -2.419  0.00  0.00    +0.021 A 
ATOM     26  C   UNL     1       2.098  -2.088  -1.427  0.00  0.00    +0.166 A 
BRANCH  21  28
ATOM     27  C   UNL     1       1.615   1.372  -0.304  0.00  0.00    +0.277 C 
ATOM     28  O   UNL     1       2.127   0.038  -0.349  0.00  0.00    -0.491 OA
ENDBRANCH  21  28
BRANCH  26  29
ATOM     29  O   UNL     1       3.027  -2.557  -0.552  0.00  0.00    -0.491 OA
ATOM     30  C   UNL     1       2.545  -3.065   0.695  0.00  0.00    +0.277 C 
ENDBRANCH  26  29
ENDBRANCH   1  25
BRANCH  17  31
ATOM     31  C   UNL     1       6.988  -4.396  -5.543  0.00  0.00    +0.112 C 
BRANCH  31  32
ATOM     32  C   UNL     1       8.160  -4.212  -4.577  0.00  0.00    +0.049 C 
BRANCH  32  33
ATOM     33  C   UNL     1       9.455  -4.232  -5.348  0.00  0.00    -0.072 C 
ATOM     34  C   UNL     1       9.965  -3.098  -5.707  0.00  0.00    -0.028 C 
ATOM     35  C   UNL     1      11.240  -2.958  -6.486  0.00  0.00    +0.027 C 
ATOM     36  C   UNL     1      12.043  -4.260  -6.421  0.00  0.00    +0.004 C 
ATOM     37  C   UNL     1      11.108  -5.425  -6.769  0.00  0.00    +0.005 C 
ATOM     38  C   UNL     1      10.075  -5.565  -5.647  0.00  0.00    +0.030 C 
ENDBRANCH  32  33
ENDBRANCH  31  32
ENDBRANCH  17  31
TORSDOF 6
