REMARK  Name = ZINC39665395
REMARK  8 active torsions:
REMARK  status: ('A' for Active; 'I' for Inactive)
REMARK    1  A    between atoms: C_1  and  C_2
REMARK    2  A    between atoms: C_2  and  C_4
REMARK    3  A    between atoms: C_2  and  O_32
REMARK    4  A    between atoms: C_4  and  N_5
REMARK    5  A    between atoms: C_6  and  C_8
REMARK    6  A    between atoms: C_19  and  C_21
REMARK    7  A    between atoms: C_24  and  C_26
REMARK    8  A    between atoms: O_32  and  C_33
REMARK                            x       y       z     vdW  Elec       q    Type
REMARK                         _______ _______ _______ _____ _____    ______ ____
ROOT
ATOM      1  C   UNL     1      -3.163  -3.758  -0.533  0.00  0.00    +0.100 C 
ATOM      2  C   UNL     1      -2.533  -4.169  -1.883  0.00  0.00    +0.121 C 
ATOM      3  N   UNL     1      -3.441  -5.211  -2.418  0.00  0.00    -0.294 N 
ATOM      4  C   UNL     1      -4.800  -4.727  -2.075  0.00  0.00    +0.115 C 
ATOM      5  C   UNL     1      -4.650  -4.126  -0.663  0.00  0.00    -0.004 C 
ATOM      6  C   UNL     1      -5.034  -5.157   0.394  0.00  0.00    -0.010 C 
ATOM      7  C   UNL     1      -6.530  -5.464   0.281  0.00  0.00    -0.082 C 
ATOM      8  N   UNL     1      -7.301  -4.229   0.471  0.00  0.00    +0.379 N 
ATOM      9  C   UNL     1      -6.994  -3.277  -0.603  0.00  0.00    -0.082 C 
ATOM     10  C   UNL     1      -5.517  -2.878  -0.528  0.00  0.00    -0.010 C 
ATOM     11  C   UNL     1      -3.107  -6.342  -3.070  0.00  0.00    +0.282 C 
ATOM     12  O   UNL     1      -3.976  -7.104  -3.451  0.00  0.00    -0.267 OA
ATOM     13  H   UNL     1      -8.286  -4.444   0.457  0.00  0.00    -0.086 HD
ATOM     14  H   UNL     1      -7.061  -3.819   1.361  0.00  0.00    -0.086 HD
ENDROOT
BRANCH  11  15
ATOM     15  C   UNL     1      -1.697  -6.655  -3.320  0.00  0.00    +0.190 A 
ATOM     16  C   UNL     1      -1.220  -7.768  -3.975  0.00  0.00    +0.055 A 
ATOM     17  C   UNL     1       0.175  -7.662  -3.987  0.00  0.00    +0.050 A 
ATOM     18  C   UNL     1       0.494  -6.500  -3.345  0.00  0.00    +0.136 A 
ATOM     19  O   UNL     1      -0.641  -5.899  -2.953  0.00  0.00    -0.450 OA
BRANCH  18  20
ATOM     20  C   UNL     1       1.862  -5.987  -3.124  0.00  0.00    +0.017 A 
ATOM     21  C   UNL     1       2.965  -6.704  -3.593  0.00  0.00    +0.011 A 
ATOM     22  C   UNL     1       4.239  -6.218  -3.384  0.00  0.00    +0.001 A 
ATOM     23  C   UNL     1       4.425  -5.024  -2.711  0.00  0.00    +0.000 A 
ATOM     24  C   UNL     1       3.337  -4.309  -2.243  0.00  0.00    +0.001 A 
ATOM     25  C   UNL     1       2.057  -4.780  -2.450  0.00  0.00    +0.011 A 
ENDBRANCH  18  20
ENDBRANCH  11  15
BRANCH   1  27
ATOM     26  N   UNL     1      -2.934  -1.787   0.944  0.00  0.00    -0.312 N 
ATOM     27  C   UNL     1      -3.006  -2.276  -0.310  0.00  0.00    +0.218 C 
ATOM     28  O   UNL     1      -2.944  -1.523  -1.259  0.00  0.00    -0.275 OA
ATOM     29  H   UNL     1      -2.983  -2.389   1.703  0.00  0.00    +0.149 HD
BRANCH  26  30
ATOM     30  C   UNL     1      -2.782  -0.346   1.160  0.00  0.00    +0.148 C 
BRANCH  30  32
ATOM     31  C   UNL     1      -2.567   1.446   2.888  0.00  0.00    +0.053 C 
ATOM     32  C   UNL     1      -2.727  -0.059   2.662  0.00  0.00    +0.187 C 
BRANCH  32  33
ATOM     33  O   UNL     1      -3.936  -0.508   3.277  0.00  0.00    -0.488 OA
BRANCH  33  34
ATOM     34  C   UNL     1      -3.876  -0.821   4.598  0.00  0.00    +0.121 A 
ATOM     35  C   UNL     1      -4.981  -1.371   5.233  0.00  0.00    +0.045 A 
ATOM     36  C   UNL     1      -4.918  -1.689   6.575  0.00  0.00    +0.004 A 
ATOM     37  C   UNL     1      -3.755  -1.460   7.287  0.00  0.00    +0.000 A 
ATOM     38  C   UNL     1      -2.652  -0.912   6.658  0.00  0.00    +0.004 A 
ATOM     39  C   UNL     1      -2.709  -0.598   5.314  0.00  0.00    +0.045 A 
ENDBRANCH  33  34
ENDBRANCH  32  33
ENDBRANCH  30  32
ENDBRANCH  26  30
ENDBRANCH   1  27
TORSDOF 7
