REMARK  Name = ZINC33363711
REMARK  9 active torsions:
REMARK  status: ('A' for Active; 'I' for Inactive)
REMARK    1  A    between atoms: C_1  and  C_2
REMARK    2  A    between atoms: C_3  and  C_31
REMARK    3  A    between atoms: C_8  and  C_23
REMARK    4  A    between atoms: C_10  and  C_11
REMARK    5  A    between atoms: C_11  and  C_12
REMARK    6  A    between atoms: C_26  and  O_29
REMARK    7  A    between atoms: O_29  and  C_30
REMARK    8  A    between atoms: C_31  and  O_33
REMARK    9  A    between atoms: O_33  and  C_34
REMARK                            x       y       z     vdW  Elec       q    Type
REMARK                         _______ _______ _______ _____ _____    ______ ____
ROOT
ATOM      1  C   UNL     1      -4.601  -0.918   1.816  0.00  0.00    +0.067 C 
ATOM      2  C   UNL     1      -3.214  -1.321   1.385  0.00  0.00    +0.062 A 
ATOM      3  C   UNL     1      -2.913  -2.642   1.079  0.00  0.00    +0.120 A 
ATOM      4  S   UNL     1      -1.183  -2.493   0.654  0.00  0.00    -0.045 S 
ATOM      5  C   UNL     1      -1.033  -0.782   0.910  0.00  0.00    +0.169 A 
ATOM      6  N   UNL     1      -2.254  -0.440   1.292  0.00  0.00    -0.229 NA
ATOM      7  N   UNL     1       0.082   0.020   0.758  0.00  0.00    -0.232 N 
ATOM      8  C   UNL     1       1.408  -0.438   0.334  0.00  0.00    +0.152 C 
ATOM      9  C   UNL     1       2.301   0.780   0.312  0.00  0.00    +0.077 C 
ATOM     10  C   UNL     1       1.494   1.863   0.709  0.00  0.00    +0.250 C 
ATOM     11  O   UNL     1       1.853   3.021   0.815  0.00  0.00    -0.282 OA
ATOM     12  C   UNL     1       0.125   1.345   0.976  0.00  0.00    +0.293 C 
ATOM     13  O   UNL     1      -0.817   2.022   1.333  0.00  0.00    -0.266 OA
ENDROOT
BRANCH   8  14
ATOM     14  C   UNL     1       1.941  -1.452   1.313  0.00  0.00    -0.022 A 
ATOM     15  C   UNL     1       1.725  -1.283   2.668  0.00  0.00    +0.009 A 
ATOM     16  C   UNL     1       2.208  -2.215   3.567  0.00  0.00    +0.046 A 
ATOM     17  C   UNL     1       2.920  -3.314   3.110  0.00  0.00    +0.120 A 
ATOM     18  C   UNL     1       3.141  -3.478   1.750  0.00  0.00    +0.046 A 
ATOM     19  C   UNL     1       2.651  -2.547   0.855  0.00  0.00    +0.009 A 
BRANCH  17  20
ATOM     20  O   UNL     1       3.402  -4.228   3.993  0.00  0.00    -0.495 OA
ATOM     21  C   UNL     1       3.137  -3.994   5.378  0.00  0.00    +0.277 C 
ENDBRANCH  17  20
ENDBRANCH   8  14
BRANCH   9  22
ATOM     22  C   UNL     1       3.635   0.824  -0.028  0.00  0.00    +0.195 C 
ATOM     23  O   UNL     1       4.310  -0.323  -0.259  0.00  0.00    -0.287 OA
BRANCH  22  24
ATOM     24  C   UNL     1       4.327   2.123  -0.139  0.00  0.00    +0.025 A 
ATOM     25  C   UNL     1       3.794   3.159  -0.917  0.00  0.00    +0.031 A 
ATOM     26  C   UNL     1       4.473   4.359  -0.989  0.00  0.00    +0.111 A 
ATOM     27  N   UNL     1       5.611   4.532  -0.346  0.00  0.00    -0.263 NA
ATOM     28  C   UNL     1       6.150   3.583   0.393  0.00  0.00    +0.111 A 
ATOM     29  C   UNL     1       5.538   2.353   0.526  0.00  0.00    +0.031 A 
ENDBRANCH  22  24
ENDBRANCH   9  22
BRANCH   3  30
ATOM     30  C   UNL     1      -3.771  -3.825   1.100  0.00  0.00    +0.347 C 
ATOM     31  O   UNL     1      -4.940  -3.723   1.422  0.00  0.00    -0.244 OA
BRANCH  30  32
ATOM     32  O   UNL     1      -3.267  -5.030   0.761  0.00  0.00    -0.464 OA
ATOM     33  C   UNL     1      -4.163  -6.142   0.803  0.00  0.00    +0.280 C 
ENDBRANCH  30  32
ENDBRANCH   3  30
TORSDOF 6
