REMARK  Name = ZINC39708689
REMARK  9 active torsions:
REMARK  status: ('A' for Active; 'I' for Inactive)
REMARK    1  A    between atoms: C_1  and  C_2
REMARK    2  A    between atoms: C_5  and  O_8
REMARK    3  A    between atoms: O_8  and  C_9
REMARK    4  A    between atoms: C_9  and  C_10
REMARK    5  A    between atoms: C_13  and  S_23
REMARK    6  A    between atoms: N_15  and  C_16
REMARK    7  A    between atoms: C_16  and  C_17
REMARK    8  A    between atoms: S_23  and  C_24
REMARK    9  A    between atoms: C_24  and  C_25
REMARK                            x       y       z     vdW  Elec       q    Type
REMARK                         _______ _______ _______ _____ _____    ______ ____
ROOT
ATOM      1  C   UNL     1      -0.060  -6.253   0.820  0.00  0.00    +0.156 C 
ATOM      2  N   UNL     1       0.026  -6.793  -0.340  0.00  0.00    -0.170 NA
ATOM      3  N   UNL     1       0.097  -8.189  -0.255  0.00  0.00    -0.238 N 
ATOM      4  C   UNL     1       0.044  -8.514   1.181  0.00  0.00    +0.237 C 
ATOM      5  N   UNL     1      -0.053  -7.197   1.835  0.00  0.00    -0.282 N 
ATOM      6  H   UNL     1       0.167  -8.816  -0.992  0.00  0.00    +0.171 HD
ENDROOT
BRANCH   1   7
ATOM      7  C   UNL     1      -0.151  -4.767   1.052  0.00  0.00    +0.302 C 
BRANCH   7   8
ATOM      8  O   UNL     1      -0.133  -4.086  -0.204  0.00  0.00    -0.485 OA
BRANCH   8  13
ATOM      9  C   UNL     1      -0.447   1.536  -0.072  0.00  0.00    +0.044 C 
ATOM     10  C   UNL     1      -0.363   0.032  -0.107  0.00  0.00    -0.050 A 
ATOM     11  C   UNL     1      -0.272  -0.626  -1.320  0.00  0.00    +0.007 A 
ATOM     12  C   UNL     1      -0.195  -2.005  -1.355  0.00  0.00    +0.046 A 
ATOM     13  C   UNL     1      -0.208  -2.730  -0.172  0.00  0.00    +0.121 A 
ATOM     14  C   UNL     1      -0.298  -2.067   1.043  0.00  0.00    +0.046 A 
ATOM     15  C   UNL     1      -0.370  -0.688   1.073  0.00  0.00    +0.007 A 
ENDBRANCH   8  13
ENDBRANCH   7   8
ENDBRANCH   1   7
BRANCH   5  16
ATOM     16  C   UNL     1      -0.130  -6.937   3.274  0.00  0.00    +0.144 C 
BRANCH  16  17
ATOM     17  C   UNL     1      -1.564  -7.037   3.727  0.00  0.00    -0.030 A 
ATOM     18  C   UNL     1      -2.406  -5.948   3.601  0.00  0.00    +0.005 A 
ATOM     19  C   UNL     1      -3.721  -6.040   4.016  0.00  0.00    +0.000 A 
ATOM     20  C   UNL     1      -4.195  -7.220   4.557  0.00  0.00    +0.000 A 
ATOM     21  C   UNL     1      -3.353  -8.310   4.682  0.00  0.00    +0.000 A 
ATOM     22  C   UNL     1      -2.039  -8.219   4.263  0.00  0.00    +0.005 A 
ENDBRANCH  16  17
ENDBRANCH   5  16
BRANCH   4  23
ATOM     23  S   UNL     1      -1.413  -9.529   1.551  0.00  0.00    -0.114 S 
BRANCH  23  24
ATOM     24  C   UNL     1      -0.979 -11.170   0.912  0.00  0.00    +0.104 C 
BRANCH  24  25
ATOM     25  C   UNL     1      -2.066 -12.151   1.267  0.00  0.00    -0.042 C 
ATOM     26  C   UNL     1      -3.083 -12.427   0.402  0.00  0.00    -0.003 A 
ATOM     27  C   UNL     1      -3.153 -11.775  -0.906  0.00  0.00    +0.010 A 
ATOM     28  C   UNL     1      -4.185 -12.081  -1.735  0.00  0.00    +0.001 A 
ATOM     29  C   UNL     1      -5.170 -12.996  -1.363  0.00  0.00    +0.002 A 
ATOM     30  C   UNL     1      -5.162 -13.633  -0.163  0.00  0.00    +0.024 A 
ATOM     31  C   UNL     1      -4.137 -13.389   0.769  0.00  0.00    +0.041 A 
ATOM     32  N   UNL     1      -4.139 -14.021   1.942  0.00  0.00    -0.285 N 
ATOM     33  C   UNL     1      -3.208 -13.838   2.863  0.00  0.00    +0.221 C 
ATOM     34  O   UNL     1      -3.263 -14.443   3.917  0.00  0.00    -0.275 OA
ATOM     35  C   UNL     1      -2.070 -12.877   2.598  0.00  0.00    +0.128 C 
ATOM     36  H   UNL     1      -4.858 -14.644   2.130  0.00  0.00    +0.155 HD
ENDBRANCH  24  25
ENDBRANCH  23  24
ENDBRANCH   4  23
TORSDOF 8
