REMARK  Name = ZINC39711531
REMARK  10 active torsions:
REMARK  status: ('A' for Active; 'I' for Inactive)
REMARK    1  A    between atoms: C_1  and  C_2
REMARK    2  A    between atoms: C_2  and  O_3
REMARK    3  A    between atoms: O_3  and  C_4
REMARK    4  A    between atoms: C_11  and  C_16
REMARK    5  A    between atoms: C_16  and  C_18
REMARK    6  A    between atoms: C_16  and  N_28
REMARK    7  A    between atoms: N_23  and  C_24
REMARK    8  A    between atoms: C_24  and  C_25
REMARK    9  A    between atoms: C_24  and  C_26
REMARK   10  A    between atoms: C_24  and  C_27
REMARK                            x       y       z     vdW  Elec       q    Type
REMARK                         _______ _______ _______ _____ _____    ______ ____
ROOT
ATOM      1  C   UNL     1      -5.010  -6.348   1.236  0.00  0.00    +0.131 C 
ENDROOT
BRANCH   1   9
ATOM      2  C   UNL     1      -1.351  -2.296  -0.834  0.00  0.00    +0.121 A 
ATOM      3  C   UNL     1      -0.263  -3.174  -0.758  0.00  0.00    +0.047 A 
ATOM      4  C   UNL     1      -0.411  -4.506  -0.546  0.00  0.00    +0.027 A 
ATOM      5  C   UNL     1      -1.693  -5.068  -0.391  0.00  0.00    +0.041 A 
ATOM      6  N   UNL     1      -1.823  -6.378  -0.183  0.00  0.00    -0.284 N 
ATOM      7  C   UNL     1      -2.995  -6.972  -0.029  0.00  0.00    +0.226 C 
ATOM      8  O   UNL     1      -3.051  -8.173   0.159  0.00  0.00    -0.275 OA
ATOM      9  C   UNL     1      -4.264  -6.152  -0.086  0.00  0.00    +0.122 C 
ATOM     10  C   UNL     1      -4.121  -4.662  -0.322  0.00  0.00    -0.003 C 
ATOM     11  C   UNL     1      -2.858  -4.170  -0.465  0.00  0.00    -0.003 A 
ATOM     12  C   UNL     1      -2.630  -2.742  -0.690  0.00  0.00    +0.055 A 
ATOM     13  H   UNL     1      -1.021  -6.922  -0.143  0.00  0.00    +0.155 HD
BRANCH   2  14
ATOM     14  O   UNL     1      -1.127  -0.973  -1.049  0.00  0.00    -0.492 OA
BRANCH  14  16
ATOM     15  C   UNL     1       0.287   0.951  -1.425  0.00  0.00    +0.048 C 
ATOM     16  C   UNL     1       0.234  -0.560  -1.192  0.00  0.00    +0.225 C 
ENDBRANCH  14  16
ENDBRANCH   2  14
ENDBRANCH   1   9
BRANCH   1  17
ATOM     17  N   UNL     1      -6.183  -5.471   1.269  0.00  0.00    -0.322 N 
ATOM     18  C   UNL     1      -7.180  -5.517   0.191  0.00  0.00    +0.106 C 
ATOM     19  C   UNL     1      -7.526  -4.072  -0.190  0.00  0.00    +0.024 C 
ATOM     20  C   UNL     1      -8.168  -3.384   1.015  0.00  0.00    +0.038 C 
ATOM     21  C   UNL     1      -7.313  -3.562   2.242  0.00  0.00    -0.026 A 
ATOM     22  C   UNL     1      -6.375  -4.581   2.331  0.00  0.00    +0.033 A 
ATOM     23  C   UNL     1      -5.608  -4.724   3.482  0.00  0.00    +0.023 A 
ATOM     24  C   UNL     1      -5.780  -3.853   4.540  0.00  0.00    +0.002 A 
ATOM     25  C   UNL     1      -6.716  -2.839   4.453  0.00  0.00    +0.000 A 
ATOM     26  C   UNL     1      -7.475  -2.688   3.304  0.00  0.00    +0.005 A 
ENDBRANCH   1  17
BRANCH   1  27
ATOM     27  C   UNL     1      -5.458  -7.805   1.357  0.00  0.00    +0.239 C 
ATOM     28  N   UNL     1      -6.378  -8.152   0.265  0.00  0.00    -0.148 NA
ATOM     29  N   UNL     1      -7.465  -8.475   0.747  0.00  0.00    -0.069 NA
ATOM     30  N   UNL     1      -7.482  -8.412   2.139  0.00  0.00    -0.179 N 
ATOM     31  N   UNL     1      -6.252  -8.000   2.589  0.00  0.00    -0.179 NA
ATOM     32  H   UNL     1      -8.243  -8.626   2.702  0.00  0.00    +0.191 HD
BRANCH  31  33
ATOM     33  C   UNL     1      -5.639  -9.014   3.456  0.00  0.00    +0.035 C 
ATOM     34  C   UNL     1      -4.229  -8.566   3.847  0.00  0.00    +0.029 C 
ATOM     35  C   UNL     1      -6.487  -9.187   4.718  0.00  0.00    +0.029 C 
ATOM     36  C   UNL     1      -5.561 -10.346   2.707  0.00  0.00    +0.029 C 
ENDBRANCH  31  33
ENDBRANCH   1  27
TORSDOF 6
