REMARK  Name = ZINC23467580
REMARK  14 active torsions:
REMARK  status: ('A' for Active; 'I' for Inactive)
REMARK    1  A    between atoms: C_1  and  C_2
REMARK    2  A    between atoms: C_2  and  C_3
REMARK    3  A    between atoms: C_8  and  C_9
REMARK    4  A    between atoms: C_9  and  C_11
REMARK    5  A    between atoms: C_9  and  N_16
REMARK    6  A    between atoms: C_11  and  C_12
REMARK    7  A    between atoms: C_12  and  O_14
REMARK    8  A    between atoms: O_14  and  C_15
REMARK    9  A    between atoms: N_16  and  C_17
REMARK   10  A    between atoms: N_27  and  C_28
REMARK   11  A    between atoms: C_28  and  C_30
REMARK   12  A    between atoms: C_28  and  C_31
REMARK   13  A    between atoms: C_31  and  C_32
REMARK   14  A    between atoms: C_32  and  C_33
REMARK                            x       y       z     vdW  Elec       q    Type
REMARK                         _______ _______ _______ _____ _____    ______ ____
ROOT
ATOM      1  C   UNL     1       2.403   2.566   1.402  0.00  0.00    +0.047 C 
ATOM      2  C   UNL     1       3.638   3.193   0.811  0.00  0.00    -0.058 C 
ATOM      3  C   UNL     1       3.793   2.690  -0.414  0.00  0.00    +0.014 C 
ATOM      4  C   UNL     1       4.924   3.070  -1.341  0.00  0.00    +0.040 C 
ATOM      5  C   UNL     1       5.555   4.370  -0.832  0.00  0.00    +0.005 C 
ATOM      6  C   UNL     1       5.868   4.236   0.661  0.00  0.00    +0.005 C 
ATOM      7  C   UNL     1       4.554   4.202   1.452  0.00  0.00    +0.031 C 
ATOM      8  C   UNL     1       2.716   1.735  -0.689  0.00  0.00    +0.242 C 
ATOM      9  O   UNL     1       2.589   1.108  -1.723  0.00  0.00    -0.270 OA
ATOM     10  N   UNL     1       1.886   1.656   0.369  0.00  0.00    -0.305 N 
ENDROOT
BRANCH   1  11
ATOM     11  N   UNL     1       2.745   1.814   2.616  0.00  0.00    +0.399 N 
ATOM     12  H   UNL     1       3.734   1.352   2.478  0.00  0.00    -0.082 HD
ATOM     13  H   UNL     1       1.991   1.028   2.768  0.00  0.00    -0.082 HD
BRANCH  11  14
ATOM     14  C   UNL     1       2.777   2.696   3.791  0.00  0.00    -0.027 C 
BRANCH  14  20
ATOM     15  C   UNL     1       1.115   4.241   4.846  0.00  0.00    -0.046 A 
ATOM     16  C   UNL     1      -0.178   4.567   5.212  0.00  0.00    +0.004 A 
ATOM     17  C   UNL     1      -1.218   3.704   4.921  0.00  0.00    +0.000 A 
ATOM     18  C   UNL     1      -0.964   2.514   4.264  0.00  0.00    +0.000 A 
ATOM     19  C   UNL     1       0.327   2.190   3.894  0.00  0.00    +0.002 A 
ATOM     20  C   UNL     1       1.368   3.051   4.190  0.00  0.00    -0.058 A 
BRANCH  15  22
ATOM     21  C   UNL     1       2.520   6.078   3.953  0.00  0.00    +0.009 C 
ATOM     22  C   UNL     1       2.248   5.182   5.163  0.00  0.00    +0.032 C 
ENDBRANCH  15  22
ENDBRANCH  14  20
BRANCH  14  23
ATOM     23  C   UNL     1       3.469   1.977   4.950  0.00  0.00    +0.109 C 
BRANCH  23  24
ATOM     24  C   UNL     1       4.920   1.755   4.609  0.00  0.00    +0.306 C 
ATOM     25  O   UNL     1       5.375   2.203   3.583  0.00  0.00    -0.251 OA
BRANCH  24  26
ATOM     26  O   UNL     1       5.707   1.059   5.444  0.00  0.00    -0.468 OA
ATOM     27  C   UNL     1       7.094   0.885   5.051  0.00  0.00    +0.280 C 
ENDBRANCH  24  26
ENDBRANCH  23  24
ENDBRANCH  14  23
ENDBRANCH  11  14
ENDBRANCH   1  11
BRANCH  10  28
ATOM     28  C   UNL     1       0.693   0.813   0.474  0.00  0.00    +0.072 C 
ATOM     29  C   UNL     1      -0.299   1.194  -0.627  0.00  0.00    +0.028 C 
BRANCH  28  30
ATOM     30  C   UNL     1       1.090  -0.656   0.317  0.00  0.00    +0.027 C 
BRANCH  30  31
ATOM     31  C   UNL     1       1.975  -1.073   1.494  0.00  0.00    +0.037 C 
BRANCH  31  32
ATOM     32  C   UNL     1       2.439  -2.493   1.294  0.00  0.00    -0.047 A 
ATOM     33  C   UNL     1       1.743  -3.536   1.877  0.00  0.00    +0.003 A 
ATOM     34  C   UNL     1       2.166  -4.839   1.690  0.00  0.00    +0.000 A 
ATOM     35  C   UNL     1       3.290  -5.098   0.929  0.00  0.00    +0.000 A 
ATOM     36  C   UNL     1       3.989  -4.055   0.350  0.00  0.00    +0.000 A 
ATOM     37  C   UNL     1       3.563  -2.753   0.533  0.00  0.00    +0.003 A 
ENDBRANCH  31  32
ENDBRANCH  30  31
ENDBRANCH  28  30
ENDBRANCH  10  28
TORSDOF 11
