REMARK  Name = ZINC38546301
REMARK  12 active torsions:
REMARK  status: ('A' for Active; 'I' for Inactive)
REMARK    1  A    between atoms: C_1  and  C_2
REMARK    2  A    between atoms: C_2  and  C_3
REMARK    3  A    between atoms: C_5  and  C_16
REMARK    4  A    between atoms: C_6  and  N_8
REMARK    5  A    between atoms: C_9  and  C_11
REMARK    6  A    between atoms: C_16  and  C_18
REMARK    7  A    between atoms: C_16  and  N_28
REMARK    8  A    between atoms: C_22  and  O_26
REMARK    9  A    between atoms: C_23  and  O_24
REMARK   10  A    between atoms: O_24  and  C_25
REMARK   11  A    between atoms: O_26  and  C_27
REMARK   12  A    between atoms: C_31  and  C_34
REMARK                            x       y       z     vdW  Elec       q    Type
REMARK                         _______ _______ _______ _____ _____    ______ ____
ROOT
ATOM      1  C   UNL     1      -4.153  -1.335  -2.108  0.00  0.00    -0.001 C 
ENDROOT
BRANCH   1   2
ATOM      2  N   UNL     1      -3.080  -1.212  -3.104  0.00  0.00    +0.387 N 
ATOM      3  C   UNL     1      -3.668  -1.129  -4.447  0.00  0.00    -0.077 C 
ATOM      4  C   UNL     1      -2.560  -0.919  -5.481  0.00  0.00    -0.015 C 
ATOM      5  C   UNL     1      -1.585  -2.098  -5.422  0.00  0.00    -0.018 C 
ATOM      6  C   UNL     1      -1.034  -2.221  -3.998  0.00  0.00    -0.015 C 
ATOM      7  C   UNL     1      -2.198  -2.382  -3.018  0.00  0.00    -0.077 C 
ATOM      8  C   UNL     1      -0.431  -1.857  -6.397  0.00  0.00    +0.007 C 
ATOM      9  H   UNL     1      -2.546  -0.376  -2.921  0.00  0.00    -0.080 HD
ENDBRANCH   1   2
BRANCH   1  10
ATOM     10  C   UNL     1      -5.120  -0.190  -2.267  0.00  0.00    -0.011 A 
ATOM     11  C   UNL     1      -4.957   0.962  -1.520  0.00  0.00    +0.006 A 
ATOM     12  C   UNL     1      -5.842   2.014  -1.663  0.00  0.00    +0.004 A 
ATOM     13  C   UNL     1      -6.894   1.919  -2.555  0.00  0.00    +0.049 A 
ATOM     14  C   UNL     1      -7.063   0.768  -3.307  0.00  0.00    +0.162 A 
ATOM     15  C   UNL     1      -6.168  -0.289  -3.167  0.00  0.00    +0.163 A 
BRANCH  15  16
ATOM     16  O   UNL     1      -6.326  -1.419  -3.907  0.00  0.00    -0.491 OA
ATOM     17  C   UNL     1      -7.234  -2.401  -3.405  0.00  0.00    +0.277 C 
ENDBRANCH  15  16
BRANCH  14  18
ATOM     18  O   UNL     1      -8.098   0.673  -4.185  0.00  0.00    -0.491 OA
ATOM     19  C   UNL     1      -8.973   1.798  -4.280  0.00  0.00    +0.277 C 
ENDBRANCH  14  18
ENDBRANCH   1  10
BRANCH   1  22
ATOM     20  C   UNL     1      -1.855  -0.640   0.770  0.00  0.00    -0.008 A 
ATOM     21  C   UNL     1      -2.361  -0.651  -0.486  0.00  0.00    +0.015 A 
ATOM     22  C   UNL     1      -3.558  -1.302  -0.724  0.00  0.00    -0.028 A 
ATOM     23  C   UNL     1      -4.191  -1.912   0.318  0.00  0.00    +0.074 A 
ATOM     24  S   UNL     1      -3.079  -1.575   1.673  0.00  0.00    -0.078 S 
BRANCH  23  25
ATOM     25  N   UNL     1      -5.394  -2.621   0.322  0.00  0.00    -0.273 N 
ATOM     26  C   UNL     1      -5.915  -3.056   1.487  0.00  0.00    +0.284 C 
ATOM     27  O   UNL     1      -5.388  -2.753   2.541  0.00  0.00    -0.266 OA
ATOM     28  H   UNL     1      -5.855  -2.800  -0.512  0.00  0.00    +0.156 HD
BRANCH  26  29
ATOM     29  C   UNL     1      -7.117  -3.897   1.483  0.00  0.00    +0.189 A 
ATOM     30  C   UNL     1      -7.748  -4.399   2.585  0.00  0.00    +0.054 A 
ATOM     31  C   UNL     1      -8.845  -5.139   2.119  0.00  0.00    +0.042 A 
ATOM     32  C   UNL     1      -8.836  -5.058   0.770  0.00  0.00    +0.196 A 
ATOM     33  O   UNL     1      -7.796  -4.304   0.391  0.00  0.00    -0.458 OA
ENDBRANCH  26  29
ENDBRANCH  23  25
BRANCH  20  35
ATOM     34  C   UNL     1      -0.874   1.425   1.730  0.00  0.00    +0.009 C 
ATOM     35  C   UNL     1      -0.584  -0.007   1.274  0.00  0.00    +0.039 C 
ENDBRANCH  20  35
ENDBRANCH   1  22
TORSDOF 8
