REMARK  Name = ZINC02992472
REMARK  10 active torsions:
REMARK  status: ('A' for Active; 'I' for Inactive)
REMARK    1  A    between atoms: C_1  and  C_2
REMARK    2  A    between atoms: C_2  and  O_3
REMARK    3  A    between atoms: O_3  and  C_4
REMARK    4  A    between atoms: C_4  and  C_6
REMARK    5  A    between atoms: C_7  and  C_37
REMARK    6  A    between atoms: C_14  and  C_15
REMARK    7  A    between atoms: C_20  and  O_21
REMARK    8  A    between atoms: C_23  and  C_25
REMARK    9  A    between atoms: C_34  and  O_35
REMARK   10  A    between atoms: O_35  and  C_36
REMARK                            x       y       z     vdW  Elec       q    Type
REMARK                         _______ _______ _______ _____ _____    ______ ____
ROOT
ATOM      1  C   UNL     1      -1.163   4.515   1.945  0.00  0.00    +0.085 C 
ATOM      2  C   UNL     1      -2.013   5.050   2.872  0.00  0.00    +0.053 C 
ATOM      3  N   UNL     1      -2.146   6.366   2.985  0.00  0.00    -0.228 NA
ATOM      4  C   UNL     1      -1.515   7.246   2.250  0.00  0.00    +0.178 A 
ATOM      5  N   UNL     1      -0.620   6.921   1.257  0.00  0.00    -0.275 N 
ATOM      6  C   UNL     1      -0.036   7.911   0.569  0.00  0.00    +0.268 A 
ATOM      7  O   UNL     1       0.762   7.671  -0.318  0.00  0.00    -0.266 OA
ATOM      8  C   UNL     1      -0.387   9.294   0.918  0.00  0.00    +0.081 A 
ATOM      9  C   UNL     1       0.058  10.460   0.380  0.00  0.00    +0.032 C 
ATOM     10  S   UNL     1      -1.558   9.028   2.240  0.00  0.00    -0.046 S 
ATOM     11  C   UNL     1      -0.395   5.462   1.053  0.00  0.00    +0.166 C 
ATOM     12  C   UNL     1      -2.802   4.139   3.777  0.00  0.00    +0.066 C 
ENDROOT
BRANCH  11  13
ATOM     13  C   UNL     1      -0.741   5.136  -0.377  0.00  0.00    +0.029 A 
ATOM     14  C   UNL     1       0.205   4.516  -1.209  0.00  0.00    -0.009 A 
ATOM     15  C   UNL     1       1.488   4.187  -0.736  0.00  0.00    +0.009 A 
ATOM     16  C   UNL     1       2.380   3.588  -1.570  0.00  0.00    +0.001 A 
ATOM     17  C   UNL     1       2.043   3.293  -2.890  0.00  0.00    +0.001 A 
ATOM     18  C   UNL     1       0.807   3.587  -3.380  0.00  0.00    +0.008 A 
ATOM     19  C   UNL     1      -0.139   4.212  -2.550  0.00  0.00    -0.017 A 
ATOM     20  C   UNL     1      -1.419   4.546  -3.027  0.00  0.00    +0.012 A 
ATOM     21  C   UNL     1      -2.311   5.150  -2.198  0.00  0.00    +0.046 A 
ATOM     22  C   UNL     1      -1.976   5.446  -0.873  0.00  0.00    +0.126 A 
BRANCH  22  23
ATOM     23  O   UNL     1      -2.889   6.050  -0.069  0.00  0.00    -0.495 OA
ATOM     24  C   UNL     1      -4.162   6.349  -0.644  0.00  0.00    +0.277 C 
ENDBRANCH  22  23
ENDBRANCH  11  13
BRANCH   9  25
ATOM     25  C   UNL     1      -0.553  11.732   0.781  0.00  0.00    +0.018 A 
ATOM     26  C   UNL     1      -1.844  11.755   1.321  0.00  0.00    +0.011 A 
ATOM     27  C   UNL     1      -2.410  12.954   1.695  0.00  0.00    +0.001 A 
ATOM     28  C   UNL     1      -1.708  14.139   1.538  0.00  0.00    +0.004 A 
ATOM     29  C   UNL     1      -0.433  14.132   1.006  0.00  0.00    +0.046 A 
ATOM     30  C   UNL     1       0.157  12.936   0.629  0.00  0.00    +0.124 A 
BRANCH  30  31
ATOM     31  O   UNL     1       1.411  12.927   0.112  0.00  0.00    -0.506 OA
ATOM     32  H   UNL     1       1.441  13.019  -0.850  0.00  0.00    +0.292 HD
ENDBRANCH  30  31
ENDBRANCH   9  25
BRANCH   1  33
ATOM     33  C   UNL     1      -1.013   3.124   1.821  0.00  0.00    +0.339 C 
ATOM     34  O   UNL     1      -1.558   2.379   2.616  0.00  0.00    -0.245 OA
BRANCH  33  35
ATOM     35  O   UNL     1      -0.264   2.612   0.820  0.00  0.00    -0.462 OA
BRANCH  35  37
ATOM     36  C   UNL     1       0.726   0.799  -0.434  0.00  0.00    +0.048 C 
ATOM     37  C   UNL     1      -0.154   1.189   0.755  0.00  0.00    +0.229 C 
ENDBRANCH  35  37
ENDBRANCH  33  35
ENDBRANCH   1  33
TORSDOF 7
