REMARK  Name = ZINC02075252
REMARK  11 active torsions:
REMARK  status: ('A' for Active; 'I' for Inactive)
REMARK    1  A    between atoms: C_1  and  C_2
REMARK    2  A    between atoms: C_2  and  N_65
REMARK    3  A    between atoms: C_3  and  C_4
REMARK    4  A    between atoms: C_3  and  N_65
REMARK    5  A    between atoms: C_5  and  C_6
REMARK    6  A    between atoms: C_5  and  N_65
REMARK    7  A    between atoms: C_6  and  N_7
REMARK    8  A    between atoms: N_7  and  C_8
REMARK    9  A    between atoms: C_20  and  C_23
REMARK   10  A    between atoms: C_24  and  C_26
REMARK   11  A    between atoms: C_29  and  N_32
REMARK                            x       y       z     vdW  Elec       q    Type
REMARK                         _______ _______ _______ _____ _____    ______ ____
ROOT
ATOM      1  N   UNL     1      -0.517  -3.581  -2.468  0.00  0.00    -0.291 N 
ATOM      2  C   UNL     1      -0.054  -4.568  -1.675  0.00  0.00    +0.247 C 
ATOM      3  O   UNL     1      -0.517  -5.688  -1.766  0.00  0.00    -0.270 OA
ENDROOT
BRANCH   1   4
ATOM      4  C   UNL     1      -1.645  -3.834  -3.369  0.00  0.00    +0.123 C 
ATOM      5  C   UNL     1      -1.279  -4.953  -4.350  0.00  0.00    +0.029 C 
ATOM      6  C   UNL     1      -2.531  -5.385  -5.119  0.00  0.00    +0.007 C 
ATOM      7  C   UNL     1      -3.481  -6.123  -4.168  0.00  0.00    +0.037 C 
ATOM      8  C   UNL     1      -3.659  -5.289  -2.925  0.00  0.00    -0.017 A 
ATOM      9  C   UNL     1      -2.847  -4.271  -2.566  0.00  0.00    +0.041 A 
ATOM     10  N   UNL     1      -3.285  -3.721  -1.389  0.00  0.00    -0.356 N 
ATOM     11  H   UNL     1      -2.865  -2.975  -0.932  0.00  0.00    +0.166 HD
ATOM     12  C   UNL     1      -4.399  -4.381  -0.957  0.00  0.00    +0.047 A 
ATOM     13  C   UNL     1      -4.683  -5.397  -1.906  0.00  0.00    +0.003 A 
ATOM     14  C   UNL     1      -5.775  -6.255  -1.746  0.00  0.00    +0.013 A 
ATOM     15  C   UNL     1      -6.554  -6.066  -0.630  0.00  0.00    -0.050 A 
ATOM     16  C   UNL     1      -6.281  -5.076   0.299  0.00  0.00    +0.005 A 
ATOM     17  C   UNL     1      -5.207  -4.213   0.165  0.00  0.00    +0.026 A 
ATOM     18  C   UNL     1      -7.744  -6.964  -0.411  0.00  0.00    +0.044 C 
ENDBRANCH   1   4
BRANCH   2  19
ATOM     19  C   UNL     1       1.017  -4.287  -0.696  0.00  0.00    +0.037 A 
ATOM     20  C   UNL     1       1.137  -3.016  -0.133  0.00  0.00    +0.015 A 
ATOM     21  C   UNL     1       2.136  -2.762   0.785  0.00  0.00    +0.033 A 
ATOM     22  C   UNL     1       3.024  -3.762   1.139  0.00  0.00    +0.126 A 
ATOM     23  C   UNL     1       2.914  -5.023   0.581  0.00  0.00    +0.033 A 
ATOM     24  C   UNL     1       1.917  -5.292  -0.334  0.00  0.00    +0.015 A 
BRANCH  22  25
ATOM     25  N   UNL     1       4.097  -3.481   2.119  0.00  0.00    +0.056 N 
ATOM     26  O   UNL     1       4.880  -4.360   2.433  0.00  0.00    -0.126 OA
ATOM     27  O   UNL     1       4.196  -2.372   2.612  0.00  0.00    -0.126 OA
ENDBRANCH  22  25
ENDBRANCH   2  19
BRANCH   1  28
ATOM     28  C   UNL     1       0.107  -2.256  -2.429  0.00  0.00    +0.090 C 
BRANCH  28  29
ATOM     29  C   UNL     1      -0.903  -1.232  -1.907  0.00  0.00    -0.060 C 
BRANCH  29  30
ATOM     30  N   UNL     1      -0.492   0.114  -2.358  0.00  0.00    +0.380 N 
ATOM     31  H   UNL     1      -0.294   0.083  -3.366  0.00  0.00    -0.082 HD
BRANCH  30  33
ATOM     32  C   UNL     1       0.445   0.712  -0.150  0.00  0.00    -0.017 C 
ATOM     33  C   UNL     1       0.731   0.535  -1.643  0.00  0.00    -0.082 C 
ENDBRANCH  30  33
BRANCH  30  34
ATOM     34  C   UNL     1      -1.580   1.083  -2.112  0.00  0.00    -0.082 C 
ATOM     35  C   UNL     1      -1.234   2.400  -2.811  0.00  0.00    -0.017 C 
ENDBRANCH  30  34
ENDBRANCH  29  30
ENDBRANCH  28  29
ENDBRANCH   1  28
TORSDOF 8
