REMARK  Name = ZINC09130585
REMARK  8 active torsions:
REMARK  status: ('A' for Active; 'I' for Inactive)
REMARK    1  A    between atoms: C_1  and  N_2
REMARK    2  A    between atoms: N_2  and  C_3
REMARK    3  A    between atoms: N_2  and  S_20
REMARK    4  A    between atoms: C_3  and  C_4
REMARK    5  A    between atoms: N_6  and  C_7
REMARK    6  A    between atoms: C_7  and  C_8
REMARK    7  A    between atoms: C_10  and  C_13
REMARK    8  A    between atoms: S_20  and  C_23
REMARK                            x       y       z     vdW  Elec       q    Type
REMARK                         _______ _______ _______ _____ _____    ______ ____
ROOT
ATOM      1  C   UNL     1      -1.589  -2.202   2.211  0.00  0.00    +0.229 C 
ATOM      2  O   UNL     1      -0.862  -2.971   1.619  0.00  0.00    -0.274 OA
ATOM      3  N   UNL     1      -2.714  -2.657   2.798  0.00  0.00    -0.305 N 
ATOM      4  H   UNL     1      -3.296  -2.042   3.272  0.00  0.00    +0.149 HD
ENDROOT
BRANCH   1   5
ATOM      5  C   UNL     1      -1.235  -0.740   2.292  0.00  0.00    +0.204 C 
BRANCH   5   7
ATOM      6  C   UNL     1       1.302  -0.705   2.268  0.00  0.00    +0.132 C 
ATOM      7  N   UNL     1       0.024  -0.502   1.581  0.00  0.00    -0.171 NA
BRANCH   7   8
ATOM      8  S   UNL     1       0.002  -0.004   0.002  0.00  0.00    +0.061 S 
ATOM      9  O   UNL     1      -1.243  -0.424  -0.539  0.00  0.00    -0.153 OA
ATOM     10  O   UNL     1       1.248  -0.390  -0.563  0.00  0.00    -0.153 OA
BRANCH   8  11
ATOM     11  C   UNL     1      -0.022   1.758   0.012  0.00  0.00    +0.105 A 
ATOM     12  C   UNL     1      -1.228   2.433   0.021  0.00  0.00    +0.028 A 
ATOM     13  C   UNL     1      -1.247   3.815   0.034  0.00  0.00    +0.002 A 
ATOM     14  C   UNL     1      -0.059   4.522   0.026  0.00  0.00    +0.000 A 
ATOM     15  C   UNL     1       1.147   3.847   0.011  0.00  0.00    +0.002 A 
ATOM     16  C   UNL     1       1.166   2.465   0.004  0.00  0.00    +0.028 A 
ENDBRANCH   8  11
ENDBRANCH   7   8
ENDBRANCH   5   7
ENDBRANCH   1   5
BRANCH   3  17
ATOM     17  C   UNL     1      -3.058  -4.079   2.719  0.00  0.00    +0.203 C 
BRANCH  17  18
ATOM     18  C   UNL     1      -4.354  -4.323   3.450  0.00  0.00    +0.245 A 
ATOM     19  N   UNL     1      -5.558  -4.270   2.938  0.00  0.00    -0.190 NA
ATOM     20  C   UNL     1      -6.399  -4.557   3.957  0.00  0.00    +0.202 A 
ATOM     21  N   UNL     1      -5.663  -4.765   5.018  0.00  0.00    -0.056 NA
ATOM     22  O   UNL     1      -4.489  -4.640   4.742  0.00  0.00    -0.336 OA
BRANCH  20  23
ATOM     23  C   UNL     1      -7.880  -4.623   3.885  0.00  0.00    +0.023 A 
ATOM     24  C   UNL     1      -8.533  -4.371   2.681  0.00  0.00    +0.013 A 
ATOM     25  C   UNL     1      -9.910  -4.439   2.618  0.00  0.00    +0.021 A 
ATOM     26  C   UNL     1     -10.643  -4.747   3.752  0.00  0.00    +0.041 A 
ATOM     27  C   UNL     1      -9.998  -4.993   4.952  0.00  0.00    +0.021 A 
ATOM     28  C   UNL     1      -8.621  -4.933   5.024  0.00  0.00    +0.013 A 
ATOM     29 CL   UNL     1     -12.375  -4.824   3.668  0.00  0.00    -0.084 Cl
ENDBRANCH  20  23
ENDBRANCH  17  18
ENDBRANCH   3  17
TORSDOF 7
