REMARK  Name = ZINC35671845
REMARK  12 active torsions:
REMARK  status: ('A' for Active; 'I' for Inactive)
REMARK    1  A    between atoms: C_1  and  C_2
REMARK    2  A    between atoms: C_2  and  N_3
REMARK    3  A    between atoms: N_6  and  C_7
REMARK    4  A    between atoms: N_6  and  C_11
REMARK    5  A    between atoms: C_7  and  C_8
REMARK    6  A    between atoms: C_8  and  C_9
REMARK    7  A    between atoms: C_8  and  C_10
REMARK    8  A    between atoms: C_11  and  C_12
REMARK    9  A    between atoms: C_17  and  C_28
REMARK   10  A    between atoms: N_19  and  C_20
REMARK   11  A    between atoms: C_23  and  C_27
REMARK   12  A    between atoms: C_24  and  C_26
REMARK                            x       y       z     vdW  Elec       q    Type
REMARK                         _______ _______ _______ _____ _____    ______ ____
ROOT
ATOM      1  C   UNL     1       0.424  -4.176  -3.556  0.00  0.00    +0.237 C 
ATOM      2  O   UNL     1      -0.460  -3.411  -3.880  0.00  0.00    -0.274 OA
ATOM      3  N   UNL     1       0.346  -5.478  -3.895  0.00  0.00    -0.254 N 
ATOM      4  C   UNL     1      -0.746  -5.944  -4.615  0.00  0.00    +0.207 A 
ATOM      5  N   UNL     1      -1.756  -5.218  -5.025  0.00  0.00    -0.214 NA
ATOM      6  C   UNL     1      -2.628  -6.004  -5.693  0.00  0.00    +0.091 A 
ATOM      7  C   UNL     1      -2.137  -7.269  -5.695  0.00  0.00    +0.122 A 
ATOM      8  N   UNL     1      -0.942  -7.232  -5.018  0.00  0.00    -0.287 N 
ATOM      9  H   UNL     1       1.053  -6.090  -3.636  0.00  0.00    +0.158 HD
ENDROOT
BRANCH   8  10
ATOM     10  C   UNL     1      -0.086  -8.317  -4.781  0.00  0.00    +0.049 A 
ATOM     11  C   UNL     1       1.269  -8.209  -5.066  0.00  0.00    +0.026 A 
ATOM     12  C   UNL     1       2.110  -9.279  -4.833  0.00  0.00    +0.005 A 
ATOM     13  C   UNL     1       1.604 -10.458  -4.315  0.00  0.00    -0.047 A 
ATOM     14  C   UNL     1       0.255 -10.568  -4.031  0.00  0.00    -0.046 A 
ATOM     15  C   UNL     1      -0.590  -9.499  -4.256  0.00  0.00    +0.029 A 
ATOM     16  C   UNL     1      -0.292 -11.855  -3.468  0.00  0.00    +0.044 C 
ATOM     17  C   UNL     1       2.524 -11.624  -4.062  0.00  0.00    +0.044 C 
ENDBRANCH   8  10
BRANCH   6  18
ATOM     18  C   UNL     1      -3.901  -5.563  -6.314  0.00  0.00    +0.002 A 
ATOM     19  C   UNL     1      -4.715  -6.484  -6.971  0.00  0.00    +0.011 A 
ATOM     20  C   UNL     1      -5.898  -6.068  -7.547  0.00  0.00    +0.020 A 
ATOM     21  C   UNL     1      -6.277  -4.738  -7.473  0.00  0.00    +0.041 A 
ATOM     22  C   UNL     1      -5.472  -3.820  -6.821  0.00  0.00    +0.020 A 
ATOM     23  C   UNL     1      -4.290  -4.226  -6.237  0.00  0.00    +0.011 A 
ATOM     24 CL   UNL     1      -7.766  -4.221  -8.200  0.00  0.00    -0.084 Cl
ENDBRANCH   6  18
BRANCH   1  25
ATOM     25  C   UNL     1       1.609  -3.670  -2.775  0.00  0.00    +0.205 C 
BRANCH  25  29
ATOM     26  N   UNL     1       0.688  -0.476  -1.203  0.00  0.00    -0.299 N 
ATOM     27  C   UNL     1       0.827  -1.799  -1.425  0.00  0.00    +0.303 C 
ATOM     28  O   UNL     1       0.383  -2.599  -0.625  0.00  0.00    -0.253 OA
ATOM     29  N   UNL     1       1.458  -2.233  -2.534  0.00  0.00    -0.277 N 
ATOM     30  H   UNL     1       1.042   0.162  -1.842  0.00  0.00    +0.150 HD
BRANCH  26  32
ATOM     31  C   UNL     1      -0.019   1.526   0.010  0.00  0.00    +0.024 C 
ATOM     32  C   UNL     1       0.002  -0.004   0.002  0.00  0.00    +0.102 C 
ENDBRANCH  26  32
BRANCH  29  33
ATOM     33  C   UNL     1       1.992  -1.269  -3.498  0.00  0.00    +0.113 C 
BRANCH  33  34
ATOM     34  C   UNL     1       3.434  -0.920  -3.124  0.00  0.00    +0.000 C 
ATOM     35  C   UNL     1       4.313  -2.164  -3.267  0.00  0.00    +0.009 C 
ATOM     36  C   UNL     1       3.951   0.179  -4.056  0.00  0.00    +0.009 C 
ENDBRANCH  33  34
ENDBRANCH  29  33
ENDBRANCH  25  29
ENDBRANCH   1  25
TORSDOF 7
