REMARK  Name = ZINC24956453
REMARK  14 active torsions:
REMARK  status: ('A' for Active; 'I' for Inactive)
REMARK    1  A    between atoms: C_1  and  C_2
REMARK    2  A    between atoms: C_2  and  C_3
REMARK    3  A    between atoms: C_3  and  C_4
REMARK    4  A    between atoms: C_4  and  N_5
REMARK    5  A    between atoms: C_6  and  N_33
REMARK    6  A    between atoms: C_7  and  N_14
REMARK    7  A    between atoms: N_14  and  C_15
REMARK    8  A    between atoms: N_14  and  C_17
REMARK    9  A    between atoms: C_15  and  C_16
REMARK   10  A    between atoms: C_17  and  C_18
REMARK   11  A    between atoms: N_20  and  C_21
REMARK   12  A    between atoms: C_21  and  C_22
REMARK   13  A    between atoms: C_27  and  O_28
REMARK   14  A    between atoms: O_28  and  C_29
REMARK                            x       y       z     vdW  Elec       q    Type
REMARK                         _______ _______ _______ _____ _____    ______ ____
ROOT
ATOM      1  N   UNL     1      -6.800   2.413   2.894  0.00  0.00    -0.315 N 
ENDROOT
BRANCH   1   4
ATOM      2  N   UNL     1      -9.657   1.312   0.870  0.00  0.00    -0.280 N 
ATOM      3  C   UNL     1      -8.579   2.053   1.300  0.00  0.00    +0.127 A 
ATOM      4  C   UNL     1      -7.910   1.669   2.430  0.00  0.00    +0.134 A 
ATOM      5  C   UNL     1      -8.339   0.522   3.120  0.00  0.00    +0.277 A 
ATOM      6  O   UNL     1      -7.755   0.157   4.127  0.00  0.00    -0.266 OA
ATOM      7  N   UNL     1      -9.402  -0.170   2.666  0.00  0.00    -0.273 N 
ATOM      8  H   UNL     1      -9.749  -1.063   3.206  0.00  0.00    +0.173 HD
ATOM      9  C   UNL     1     -10.048   0.221   1.553  0.00  0.00    +0.331 A 
ATOM     10  O   UNL     1     -11.002  -0.422   1.157  0.00  0.00    -0.246 OA
BRANCH   3  11
ATOM     11  N   UNL     1      -8.180   3.168   0.600  0.00  0.00    -0.343 N 
ATOM     12  H   UNL     1      -7.318   3.757   0.949  0.00  0.00    +0.144 HD
ATOM     13  H   UNL     1      -8.722   3.472  -0.307  0.00  0.00    +0.144 HD
ENDBRANCH   3  11
BRANCH   2  14
ATOM     14  C   UNL     1     -10.380   1.713  -0.339  0.00  0.00    +0.128 C 
BRANCH  14  15
ATOM     15  C   UNL     1      -9.752   1.036  -1.559  0.00  0.00    +0.021 C 
BRANCH  15  17
ATOM     16  C   UNL     1      -9.879   0.778  -4.041  0.00  0.00    +0.004 C 
ATOM     17  C   UNL     1     -10.508   1.456  -2.821  0.00  0.00    -0.002 C 
ENDBRANCH  15  17
ENDBRANCH  14  15
ENDBRANCH   2  14
ENDBRANCH   1   4
BRANCH   1  18
ATOM     18  C   UNL     1      -7.075   3.005   4.210  0.00  0.00    +0.102 C 
ATOM     19  C   UNL     1      -8.184   4.051   4.076  0.00  0.00    +0.024 C 
ENDBRANCH   1  18
BRANCH   1  20
ATOM     20  C   UNL     1      -5.589   1.582   2.934  0.00  0.00    +0.201 C 
BRANCH  20  21
ATOM     21  C   UNL     1      -4.389   2.456   3.192  0.00  0.00    +0.231 C 
ATOM     22  O   UNL     1      -4.528   3.652   3.330  0.00  0.00    -0.274 OA
ATOM     23  N   UNL     1      -3.160   1.907   3.271  0.00  0.00    -0.310 N 
ATOM     24  H   UNL     1      -3.034   0.821   3.146  0.00  0.00    +0.149 HD
BRANCH  23  25
ATOM     25  C   UNL     1      -1.993   2.756   3.522  0.00  0.00    +0.143 C 
BRANCH  25  26
ATOM     26  C   UNL     1      -0.751   1.903   3.563  0.00  0.00    +0.012 A 
ATOM     27  C   UNL     1      -0.207   1.531   4.777  0.00  0.00    +0.009 A 
ATOM     28  C   UNL     1       0.932   0.749   4.816  0.00  0.00    +0.001 A 
ATOM     29  C   UNL     1       1.530   0.336   3.639  0.00  0.00    +0.004 A 
ATOM     30  C   UNL     1       0.987   0.701   2.422  0.00  0.00    +0.046 A 
ATOM     31  C   UNL     1      -0.153   1.491   2.381  0.00  0.00    +0.135 A 
BRANCH  31  32
ATOM     32  O   UNL     1      -0.686   1.856   1.185  0.00  0.00    -0.405 OA
BRANCH  32  33
ATOM     33  C   UNL     1      -0.017   1.395   0.010  0.00  0.00    +0.575 C 
ATOM     34  F   UNL     1       0.002  -0.004   0.002  0.00  0.00    -0.133 F 
ATOM     35  F   UNL     1       1.296   1.879  -0.000  0.00  0.00    -0.133 F 
ATOM     36  F   UNL     1      -0.694   1.858  -1.124  0.00  0.00    -0.133 F 
ENDBRANCH  32  33
ENDBRANCH  31  32
ENDBRANCH  25  26
ENDBRANCH  23  25
ENDBRANCH  20  21
ENDBRANCH   1  20
TORSDOF 12
