REMARK  Name = ZINC35848925
REMARK  5 active torsions:
REMARK  status: ('A' for Active; 'I' for Inactive)
REMARK    1  A    between atoms: C_1  and  N_2
REMARK    2  A    between atoms: N_2  and  C_3
REMARK    3  A    between atoms: N_2  and  C_4
REMARK    4  A    between atoms: C_4  and  C_5
REMARK    5  A    between atoms: C_24  and  C_26
REMARK                            x       y       z     vdW  Elec       q    Type
REMARK                         _______ _______ _______ _____ _____    ______ ____
ROOT
ATOM      1  C   UNL     1      -2.723  -0.440  -2.291  0.00  0.00    +0.116 A 
ATOM      2  N   UNL     1      -3.448   0.664  -2.271  0.00  0.00    -0.219 NA
ATOM      3  C   UNL     1      -2.970   1.829  -2.679  0.00  0.00    +0.133 A 
ATOM      4  C   UNL     1      -1.631   1.898  -3.156  0.00  0.00    +0.051 A 
ATOM      5  C   UNL     1      -0.895   3.061  -3.655  0.00  0.00    -0.025 A 
ATOM      6  C   UNL     1       0.378   2.856  -4.051  0.00  0.00    -0.004 A 
ATOM      7  S   UNL     1       0.671   1.127  -3.788  0.00  0.00    -0.073 S 
ATOM      8  C   UNL     1      -0.922   0.681  -3.146  0.00  0.00    +0.114 A 
ATOM      9  N   UNL     1      -1.475  -0.437  -2.716  0.00  0.00    -0.227 NA
ATOM     10  C   UNL     1       1.334   3.873  -4.596  0.00  0.00    +0.043 C 
ATOM     11  C   UNL     1       0.538   5.124  -4.991  0.00  0.00    +0.005 C 
ATOM     12  C   UNL     1      -0.404   5.490  -3.839  0.00  0.00    +0.005 C 
ATOM     13  C   UNL     1      -1.520   4.451  -3.732  0.00  0.00    +0.037 C 
ATOM     14  N   UNL     1      -3.760   2.963  -2.643  0.00  0.00    -0.312 N 
ATOM     15  C   UNL     1      -4.504   3.395  -3.834  0.00  0.00    +0.125 C 
ATOM     16  C   UNL     1      -5.987   3.523  -3.467  0.00  0.00    +0.126 C 
ATOM     17  N   UNL     1      -6.100   4.317  -2.236  0.00  0.00    -0.298 N 
ATOM     18  C   UNL     1      -5.357   3.885  -1.044  0.00  0.00    +0.126 C 
ATOM     19  C   UNL     1      -3.877   3.754  -1.409  0.00  0.00    +0.125 C 
ATOM     20  C   UNL     1      -6.871   5.422  -2.200  0.00  0.00    +0.222 C 
ATOM     21  O   UNL     1      -7.554   5.715  -3.158  0.00  0.00    -0.275 OA
ENDROOT
BRANCH  20  22
ATOM     22  C   UNL     1      -6.883   6.293  -0.971  0.00  0.00    +0.048 C 
ATOM     23  C   UNL     1      -7.413   5.489   0.218  0.00  0.00    +0.019 C 
ATOM     24  C   UNL     1      -7.426   6.373   1.467  0.00  0.00    -0.009 C 
ATOM     25  C   UNL     1      -8.330   7.584   1.225  0.00  0.00    +0.007 C 
ATOM     26  C   UNL     1      -7.799   8.387   0.036  0.00  0.00    -0.009 C 
ATOM     27  C   UNL     1      -7.787   7.503  -1.212  0.00  0.00    +0.019 C 
ATOM     28  C   UNL     1      -6.377   8.865   0.338  0.00  0.00    +0.007 C 
ATOM     29  C   UNL     1      -5.473   7.654   0.579  0.00  0.00    -0.009 C 
ATOM     30  C   UNL     1      -6.004   6.851   1.768  0.00  0.00    +0.007 C 
ATOM     31  C   UNL     1      -5.461   6.770  -0.670  0.00  0.00    +0.019 C 
ENDBRANCH  20  22
BRANCH   1  32
ATOM     32  C   UNL     1      -3.335  -1.731  -1.811  0.00  0.00    -0.002 C 
BRANCH  32  34
ATOM     33  C   UNL     1      -3.807  -0.820   0.357  0.00  0.00    -0.096 C 
ATOM     34  N   UNL     1      -3.096  -1.880  -0.369  0.00  0.00    +0.381 N 
ATOM     35  C   UNL     1      -3.586  -3.192   0.075  0.00  0.00    -0.096 C 
ATOM     36  H   UNL     1      -2.107  -1.810  -0.183  0.00  0.00    -0.082 HD
ENDBRANCH  32  34
ENDBRANCH   1  32
TORSDOF 3
