REMARK  Name = ZINC37821493
REMARK  4 active torsions:
REMARK  status: ('A' for Active; 'I' for Inactive)
REMARK    1  A    between atoms: C_1  and  C_2
REMARK    2  A    between atoms: C_6  and  C_19
REMARK    3  A    between atoms: C_10  and  C_12
REMARK    4  A    between atoms: C_15  and  N_18
REMARK                            x       y       z     vdW  Elec       q    Type
REMARK                         _______ _______ _______ _____ _____    ______ ____
ROOT
ATOM      1  C   UNL     1      -0.520   1.180   0.233  0.00  0.00    +0.028 C 
ATOM      2  C   UNL     1      -0.144  -0.285   0.004  0.00  0.00    +0.073 C 
ATOM      3  C   UNL     1      -1.415  -1.117  -0.194  0.00  0.00    +0.023 C 
ATOM      4  C   UNL     1      -2.232  -1.109   1.100  0.00  0.00    +0.016 C 
ATOM      5  C   UNL     1      -1.412  -1.741   2.227  0.00  0.00    +0.092 C 
ATOM      6  C   UNL     1      -0.141  -0.916   2.453  0.00  0.00    +0.121 C 
ATOM      7  N   UNL     1       0.581  -0.796   1.175  0.00  0.00    -0.294 N 
ATOM      8  C   UNL     1       1.879  -1.149   1.080  0.00  0.00    +0.247 C 
ATOM      9  O   UNL     1       2.431  -1.147  -0.004  0.00  0.00    -0.270 OA
ENDROOT
BRANCH   8  10
ATOM     10  C   UNL     1       2.628  -1.537   2.289  0.00  0.00    +0.037 A 
ATOM     11  C   UNL     1       3.520  -2.613   2.246  0.00  0.00    +0.015 A 
ATOM     12  C   UNL     1       4.218  -2.973   3.376  0.00  0.00    +0.023 A 
ATOM     13  C   UNL     1       4.037  -2.267   4.561  0.00  0.00    +0.025 A 
ATOM     14  C   UNL     1       3.150  -1.195   4.609  0.00  0.00    +0.023 A 
ATOM     15  C   UNL     1       2.454  -0.826   3.480  0.00  0.00    +0.015 A 
BRANCH  13  16
ATOM     16  N   UNL     1       4.744  -2.633   5.702  0.00  0.00    -0.358 N 
ATOM     17  H   UNL     1       5.362  -3.380   5.670  0.00  0.00    +0.142 HD
ATOM     18  H   UNL     1       4.619  -2.141   6.529  0.00  0.00    +0.142 HD
ENDBRANCH  13  16
ENDBRANCH   8  10
BRANCH   5  19
ATOM     19  C   UNL     1      -2.229  -1.762   3.493  0.00  0.00    +0.215 C 
ATOM     20  O   UNL     1      -3.357  -1.316   3.494  0.00  0.00    -0.276 OA
ATOM     21  N   UNL     1      -1.707  -2.277   4.624  0.00  0.00    -0.329 N 
ATOM     22  H   UNL     1      -0.805  -2.634   4.623  0.00  0.00    +0.145 HD
ATOM     23  H   UNL     1      -2.233  -2.291   5.438  0.00  0.00    +0.145 HD
ENDBRANCH   5  19
TORSDOF 3
