REMARK  Name = ZINC19209083
REMARK  8 active torsions:
REMARK  status: ('A' for Active; 'I' for Inactive)
REMARK    1  A    between atoms: C_1  and  C_2
REMARK    2  A    between atoms: C_5  and  C_8
REMARK    3  A    between atoms: N_16  and  C_19
REMARK    4  A    between atoms: C_22  and  C_25
REMARK    5  A    between atoms: C_26  and  C_28
REMARK    6  A    between atoms: C_26  and  C_29
REMARK    7  A    between atoms: C_29  and  O_31
REMARK    8  A    between atoms: O_31  and  C_32
REMARK                            x       y       z     vdW  Elec       q    Type
REMARK                         _______ _______ _______ _____ _____    ______ ____
ROOT
ATOM      1  C   UNL     1      -0.077  -4.310   0.023  0.00  0.00    +0.097 C 
ATOM      2  C   UNL     1       1.381  -4.718   0.319  0.00  0.00    +0.111 C 
ATOM      3  C   UNL     1       1.268  -6.016   1.163  0.00  0.00    +0.120 C 
ATOM      4  C   UNL     1       1.826  -5.608   2.508  0.00  0.00    +0.232 C 
ATOM      5  O   UNL     1       1.924  -6.332   3.475  0.00  0.00    -0.274 OA
ATOM      6  N   UNL     1       2.195  -4.322   2.464  0.00  0.00    -0.210 N 
ATOM      7  C   UNL     1       1.995  -3.716   1.270  0.00  0.00    +0.232 C 
ATOM      8  O   UNL     1       2.259  -2.564   1.000  0.00  0.00    -0.274 OA
ATOM      9  C   UNL     1      -0.247  -6.279   1.284  0.00  0.00    +0.127 C 
ATOM     10  N   UNL     1      -0.874  -4.935   1.109  0.00  0.00    -0.294 NA
ATOM     11  C   UNL     1      -0.709  -7.250   0.195  0.00  0.00    +0.040 C 
ATOM     12  H   UNL     1      -0.821  -4.389   1.956  0.00  0.00    +0.124 HD
ENDROOT
BRANCH   1  17
ATOM     13  C   UNL     1      -0.631   1.440   0.173  0.00  0.00    +0.044 C 
ATOM     14  C   UNL     1      -0.487  -0.059   0.134  0.00  0.00    -0.050 A 
ATOM     15  C   UNL     1      -0.406  -0.715  -1.081  0.00  0.00    +0.003 A 
ATOM     16  C   UNL     1      -0.273  -2.090  -1.117  0.00  0.00    +0.005 A 
ATOM     17  C   UNL     1      -0.221  -2.811   0.062  0.00  0.00    -0.030 A 
ATOM     18  C   UNL     1      -0.300  -2.155   1.277  0.00  0.00    +0.005 A 
ATOM     19  C   UNL     1      -0.429  -0.779   1.313  0.00  0.00    +0.003 A 
ENDBRANCH   1  17
BRANCH   6  20
ATOM     20  C   UNL     1       2.750  -3.655   3.564  0.00  0.00    +0.044 A 
ATOM     21  C   UNL     1       4.072  -3.233   3.527  0.00  0.00    +0.024 A 
ATOM     22  C   UNL     1       4.617  -2.576   4.613  0.00  0.00    +0.005 A 
ATOM     23  C   UNL     1       3.847  -2.337   5.736  0.00  0.00    -0.050 A 
ATOM     24  C   UNL     1       2.530  -2.756   5.776  0.00  0.00    +0.005 A 
ATOM     25  C   UNL     1       1.978  -3.409   4.691  0.00  0.00    +0.024 A 
ATOM     26  C   UNL     1       4.444  -1.621   6.919  0.00  0.00    +0.044 C 
ENDBRANCH   6  20
BRANCH   9  27
ATOM     27  C   UNL     1      -0.579  -6.823   2.650  0.00  0.00    +0.328 C 
ATOM     28  O   UNL     1      -0.629  -8.017   2.828  0.00  0.00    -0.249 OA
BRANCH  27  29
ATOM     29  O   UNL     1      -0.817  -5.981   3.667  0.00  0.00    -0.467 OA
ATOM     30  C   UNL     1      -1.125  -6.566   4.934  0.00  0.00    +0.280 C 
ENDBRANCH  27  29
ENDBRANCH   9  27
TORSDOF 4
