REMARK  Name = ZINC14460049
REMARK  9 active torsions:
REMARK  status: ('A' for Active; 'I' for Inactive)
REMARK    1  A    between atoms: C_1  and  C_2
REMARK    2  A    between atoms: C_2  and  C_3
REMARK    3  A    between atoms: C_2  and  C_4
REMARK    4  A    between atoms: C_4  and  C_5
REMARK    5  A    between atoms: N_7  and  C_8
REMARK    6  A    between atoms: C_21  and  C_24
REMARK    7  A    between atoms: C_28  and  O_31
REMARK    8  A    between atoms: C_29  and  O_30
REMARK    9  A    between atoms: O_31  and  C_32
REMARK                            x       y       z     vdW  Elec       q    Type
REMARK                         _______ _______ _______ _____ _____    ______ ____
ROOT
ATOM      1  C   UNL     1      -4.406   9.191   0.223  0.00  0.00    +0.034 A 
ATOM      2  C   UNL     1      -3.561   9.145  -0.879  0.00  0.00    +0.025 A 
ATOM      3  C   UNL     1      -2.730   8.058  -1.056  0.00  0.00    +0.025 A 
ATOM      4  C   UNL     1      -2.739   7.016  -0.137  0.00  0.00    +0.031 A 
ATOM      5  C   UNL     1      -3.577   7.056   0.966  0.00  0.00    -0.018 A 
ATOM      6  C   UNL     1      -4.412   8.152   1.138  0.00  0.00    +0.029 A 
ATOM      7  C   UNL     1      -3.614   5.961   1.984  0.00  0.00    +0.049 C 
ATOM      8  C   UNL     1      -4.851   5.107   1.834  0.00  0.00    -0.023 C 
ATOM      9  C   UNL     1      -4.570   3.854   2.098  0.00  0.00    -0.030 C 
ATOM     10  C   UNL     1      -3.107   3.702   2.465  0.00  0.00    +0.033 C 
ATOM     11  C   UNL     1      -2.446   4.966   1.839  0.00  0.00    +0.029 C 
ATOM     12  C   UNL     1      -2.199   4.665   0.358  0.00  0.00    +0.109 C 
ATOM     13  N   UNL     1      -1.890   5.919  -0.336  0.00  0.00    -0.336 N 
ATOM     14  H   UNL     1      -1.117   5.988  -0.918  0.00  0.00    +0.147 HD
ENDROOT
BRANCH  12  15
ATOM     15  C   UNL     1      -1.037   3.714   0.223  0.00  0.00    +0.018 A 
ATOM     16  C   UNL     1      -1.260   2.395  -0.127  0.00  0.00    +0.009 A 
ATOM     17  C   UNL     1      -0.197   1.520  -0.251  0.00  0.00    +0.004 A 
ATOM     18  C   UNL     1       1.094   1.960  -0.026  0.00  0.00    +0.049 A 
ATOM     19  C   UNL     1       1.325   3.280   0.325  0.00  0.00    +0.162 A 
ATOM     20  C   UNL     1       0.254   4.160   0.456  0.00  0.00    +0.163 A 
BRANCH  20  21
ATOM     21  O   UNL     1       0.474   5.455   0.806  0.00  0.00    -0.503 OA
ATOM     22  H   UNL     1       0.694   6.032   0.061  0.00  0.00    +0.292 HD
ENDBRANCH  20  21
BRANCH  19  23
ATOM     23  O   UNL     1       2.594   3.715   0.546  0.00  0.00    -0.491 OA
ATOM     24  C   UNL     1       3.643   2.756   0.399  0.00  0.00    +0.277 C 
ENDBRANCH  19  23
ENDBRANCH  12  15
BRANCH   1  27
ATOM     25  C   UNL     1      -4.836  11.528   0.070  0.00  0.00    +0.217 C 
ATOM     26  O   UNL     1      -3.761  11.679  -0.471  0.00  0.00    -0.275 OA
ATOM     27  N   UNL     1      -5.253  10.292   0.408  0.00  0.00    -0.285 N 
ATOM     28  H   UNL     1      -6.140  10.164   0.780  0.00  0.00    +0.155 HD
BRANCH  25  29
ATOM     29  C   UNL     1      -5.706  12.723   0.363  0.00  0.00    +0.099 C 
BRANCH  29  31
ATOM     30  C   UNL     1      -5.939  15.193   0.066  0.00  0.00    +0.008 C 
ATOM     31  C   UNL     1      -5.005  13.995  -0.118  0.00  0.00    -0.008 C 
ATOM     32  C   UNL     1      -3.729  14.213   0.697  0.00  0.00    +0.008 C 
ENDBRANCH  29  31
ENDBRANCH  25  29
ENDBRANCH   1  27
TORSDOF 6
