REMARK  Name = ZINC06443628
REMARK  7 active torsions:
REMARK  status: ('A' for Active; 'I' for Inactive)
REMARK    1  A    between atoms: C_1  and  C_2
REMARK    2  A    between atoms: C_12  and  C_14
REMARK    3  A    between atoms: C_14  and  C_16
REMARK    4  A    between atoms: C_14  and  N_70
REMARK    5  A    between atoms: N_20  and  C_21
REMARK    6  A    between atoms: C_28  and  C_31
REMARK    7  A    between atoms: C_31  and  C_32
REMARK                            x       y       z     vdW  Elec       q    Type
REMARK                         _______ _______ _______ _____ _____    ______ ____
ROOT
ATOM      1  C   UNL     1       0.088  -2.864   4.922  0.00  0.00    +0.039 C 
ENDROOT
BRANCH   1  13
ATOM      2  C   UNL     1      -0.395   1.086  -0.310  0.00  0.00    +0.046 C 
ATOM      3  C   UNL     1      -0.358  -0.416  -0.197  0.00  0.00    -0.026 A 
ATOM      4  C   UNL     1      -0.438  -1.197  -1.330  0.00  0.00    +0.005 A 
ATOM      5  C   UNL     1      -0.400  -2.582  -1.240  0.00  0.00    +0.001 A 
ATOM      6  C   UNL     1      -0.294  -3.197  -0.025  0.00  0.00    +0.010 A 
ATOM      7  C   UNL     1      -0.217  -2.425   1.139  0.00  0.00    -0.001 A 
ATOM      8  C   UNL     1      -0.249  -1.020   1.051  0.00  0.00    +0.052 A 
ATOM      9  N   UNL     1      -0.172  -0.264   2.201  0.00  0.00    -0.322 N 
ATOM     10  H   UNL     1      -0.195   0.704   2.139  0.00  0.00    +0.169 HD
ATOM     11  C   UNL     1      -0.068  -0.848   3.408  0.00  0.00    +0.251 A 
ATOM     12  O   UNL     1      -0.002  -0.148   4.403  0.00  0.00    -0.268 OA
ATOM     13  C   UNL     1      -0.031  -2.252   3.550  0.00  0.00    +0.011 A 
ATOM     14  C   UNL     1      -0.102  -3.051   2.457  0.00  0.00    +0.017 A 
ENDBRANCH   1  13
BRANCH   1  20
ATOM     15  C   UNL     1      -0.844  -2.855   7.156  0.00  0.00    -0.077 C 
ATOM     16  C   UNL     1      -1.871  -2.171   8.062  0.00  0.00    -0.015 C 
ATOM     17  C   UNL     1      -3.279  -2.438   7.523  0.00  0.00    -0.010 C 
ATOM     18  C   UNL     1      -3.370  -1.928   6.082  0.00  0.00    -0.015 C 
ATOM     19  C   UNL     1      -2.300  -2.619   5.233  0.00  0.00    -0.077 C 
ATOM     20  N   UNL     1      -0.967  -2.303   5.790  0.00  0.00    +0.389 N 
ATOM     21  H   UNL     1      -0.857  -1.283   5.832  0.00  0.00    -0.080 HD
BRANCH  17  22
ATOM     22  C   UNL     1      -4.307  -1.708   8.389  0.00  0.00    +0.038 C 
BRANCH  22  23
ATOM     23  C   UNL     1      -4.301  -2.295   9.777  0.00  0.00    -0.047 A 
ATOM     24  C   UNL     1      -5.141  -3.348  10.085  0.00  0.00    +0.003 A 
ATOM     25  C   UNL     1      -5.133  -3.890  11.357  0.00  0.00    +0.000 A 
ATOM     26  C   UNL     1      -4.292  -3.371  12.323  0.00  0.00    +0.000 A 
ATOM     27  C   UNL     1      -3.456  -2.314  12.017  0.00  0.00    +0.000 A 
ATOM     28  C   UNL     1      -3.461  -1.776  10.744  0.00  0.00    +0.003 A 
ENDBRANCH  22  23
ENDBRANCH  17  22
ENDBRANCH   1  20
BRANCH   1  29
ATOM     29  C   UNL     1       1.434  -2.525   5.508  0.00  0.00    +0.143 A 
ATOM     30  N   UNL     1       1.806  -1.367   5.998  0.00  0.00    -0.115 NA
ATOM     31  N   UNL     1       3.025  -1.478   6.401  0.00  0.00    -0.023 NA
ATOM     32  N   UNL     1       3.441  -2.676   6.180  0.00  0.00    -0.044 NA
ATOM     33  N   UNL     1       2.487  -3.354   5.636  0.00  0.00    -0.227 N 
BRANCH  33  34
ATOM     34  C   UNL     1       2.542  -4.761   5.229  0.00  0.00    +0.111 C 
ATOM     35  C   UNL     1       2.889  -5.648   6.442  0.00  0.00    +0.027 C 
ATOM     36  C   UNL     1       3.806  -6.750   5.855  0.00  0.00    +0.002 C 
ATOM     37  C   UNL     1       4.654  -5.974   4.817  0.00  0.00    +0.002 C 
ATOM     38  C   UNL     1       3.663  -4.968   4.196  0.00  0.00    +0.027 C 
ENDBRANCH  33  34
ENDBRANCH   1  29
TORSDOF 6
