REMARK  Name = ZINC33738261
REMARK  6 active torsions:
REMARK  status: ('A' for Active; 'I' for Inactive)
REMARK    1  A    between atoms: C_4  and  C_7
REMARK    2  A    between atoms: C_10  and  C_32
REMARK    3  A    between atoms: C_13  and  C_15
REMARK    4  A    between atoms: C_18  and  N_21
REMARK    5  A    between atoms: N_21  and  S_22
REMARK    6  A    between atoms: S_22  and  C_25
REMARK                            x       y       z     vdW  Elec       q    Type
REMARK                         _______ _______ _______ _____ _____    ______ ____
ROOT
ATOM      1  C   UNL     1       2.729   2.619   2.452  0.00  0.00    +0.266 C 
ATOM      2  O   UNL     1       1.807   2.220   3.136  0.00  0.00    -0.268 OA
ATOM      3  N   UNL     1       2.809   2.261   1.155  0.00  0.00    -0.178 N 
ATOM      4  C   UNL     1       1.913   1.316   0.470  0.00  0.00    +0.173 C 
ATOM      5  C   UNL     1       2.455   1.284  -0.973  0.00  0.00    +0.090 C 
ATOM      6  C   UNL     1       3.627   2.238  -0.943  0.00  0.00    +0.069 C 
ATOM      7  N   UNL     1       3.755   2.727   0.243  0.00  0.00    -0.181 NA
ENDROOT
BRANCH   1  11
ATOM      8  C   UNL     1       5.698   5.139   4.147  0.00  0.00    +0.000 A 
ATOM      9  C   UNL     1       4.723   4.582   4.956  0.00  0.00    +0.001 A 
ATOM     10  C   UNL     1       3.756   3.763   4.412  0.00  0.00    +0.013 A 
ATOM     11  C   UNL     1       3.762   3.496   3.042  0.00  0.00    +0.039 A 
ATOM     12  C   UNL     1       4.752   4.057   2.232  0.00  0.00    +0.013 A 
ATOM     13  C   UNL     1       5.709   4.879   2.788  0.00  0.00    +0.001 A 
ENDBRANCH   1  11
BRANCH   6  14
ATOM     14  C   UNL     1       4.490   2.560  -2.093  0.00  0.00    -0.002 A 
ATOM     15  C   UNL     1       4.257   1.961  -3.334  0.00  0.00    +0.011 A 
ATOM     16  C   UNL     1       5.063   2.268  -4.408  0.00  0.00    +0.025 A 
ATOM     17  C   UNL     1       6.115   3.166  -4.256  0.00  0.00    +0.048 A 
ATOM     18  C   UNL     1       6.354   3.760  -3.021  0.00  0.00    +0.025 A 
ATOM     19  C   UNL     1       5.548   3.462  -1.944  0.00  0.00    +0.011 A 
BRANCH  17  20
ATOM     20  N   UNL     1       6.932   3.470  -5.344  0.00  0.00    -0.216 N 
ATOM     21  H   UNL     1       7.190   4.517  -5.562  0.00  0.00    +0.174 HD
BRANCH  20  22
ATOM     22  S   UNL     1       7.514   2.256  -6.308  0.00  0.00    +0.072 S 
ATOM     23  O   UNL     1       6.393   1.480  -6.707  0.00  0.00    -0.150 OA
ATOM     24  O   UNL     1       8.390   2.867  -7.246  0.00  0.00    -0.150 OA
BRANCH  22  25
ATOM     25  C   UNL     1       8.510   1.216  -5.292  0.00  0.00    +0.109 A 
ATOM     26  C   UNL     1       9.838   1.532  -5.072  0.00  0.00    +0.030 A 
ATOM     27  C   UNL     1      10.618   0.720  -4.270  0.00  0.00    +0.022 A 
ATOM     28  C   UNL     1      10.072  -0.415  -3.697  0.00  0.00    +0.041 A 
ATOM     29  C   UNL     1       8.744  -0.733  -3.922  0.00  0.00    +0.022 A 
ATOM     30  C   UNL     1       7.964   0.083  -4.719  0.00  0.00    +0.030 A 
ATOM     31 CL   UNL     1      11.053  -1.439  -2.695  0.00  0.00    -0.084 Cl
ENDBRANCH  22  25
ENDBRANCH  20  22
ENDBRANCH  17  20
ENDBRANCH   6  14
BRANCH   4  32
ATOM     32  C   UNL     1       0.493   1.821   0.492  0.00  0.00    +0.128 A 
ATOM     33  C   UNL     1      -0.612   1.059   0.580  0.00  0.00    +0.046 A 
ATOM     34  C   UNL     1      -1.718   1.938   0.561  0.00  0.00    +0.041 A 
ATOM     35  C   UNL     1      -1.224   3.186   0.472  0.00  0.00    +0.195 A 
ATOM     36  O   UNL     1       0.116   3.108   0.427  0.00  0.00    -0.466 OA
ENDBRANCH   4  32
TORSDOF 6
