REMARK  Name = ZINC09380368
REMARK  9 active torsions:
REMARK  status: ('A' for Active; 'I' for Inactive)
REMARK    1  A    between atoms: C_1  and  C_2
REMARK    2  A    between atoms: C_2  and  C_35
REMARK    3  A    between atoms: C_6  and  N_27
REMARK    4  A    between atoms: C_12  and  N_16
REMARK    5  A    between atoms: N_16  and  C_17
REMARK    6  A    between atoms: N_16  and  C_20
REMARK    7  A    between atoms: C_17  and  C_18
REMARK    8  A    between atoms: C_18  and  O_19
REMARK    9  A    between atoms: C_20  and  C_21
REMARK                            x       y       z     vdW  Elec       q    Type
REMARK                         _______ _______ _______ _____ _____    ______ ____
ROOT
ATOM      1  C   UNL     1      -5.590   7.324  -1.739  0.00  0.00    +0.041 C 
ATOM      2  C   UNL     1      -4.112   7.468  -2.108  0.00  0.00    +0.068 C 
ATOM      3  C   UNL     1      -3.833   6.731  -3.420  0.00  0.00    +0.070 C 
ATOM      4  C   UNL     1      -3.901   5.245  -3.190  0.00  0.00    -0.024 A 
ATOM      5  C   UNL     1      -3.842   4.705  -1.944  0.00  0.00    +0.020 A 
ATOM      6  C   UNL     1      -3.894   3.316  -1.784  0.00  0.00    +0.105 A 
ATOM      7  C   UNL     1      -4.085   3.014  -4.056  0.00  0.00    +0.089 A 
ATOM      8  C   UNL     1      -4.031   4.394  -4.315  0.00  0.00    +0.035 A 
ATOM      9  C   UNL     1      -4.119   4.789  -5.733  0.00  0.00    +0.093 A 
ATOM     10  C   UNL     1      -4.247   3.741  -6.653  0.00  0.00    +0.080 A 
ATOM     11  S   UNL     1      -4.250   2.273  -5.662  0.00  0.00    -0.066 S 
ATOM     12  C   UNL     1      -4.339   3.994  -8.014  0.00  0.00    +0.139 A 
ATOM     13  N   UNL     1      -4.301   5.262  -8.425  0.00  0.00    -0.220 NA
ATOM     14  C   UNL     1      -4.180   6.239  -7.545  0.00  0.00    +0.224 A 
ATOM     15  N   UNL     1      -4.092   6.037  -6.254  0.00  0.00    -0.234 NA
ATOM     16  C   UNL     1      -3.711   5.570  -0.717  0.00  0.00    +0.199 C 
ATOM     17  O   UNL     1      -3.300   6.887  -1.081  0.00  0.00    -0.369 OA
ATOM     18  C   UNL     1      -3.762   8.950  -2.265  0.00  0.00    +0.041 C 
ATOM     19  N   UNL     1      -4.019   2.447  -2.827  0.00  0.00    -0.337 N 
ATOM     20  H   UNL     1      -4.061   1.431  -2.690  0.00  0.00    +0.168 HD
ENDROOT
BRANCH   6  21
ATOM     21  N   UNL     1      -3.823   2.766  -0.511  0.00  0.00    -0.312 N 
ATOM     22  C   UNL     1      -3.058   1.510  -0.522  0.00  0.00    +0.134 C 
ATOM     23  C   UNL     1      -2.954   0.970   0.907  0.00  0.00    +0.178 C 
ATOM     24  O   UNL     1      -4.268   0.799   1.444  0.00  0.00    -0.377 OA
ATOM     25  C   UNL     1      -5.041   2.002   1.469  0.00  0.00    +0.178 C 
ATOM     26  C   UNL     1      -5.167   2.553   0.046  0.00  0.00    +0.134 C 
ENDBRANCH   6  21
BRANCH  12  27
ATOM     27  N   UNL     1      -4.465   2.956  -8.924  0.00  0.00    -0.308 N 
BRANCH  27  28
ATOM     28  C   UNL     1      -3.216   2.189  -9.024  0.00  0.00    +0.134 C 
BRANCH  28  29
ATOM     29  C   UNL     1      -2.092   3.106  -9.509  0.00  0.00    +0.174 C 
BRANCH  29  30
ATOM     30  O   UNL     1      -1.842   4.113  -8.527  0.00  0.00    -0.393 OA
ATOM     31  H   UNL     1      -1.139   4.732  -8.769  0.00  0.00    +0.209 HD
ENDBRANCH  29  30
ENDBRANCH  28  29
ENDBRANCH  27  28
BRANCH  27  32
ATOM     32  C   UNL     1      -4.882   3.457 -10.240  0.00  0.00    +0.141 C 
BRANCH  32  33
ATOM     33  C   UNL     1      -5.245   2.295 -11.128  0.00  0.00    -0.030 A 
ATOM     34  C   UNL     1      -4.280   1.703 -11.922  0.00  0.00    +0.005 A 
ATOM     35  C   UNL     1      -4.612   0.634 -12.732  0.00  0.00    +0.000 A 
ATOM     36  C   UNL     1      -5.912   0.163 -12.757  0.00  0.00    +0.000 A 
ATOM     37  C   UNL     1      -6.878   0.758 -11.968  0.00  0.00    +0.000 A 
ATOM     38  C   UNL     1      -6.544   1.823 -11.153  0.00  0.00    +0.005 A 
ENDBRANCH  32  33
ENDBRANCH  27  32
ENDBRANCH  12  27
TORSDOF 7
