REMARK  Name = ZINC13498849
REMARK  14 active torsions:
REMARK  status: ('A' for Active; 'I' for Inactive)
REMARK    1  A    between atoms: C_1  and  C_2
REMARK    2  A    between atoms: C_6  and  C_15
REMARK    3  A    between atoms: C_13  and  C_14
REMARK    4  A    between atoms: C_15  and  N_71
REMARK    5  A    between atoms: C_16  and  N_71
REMARK    6  A    between atoms: C_21  and  C_23
REMARK    7  A    between atoms: C_21  and  C_32
REMARK    8  A    between atoms: C_21  and  N_71
REMARK    9  A    between atoms: N_27  and  C_28
REMARK   10  A    between atoms: C_28  and  C_29
REMARK   11  A    between atoms: C_28  and  C_30
REMARK   12  A    between atoms: C_28  and  C_31
REMARK   13  A    between atoms: C_32  and  C_33
REMARK   14  A    between atoms: C_32  and  C_34
REMARK                            x       y       z     vdW  Elec       q    Type
REMARK                         _______ _______ _______ _____ _____    ______ ____
ROOT
ATOM      1  N   UNL     1      -6.121   4.599  -0.939  0.00  0.00    +0.391 N 
ATOM      2  H   UNL     1      -5.913   3.594  -0.926  0.00  0.00    -0.080 HD
ENDROOT
BRANCH   1   3
ATOM      3  C   UNL     1      -5.014   5.309  -1.615  0.00  0.00    -0.067 C 
ATOM      4  C   UNL     1      -5.075   5.042  -3.133  0.00  0.00    -0.015 C 
ATOM      5  C   UNL     1      -3.590   4.907  -3.554  0.00  0.00    -0.002 C 
ATOM      6  C   UNL     1      -2.962   4.151  -2.357  0.00  0.00    -0.002 C 
ATOM      7  C   UNL     1      -3.671   4.743  -1.121  0.00  0.00    -0.015 C 
ENDBRANCH   1   3
BRANCH   1   8
ATOM      8  C   UNL     1      -6.254   5.080   0.452  0.00  0.00    -0.036 C 
BRANCH   8  14
ATOM      9  C   UNL     1       0.359   5.690   3.846  0.00  0.00    +0.044 C 
ATOM     10  C   UNL     1      -0.856   4.881   3.470  0.00  0.00    -0.047 A 
ATOM     11  C   UNL     1      -1.847   5.454   2.725  0.00  0.00    +0.013 A 
ATOM     12  C   UNL     1      -2.974   4.704   2.376  0.00  0.00    -0.001 A 
ATOM     13  C   UNL     1      -4.055   5.287   1.579  0.00  0.00    +0.017 A 
ATOM     14  C   UNL     1      -5.124   4.511   1.271  0.00  0.00    +0.001 A 
ATOM     15  C   UNL     1      -5.182   3.172   1.715  0.00  0.00    +0.251 A 
ATOM     16  O   UNL     1      -6.152   2.492   1.427  0.00  0.00    -0.268 OA
ATOM     17  N   UNL     1      -4.195   2.628   2.447  0.00  0.00    -0.322 N 
ATOM     18  H   UNL     1      -4.267   1.705   2.736  0.00  0.00    +0.169 HD
ATOM     19  C   UNL     1      -3.079   3.362   2.789  0.00  0.00    +0.049 A 
ATOM     20  C   UNL     1      -2.059   2.801   3.552  0.00  0.00    +0.030 A 
ATOM     21  C   UNL     1      -0.957   3.560   3.884  0.00  0.00    -0.046 A 
ATOM     22  C   UNL     1       0.149   2.949   4.705  0.00  0.00    +0.044 C 
ENDBRANCH   8  14
ENDBRANCH   1   8
BRANCH   1  23
ATOM     23  C   UNL     1      -7.385   4.819  -1.673  0.00  0.00    +0.006 C 
BRANCH  23  24
ATOM     24  C   UNL     1      -8.063   6.074  -1.186  0.00  0.00    +0.139 A 
ATOM     25  N   UNL     1      -8.074   6.533   0.041  0.00  0.00    -0.115 NA
ATOM     26  N   UNL     1      -8.755   7.626   0.052  0.00  0.00    -0.023 NA
ATOM     27  N   UNL     1      -9.187   7.872  -1.135  0.00  0.00    -0.043 NA
ATOM     28  N   UNL     1      -8.781   6.938  -1.927  0.00  0.00    -0.226 N 
BRANCH  28  29
ATOM     29  C   UNL     1      -9.051   6.838  -3.364  0.00  0.00    +0.059 C 
ATOM     30  C   UNL     1      -9.636   5.459  -3.678  0.00  0.00    +0.036 C 
ATOM     31  C   UNL     1     -10.052   7.920  -3.772  0.00  0.00    +0.036 C 
ATOM     32  C   UNL     1      -7.748   7.028  -4.142  0.00  0.00    +0.036 C 
ENDBRANCH  28  29
ENDBRANCH  23  24
BRANCH  23  33
ATOM     33  C   UNL     1      -8.303   3.618  -1.434  0.00  0.00    -0.024 C 
ATOM     34  C   UNL     1      -7.602   2.341  -1.900  0.00  0.00    +0.006 C 
ATOM     35  C   UNL     1      -8.622   3.509   0.058  0.00  0.00    +0.006 C 
ENDBRANCH  23  33
ENDBRANCH   1  23
TORSDOF 7
