REMARK  Name = ZINC20755048
REMARK  4 active torsions:
REMARK  status: ('A' for Active; 'I' for Inactive)
REMARK    1  A    between atoms: C_10  and  C_21
REMARK    2  A    between atoms: C_12  and  C_14
REMARK    3  A    between atoms: C_26  and  O_27
REMARK    4  A    between atoms: O_27  and  C_28
REMARK                            x       y       z     vdW  Elec       q    Type
REMARK                         _______ _______ _______ _____ _____    ______ ____
ROOT
ATOM      1  C   UNL     1      -0.016   1.362   0.009  0.00  0.00    +0.002 A 
ATOM      2  C   UNL     1       1.168   2.084   0.002  0.00  0.00    +0.002 A 
ATOM      3  C   UNL     1       2.384   1.434  -0.015  0.00  0.00    +0.028 A 
ATOM      4  C   UNL     1       2.427   0.046  -0.025  0.00  0.00    +0.069 A 
ATOM      5  C   UNL     1       1.222  -0.686  -0.014  0.00  0.00    +0.066 A 
ATOM      6  C   UNL     1       0.002  -0.004   0.002  0.00  0.00    +0.028 A 
ATOM      7  N   UNL     1       1.549  -2.004  -0.019  0.00  0.00    -0.324 N 
ATOM      8  C   UNL     1       2.848  -2.135  -0.033  0.00  0.00    +0.210 A 
ATOM      9  N   UNL     1       3.434  -0.884  -0.046  0.00  0.00    -0.302 N 
ATOM     10  C   UNL     1       4.887  -0.698  -0.083  0.00  0.00    +0.130 C 
ATOM     11  C   UNL     1       5.537  -1.897   0.617  0.00  0.00    +0.086 C 
ATOM     12  C   UNL     1       4.878  -3.183   0.208  0.00  0.00    +0.054 C 
ATOM     13  N   UNL     1       3.602  -3.269  -0.058  0.00  0.00    -0.218 NA
ATOM     14  H   UNL     1       0.914  -2.737  -0.013  0.00  0.00    +0.169 HD
ENDROOT
BRANCH  12  15
ATOM     15  C   UNL     1       5.703  -4.396   0.101  0.00  0.00    -0.003 A 
ATOM     16  C   UNL     1       7.072  -4.341   0.384  0.00  0.00    +0.011 A 
ATOM     17  C   UNL     1       7.839  -5.481   0.282  0.00  0.00    +0.020 A 
ATOM     18  C   UNL     1       7.258  -6.680  -0.100  0.00  0.00    +0.041 A 
ATOM     19  C   UNL     1       5.903  -6.742  -0.381  0.00  0.00    +0.020 A 
ATOM     20  C   UNL     1       5.122  -5.611  -0.277  0.00  0.00    +0.011 A 
ATOM     21 CL   UNL     1       8.232  -8.111  -0.226  0.00  0.00    -0.084 Cl
ENDBRANCH  12  15
BRANCH  10  22
ATOM     22  C   UNL     1       5.256   0.574   0.636  0.00  0.00    +0.019 A 
ATOM     23  C   UNL     1       4.944   0.727   1.973  0.00  0.00    +0.024 A 
ATOM     24  C   UNL     1       5.282   1.894   2.634  0.00  0.00    +0.018 A 
ATOM     25  C   UNL     1       5.934   2.910   1.958  0.00  0.00    +0.019 A 
ATOM     26  C   UNL     1       6.249   2.761   0.621  0.00  0.00    +0.047 A 
ATOM     27  C   UNL     1       5.915   1.589  -0.042  0.00  0.00    +0.132 A 
ATOM     28 BR   UNL     1       4.853   2.102   4.464  0.00  0.00    -0.050 Br
BRANCH  27  29
ATOM     29  O   UNL     1       6.228   1.438  -1.356  0.00  0.00    -0.434 OA
BRANCH  29  30
ATOM     30  C   UNL     1       6.906   2.523  -1.990  0.00  0.00    +0.541 C 
ATOM     31  F   UNL     1       6.112   3.673  -1.923  0.00  0.00    -0.166 F 
ATOM     32  F   UNL     1       8.122   2.758  -1.339  0.00  0.00    -0.166 F 
ENDBRANCH  29  30
ENDBRANCH  27  29
ENDBRANCH  10  22
TORSDOF 4
