REMARK  Name = ZINC13101870
REMARK  3 active torsions:
REMARK  status: ('A' for Active; 'I' for Inactive)
REMARK    1  A    between atoms: C_1  and  C_2
REMARK    2  A    between atoms: C_10  and  C_11
REMARK    3  A    between atoms: C_23  and  C_27
REMARK                            x       y       z     vdW  Elec       q    Type
REMARK                         _______ _______ _______ _____ _____    ______ ____
ROOT
ATOM      1  C   UNL     1       0.031  -0.383   2.483  0.00  0.00    +0.178 A 
ATOM      2  N   UNL     1       0.060  -1.314   3.488  0.00  0.00    -0.304 N 
ATOM      3  H   UNL     1       0.075  -2.257   3.263  0.00  0.00    +0.170 HD
ATOM      4  C   UNL     1       0.068  -0.943   4.782  0.00  0.00    +0.260 A 
ATOM      5  O   UNL     1       0.094  -1.782   5.666  0.00  0.00    -0.267 OA
ATOM      6  C   UNL     1       0.045   0.454   5.106  0.00  0.00    +0.075 A 
ATOM      7  C   UNL     1       0.047   1.076   6.429  0.00  0.00    -0.023 A 
ATOM      8  C   UNL     1       0.023   2.425   6.472  0.00  0.00    -0.004 A 
ATOM      9  S   UNL     1      -0.004   2.939   4.776  0.00  0.00    -0.073 S 
ATOM     10  C   UNL     1       0.017   1.337   4.012  0.00  0.00    +0.116 A 
ATOM     11  N   UNL     1       0.016   0.908   2.758  0.00  0.00    -0.219 NA
ATOM     12  C   UNL     1       0.018   3.294   7.692  0.00  0.00    +0.046 C 
ATOM     13  C   UNL     1      -0.331   2.422   8.906  0.00  0.00    -0.009 C 
ATOM     14  C   UNL     1       0.530   1.156   8.865  0.00  0.00    +0.008 C 
ATOM     15  C   UNL     1       0.076   0.255   7.716  0.00  0.00    +0.037 C 
ATOM     16  C   UNL     1      -0.048   3.197  10.194  0.00  0.00    +0.008 C 
ENDROOT
BRANCH   1  26
ATOM     17  C   UNL     1      -0.018   1.503   0.010  0.00  0.00    +0.048 C 
ATOM     18  C   UNL     1       0.002  -0.004   0.002  0.00  0.00    +0.006 A 
ATOM     19  C   UNL     1       0.009  -0.877  -1.172  0.00  0.00    +0.024 A 
ATOM     20  C   UNL     1      -0.001  -0.655  -2.551  0.00  0.00    +0.012 A 
ATOM     21  C   UNL     1       0.010  -1.719  -3.408  0.00  0.00    +0.001 A 
ATOM     22  C   UNL     1       0.030  -3.017  -2.918  0.00  0.00    +0.004 A 
ATOM     23  C   UNL     1       0.040  -3.257  -1.561  0.00  0.00    +0.047 A 
ATOM     24  C   UNL     1       0.029  -2.191  -0.669  0.00  0.00    +0.136 A 
ATOM     25  O   UNL     1       0.035  -2.113   0.676  0.00  0.00    -0.451 OA
ATOM     26  C   UNL     1       0.024  -0.827   1.083  0.00  0.00    +0.174 A 
ENDBRANCH   1  26
TORSDOF 1
