REMARK  Name = ZINC40066663
REMARK  10 active torsions:
REMARK  status: ('A' for Active; 'I' for Inactive)
REMARK    1  A    between atoms: C_1  and  C_2
REMARK    2  A    between atoms: C_3  and  C_21
REMARK    3  A    between atoms: C_4  and  N_12
REMARK    4  A    between atoms: N_5  and  C_11
REMARK    5  A    between atoms: C_8  and  C_9
REMARK    6  A    between atoms: N_12  and  C_13
REMARK    7  A    between atoms: C_13  and  C_14
REMARK    8  A    between atoms: N_25  and  C_29
REMARK    9  A    between atoms: C_29  and  C_30
REMARK   10  A    between atoms: C_30  and  C_31
REMARK                            x       y       z     vdW  Elec       q    Type
REMARK                         _______ _______ _______ _____ _____    ______ ____
ROOT
ATOM      1  C   UNL     1       0.063   1.140  -0.608  0.00  0.00    +0.046 C 
ATOM      2  C   UNL     1      -0.051  -0.270  -0.088  0.00  0.00    -0.017 A 
ATOM      3  C   UNL     1      -1.309  -0.820   0.215  0.00  0.00    +0.019 A 
ATOM      4  C   UNL     1      -1.389  -2.136   0.698  0.00  0.00    +0.109 A 
ATOM      5  N   UNL     1      -0.264  -2.876   0.874  0.00  0.00    -0.298 N 
ATOM      6  C   UNL     1       0.951  -2.373   0.591  0.00  0.00    +0.270 A 
ATOM      7  O   UNL     1       1.944  -3.060   0.758  0.00  0.00    -0.266 OA
ATOM      8  C   UNL     1       1.086  -1.051   0.095  0.00  0.00    +0.120 A 
ATOM      9  C   UNL     1      -0.375  -4.247   1.380  0.00  0.00    +0.154 C 
ENDROOT
BRANCH   3  10
ATOM     10  C   UNL     1      -2.525  -0.027   0.029  0.00  0.00    +0.032 C 
ATOM     11  C   UNL     1      -3.530  -0.496  -0.759  0.00  0.00    +0.077 C 
ATOM     12  C   UNL     1      -4.828   0.048  -0.998  0.00  0.00    +0.258 C 
ATOM     13  O   UNL     1      -5.182   1.083  -0.462  0.00  0.00    -0.269 OA
ATOM     14  N   UNL     1      -5.634  -0.604  -1.817  0.00  0.00    -0.255 N 
ATOM     15  C   UNL     1      -5.241  -1.752  -2.412  0.00  0.00    +0.121 C 
ATOM     16  S   UNL     1      -6.110  -2.751  -3.497  0.00  0.00    -0.027 S 
ATOM     17  S   UNL     1      -3.581  -1.960  -1.785  0.00  0.00    -0.061 S 
BRANCH  14  18
ATOM     18  C   UNL     1      -6.974  -0.075  -2.085  0.00  0.00    +0.119 C 
BRANCH  18  19
ATOM     19  C   UNL     1      -6.919   0.865  -3.291  0.00  0.00    +0.054 C 
BRANCH  19  20
ATOM     20  C   UNL     1      -8.297   1.409  -3.567  0.00  0.00    -0.046 A 
ATOM     21  C   UNL     1      -9.151   0.732  -4.418  0.00  0.00    +0.004 A 
ATOM     22  C   UNL     1     -10.415   1.231  -4.670  0.00  0.00    +0.000 A 
ATOM     23  C   UNL     1     -10.826   2.407  -4.071  0.00  0.00    +0.000 A 
ATOM     24  C   UNL     1      -9.973   3.084  -3.219  0.00  0.00    +0.000 A 
ATOM     25  C   UNL     1      -8.710   2.582  -2.963  0.00  0.00    +0.004 A 
ENDBRANCH  19  20
ENDBRANCH  18  19
ENDBRANCH  14  18
ENDBRANCH   3  10
BRANCH   8  26
ATOM     26  C   UNL     1       2.382  -0.523  -0.209  0.00  0.00    +0.105 C 
ATOM     27  N   UNL     1       3.409  -0.103  -0.451  0.00  0.00    -0.191 NA
ENDBRANCH   8  26
BRANCH   4  28
ATOM     28  N   UNL     1      -2.606  -2.676   0.994  0.00  0.00    -0.326 N 
ATOM     29  H   UNL     1      -3.071  -3.216   0.336  0.00  0.00    +0.148 HD
BRANCH  28  30
ATOM     30  C   UNL     1      -3.213  -2.439   2.307  0.00  0.00    +0.138 C 
BRANCH  30  31
ATOM     31  C   UNL     1      -4.483  -3.242   2.425  0.00  0.00    -0.030 A 
ATOM     32  C   UNL     1      -5.686  -2.695   2.021  0.00  0.00    +0.008 A 
ATOM     33  C   UNL     1      -6.851  -3.430   2.129  0.00  0.00    +0.038 A 
ATOM     34  C   UNL     1      -6.813  -4.716   2.642  0.00  0.00    +0.123 A 
ATOM     35  C   UNL     1      -5.607  -5.263   3.046  0.00  0.00    +0.038 A 
ATOM     36  C   UNL     1      -4.442  -4.527   2.932  0.00  0.00    +0.008 A 
ATOM     37  F   UNL     1      -7.951  -5.436   2.748  0.00  0.00    -0.205 F 
ENDBRANCH  30  31
ENDBRANCH  28  30
ENDBRANCH   4  28
TORSDOF 8
