REMARK  Name = ZINC19192850
REMARK  10 active torsions:
REMARK  status: ('A' for Active; 'I' for Inactive)
REMARK    1  A    between atoms: C_1  and  C_2
REMARK    2  A    between atoms: C_5  and  N_32
REMARK    3  A    between atoms: C_6  and  O_8
REMARK    4  A    between atoms: O_8  and  C_9
REMARK    5  A    between atoms: C_9  and  C_10
REMARK    6  A    between atoms: N_12  and  C_13
REMARK    7  A    between atoms: C_16  and  S_19
REMARK    8  A    between atoms: S_19  and  N_22
REMARK    9  A    between atoms: C_24  and  C_31
REMARK   10  A    between atoms: C_27  and  C_30
REMARK                            x       y       z     vdW  Elec       q    Type
REMARK                         _______ _______ _______ _____ _____    ______ ____
ROOT
ATOM      1  C   UNL     1      -6.387   2.283   0.078  0.00  0.00    +0.034 A 
ATOM      2  C   UNL     1      -5.693   2.492   1.262  0.00  0.00    +0.025 A 
ATOM      3  C   UNL     1      -4.519   3.220   1.254  0.00  0.00    +0.030 A 
ATOM      4  C   UNL     1      -4.035   3.741   0.068  0.00  0.00    +0.106 A 
ATOM      5  C   UNL     1      -4.727   3.539  -1.113  0.00  0.00    +0.030 A 
ATOM      6  C   UNL     1      -5.898   2.807  -1.112  0.00  0.00    +0.025 A 
ENDROOT
BRANCH   1   9
ATOM      7  C   UNL     1      -8.398   1.600   1.149  0.00  0.00    +0.255 C 
ATOM      8  O   UNL     1      -8.157   2.360   2.062  0.00  0.00    -0.272 OA
ATOM      9  N   UNL     1      -7.576   1.545   0.083  0.00  0.00    -0.283 N 
ATOM     10  H   UNL     1      -7.839   0.921  -0.784  0.00  0.00    +0.155 HD
BRANCH   7  11
ATOM     11  C   UNL     1      -9.618   0.716   1.206  0.00  0.00    +0.325 C 
BRANCH  11  12
ATOM     12  O   UNL     1     -10.323   0.955   2.425  0.00  0.00    -0.480 OA
BRANCH  12  18
ATOM     13  C   UNL     1     -13.490  -2.418   0.873  0.00  0.00    +0.044 C 
ATOM     14  C   UNL     1     -13.030  -1.419   1.902  0.00  0.00    -0.047 A 
ATOM     15  C   UNL     1     -13.759  -1.236   3.063  0.00  0.00    +0.006 A 
ATOM     16  C   UNL     1     -13.340  -0.320   4.009  0.00  0.00    +0.037 A 
ATOM     17  C   UNL     1     -12.187   0.411   3.800  0.00  0.00    +0.168 A 
ATOM     18  C   UNL     1     -11.455   0.234   2.635  0.00  0.00    +0.152 A 
ATOM     19  C   UNL     1     -11.879  -0.686   1.687  0.00  0.00    +0.051 A 
BRANCH  17  20
ATOM     20  N   UNL     1     -11.735   1.388   4.817  0.00  0.00    +0.060 N 
ATOM     21  O   UNL     1     -12.377   1.543   5.840  0.00  0.00    -0.126 OA
ATOM     22  O   UNL     1     -10.720   2.036   4.630  0.00  0.00    -0.126 OA
ENDBRANCH  17  20
ENDBRANCH  12  18
ENDBRANCH  11  12
ENDBRANCH   7  11
ENDBRANCH   1   9
BRANCH   4  23
ATOM     23  S   UNL     1      -2.538   4.669   0.062  0.00  0.00    +0.061 S 
ATOM     24  O   UNL     1      -2.373   5.183   1.376  0.00  0.00    -0.153 OA
ATOM     25  O   UNL     1      -2.585   5.509  -1.084  0.00  0.00    -0.153 OA
BRANCH  23  26
ATOM     26  N   UNL     1      -1.299   3.599  -0.187  0.00  0.00    -0.176 NA
ATOM     27  C   UNL     1      -0.847   3.280  -1.548  0.00  0.00    +0.112 C 
ATOM     28  C   UNL     1      -0.871   1.760  -1.733  0.00  0.00    +0.002 C 
ATOM     29  C   UNL     1      -0.045   1.102  -0.626  0.00  0.00    +0.009 C 
ATOM     30  C   UNL     1      -0.658   1.433   0.736  0.00  0.00    +0.002 C 
ATOM     31  C   UNL     1      -0.631   2.950   0.949  0.00  0.00    +0.112 C 
ATOM     32  C   UNL     1       0.149   0.748   1.841  0.00  0.00    +0.009 C 
ATOM     33  C   UNL     1      -2.316   1.260  -1.658  0.00  0.00    +0.009 C 
ENDBRANCH  23  26
ENDBRANCH   4  23
TORSDOF 7
