REMARK  Name = ZINC13353948
REMARK  9 active torsions:
REMARK  status: ('A' for Active; 'I' for Inactive)
REMARK    1  A    between atoms: C_1  and  C_2
REMARK    2  A    between atoms: C_2  and  C_3
REMARK    3  A    between atoms: C_2  and  N_4
REMARK    4  A    between atoms: C_13  and  S_14
REMARK    5  A    between atoms: S_14  and  C_15
REMARK    6  A    between atoms: C_15  and  C_16
REMARK    7  A    between atoms: N_18  and  C_19
REMARK    8  A    between atoms: C_21  and  C_27
REMARK    9  A    between atoms: C_23  and  C_25
REMARK                            x       y       z     vdW  Elec       q    Type
REMARK                         _______ _______ _______ _____ _____    ______ ____
ROOT
ATOM      1  S   UNL     1      -3.875   3.090   0.083  0.00  0.00    -0.078 S 
ENDROOT
BRANCH   1  11
ATOM      2  N   UNL     1      -6.132   1.616   0.355  0.00  0.00    -0.285 N 
ATOM      3  C   UNL     1      -6.849   0.487   0.504  0.00  0.00    +0.263 A 
ATOM      4  O   UNL     1      -8.067   0.529   0.560  0.00  0.00    -0.267 OA
ATOM      5  C   UNL     1      -6.161  -0.763   0.602  0.00  0.00    +0.076 A 
ATOM      6  C   UNL     1      -6.741  -2.105   0.773  0.00  0.00    -0.023 A 
ATOM      7  C   UNL     1      -5.881  -3.134   0.838  0.00  0.00    -0.004 A 
ATOM      8  S   UNL     1      -4.270  -2.399   0.679  0.00  0.00    -0.073 S 
ATOM      9  C   UNL     1      -4.762  -0.702   0.526  0.00  0.00    +0.117 A 
ATOM     10  N   UNL     1      -4.112   0.446   0.373  0.00  0.00    -0.216 NA
ATOM     11  C   UNL     1      -4.769   1.585   0.285  0.00  0.00    +0.173 A 
ATOM     12  C   UNL     1      -6.585  -4.454   1.008  0.00  0.00    +0.043 C 
ATOM     13  C   UNL     1      -8.050  -4.165   0.610  0.00  0.00    +0.010 C 
ATOM     14  C   UNL     1      -8.163  -2.657   0.906  0.00  0.00    +0.037 C 
BRANCH   2  16
ATOM     15  C   UNL     1      -7.779   2.880  -0.939  0.00  0.00    +0.031 C 
ATOM     16  C   UNL     1      -6.827   2.902   0.259  0.00  0.00    +0.087 C 
ATOM     17  C   UNL     1      -7.627   3.147   1.540  0.00  0.00    +0.031 C 
ENDBRANCH   2  16
ENDBRANCH   1  11
BRANCH   1  18
ATOM     18  C   UNL     1      -2.182   2.450   0.067  0.00  0.00    +0.173 C 
BRANCH  18  19
ATOM     19  C   UNL     1      -1.215   3.593  -0.101  0.00  0.00    +0.227 C 
ATOM     20  O   UNL     1      -1.629   4.729  -0.200  0.00  0.00    -0.275 OA
ATOM     21  N   UNL     1       0.111   3.354  -0.141  0.00  0.00    -0.285 N 
ATOM     22  H   UNL     1       0.439   2.441  -0.133  0.00  0.00    +0.155 HD
BRANCH  21  23
ATOM     23  C   UNL     1       1.014   4.422  -0.201  0.00  0.00    +0.035 A 
ATOM     24  C   UNL     1       0.691   5.561  -0.924  0.00  0.00    +0.038 A 
ATOM     25  C   UNL     1       1.587   6.630  -0.981  0.00  0.00    +0.066 A 
ATOM     26  C   UNL     1       2.811   6.548  -0.319  0.00  0.00    +0.030 A 
ATOM     27  C   UNL     1       3.134   5.400   0.402  0.00  0.00    +0.066 A 
ATOM     28  C   UNL     1       2.231   4.337   0.459  0.00  0.00    +0.038 A 
BRANCH  27  29
ATOM     29  C   UNL     1       4.430   5.309   1.106  0.00  0.00    +0.387 C 
ATOM     30  O   UNL     1       4.710   4.308   1.734  0.00  0.00    -0.241 OA
ATOM     31  O   UNL     1       5.300   6.336   1.050  0.00  0.00    -0.241 OA
ENDBRANCH  27  29
BRANCH  25  32
ATOM     32  C   UNL     1       1.240   7.845  -1.747  0.00  0.00    +0.387 C 
ATOM     33  O   UNL     1       0.173   7.916  -2.324  0.00  0.00    -0.241 OA
ATOM     34  O   UNL     1       2.107   8.875  -1.806  0.00  0.00    -0.241 OA
ENDBRANCH  25  32
ENDBRANCH  21  23
ENDBRANCH  18  19
ENDBRANCH   1  18
TORSDOF 7
