REMARK  Name = ZINC39226464
REMARK  7 active torsions:
REMARK  status: ('A' for Active; 'I' for Inactive)
REMARK    1  A    between atoms: C_1  and  C_2
REMARK    2  A    between atoms: C_2  and  C_38
REMARK    3  A    between atoms: C_7  and  C_12
REMARK    4  A    between atoms: C_12  and  N_13
REMARK    5  A    between atoms: C_14  and  C_16
REMARK    6  A    between atoms: C_19  and  C_22
REMARK    7  A    between atoms: N_34  and  C_37
REMARK                            x       y       z     vdW  Elec       q    Type
REMARK                         _______ _______ _______ _____ _____    ______ ____
ROOT
ATOM      1  C   UNL     1       4.241  -5.683   0.363  0.00  0.00    +0.037 A 
ATOM      2  C   UNL     1       3.373  -6.540   1.043  0.00  0.00    +0.013 A 
ATOM      3  C   UNL     1       3.707  -7.864   1.214  0.00  0.00    +0.009 A 
ATOM      4  C   UNL     1       4.913  -8.351   0.709  0.00  0.00    -0.018 A 
ATOM      5  C   UNL     1       5.782  -7.495   0.030  0.00  0.00    +0.009 A 
ATOM      6  C   UNL     1       5.447  -6.172  -0.147  0.00  0.00    +0.013 A 
ENDROOT
BRANCH   4   7
ATOM      7  C   UNL     1       5.273  -9.777   0.894  0.00  0.00    -0.017 A 
ATOM      8  C   UNL     1       4.405 -10.636   1.568  0.00  0.00    +0.012 A 
ATOM      9  C   UNL     1       4.746 -11.959   1.739  0.00  0.00    +0.046 A 
ATOM     10  C   UNL     1       5.953 -12.445   1.241  0.00  0.00    +0.124 A 
ATOM     11  C   UNL     1       6.815 -11.594   0.567  0.00  0.00    -0.005 A 
ATOM     12  C   UNL     1       6.476 -10.266   0.391  0.00  0.00    +0.015 A 
ATOM     13  C   UNL     1       8.124 -12.088   0.003  0.00  0.00    +0.043 C 
ATOM     14  C   UNL     1       8.504 -13.413   0.668  0.00  0.00    +0.052 C 
ATOM     15  C   UNL     1       7.281 -14.335   0.640  0.00  0.00    +0.108 C 
ATOM     16  O   UNL     1       6.252 -13.755   1.439  0.00  0.00    -0.486 OA
ATOM     17  C   UNL     1       7.662 -15.707   1.202  0.00  0.00    +0.029 C 
ATOM     18  C   UNL     1       6.460 -16.648   1.097  0.00  0.00    -0.075 C 
ATOM     19  N   UNL     1       6.063 -16.783  -0.310  0.00  0.00    +0.378 N 
ATOM     20  C   UNL     1       5.623 -15.483  -0.831  0.00  0.00    -0.075 C 
ATOM     21  C   UNL     1       6.793 -14.496  -0.801  0.00  0.00    +0.029 C 
ATOM     22  C   UNL     1       4.961 -17.749  -0.416  0.00  0.00    -0.096 C 
ATOM     23  H   UNL     1       6.849 -17.112  -0.850  0.00  0.00    -0.082 HD
ENDBRANCH   4   7
BRANCH   1  25
ATOM     24  N   UNL     1       2.720  -3.791   0.670  0.00  0.00    -0.311 N 
ATOM     25  C   UNL     1       3.883  -4.262   0.178  0.00  0.00    +0.244 C 
ATOM     26  O   UNL     1       4.637  -3.518  -0.418  0.00  0.00    -0.270 OA
ATOM     27  H   UNL     1       2.119  -4.385   1.146  0.00  0.00    +0.149 HD
BRANCH  24  28
ATOM     28  C   UNL     1       2.365  -2.382   0.487  0.00  0.00    +0.108 C 
BRANCH  28  34
ATOM     29  C   UNL     1      -0.019   1.535   0.011  0.00  0.00    +0.011 C 
ATOM     30  C   UNL     1       0.002  -0.004   0.002  0.00  0.00    -0.029 C 
ATOM     31  C   UNL     1      -1.263  -0.626   0.619  0.00  0.00    -0.005 C 
ATOM     32  C   UNL     1      -1.407  -2.112   0.291  0.00  0.00    +0.004 C 
ATOM     33  C   UNL     1      -0.099  -2.879   0.430  0.00  0.00    +0.005 C 
ATOM     34  C   UNL     1       1.005  -2.109   1.137  0.00  0.00    +0.010 C 
ATOM     35  C   UNL     1       0.724  -0.610   1.207  0.00  0.00    -0.000 C 
ATOM     36  C   UNL     1      -0.598  -0.386   1.986  0.00  0.00    +0.008 C 
ATOM     37  C   UNL     1       0.380  -0.545  -1.374  0.00  0.00    +0.011 C 
ENDBRANCH  28  34
ENDBRANCH  24  28
ENDBRANCH   1  25
TORSDOF 4
