REMARK  Name = ZINC30777410
REMARK  4 active torsions:
REMARK  status: ('A' for Active; 'I' for Inactive)
REMARK    1  A    between atoms: C_5  and  N_7
REMARK    2  A    between atoms: C_8  and  C_10
REMARK    3  A    between atoms: N_15  and  C_17
REMARK    4  A    between atoms: C_21  and  N_23
REMARK                            x       y       z     vdW  Elec       q    Type
REMARK                         _______ _______ _______ _____ _____    ______ ____
ROOT
ATOM      1  C   UNL     1       3.630   6.004  -0.217  0.00  0.00    +0.102 C 
ATOM      2  C   UNL     1       4.449   5.910   1.091  0.00  0.00    +0.110 C 
ATOM      3  C   UNL     1       5.079   7.279   1.233  0.00  0.00    +0.221 C 
ATOM      4  O   UNL     1       6.010   7.542   1.964  0.00  0.00    -0.275 OA
ATOM      5  N   UNL     1       4.456   8.160   0.432  0.00  0.00    -0.271 N 
ATOM      6  C   UNL     1       3.364   7.522  -0.314  0.00  0.00    +0.127 C 
ENDROOT
BRANCH   5   7
ATOM      7  C   UNL     1       4.803   9.512   0.323  0.00  0.00    +0.039 A 
ATOM      8  C   UNL     1       4.030  10.368  -0.450  0.00  0.00    +0.026 A 
ATOM      9  C   UNL     1       4.375  11.701  -0.556  0.00  0.00    +0.042 A 
ATOM     10  C   UNL     1       5.490  12.184   0.108  0.00  0.00    +0.154 A 
ATOM     11  C   UNL     1       6.262  11.332   0.879  0.00  0.00    +0.163 A 
ATOM     12  C   UNL     1       5.917   9.999   0.993  0.00  0.00    +0.059 A 
ATOM     13  F   UNL     1       5.825  13.489   0.003  0.00  0.00    -0.203 F 
BRANCH  11  14
ATOM     14  N   UNL     1       7.454  11.851   1.588  0.00  0.00    +0.059 N 
ATOM     15  O   UNL     1       8.133  11.102   2.266  0.00  0.00    -0.126 OA
ATOM     16  O   UNL     1       7.755  13.027   1.492  0.00  0.00    -0.126 OA
ENDBRANCH  11  14
ENDBRANCH   5   7
BRANCH   1  18
ATOM     17  N   UNL     1       2.359   3.893  -0.004  0.00  0.00    -0.283 N 
ATOM     18  C   UNL     1       2.338   5.237  -0.100  0.00  0.00    +0.222 C 
ATOM     19  O   UNL     1       1.280   5.829  -0.092  0.00  0.00    -0.275 OA
ATOM     20  H   UNL     1       3.319   3.362   0.082  0.00  0.00    +0.155 HD
BRANCH  17  25
ATOM     21  C   UNL     1      -1.154   2.995  -0.621  0.00  0.00    +0.002 A 
ATOM     22  C   UNL     1      -1.213   1.744  -0.035  0.00  0.00    +0.003 A 
ATOM     23  C   UNL     1      -0.091   1.206   0.569  0.00  0.00    +0.040 A 
ATOM     24  C   UNL     1       1.096   1.915   0.580  0.00  0.00    +0.144 A 
ATOM     25  C   UNL     1       1.159   3.171  -0.013  0.00  0.00    +0.069 A 
ATOM     26  C   UNL     1       0.029   3.709  -0.613  0.00  0.00    +0.026 A 
ATOM     27  F   UNL     1       2.193   1.388   1.166  0.00  0.00    -0.204 F 
ENDBRANCH  17  25
ENDBRANCH   1  18
TORSDOF 4
