REMARK  Name = ZINC01324162
REMARK  4 active torsions:
REMARK  status: ('A' for Active; 'I' for Inactive)
REMARK    1  A    between atoms: C_6  and  C_7
REMARK    2  A    between atoms: C_7  and  S_8
REMARK    3  A    between atoms: S_8  and  C_9
REMARK    4  A    between atoms: N_15  and  C_16
REMARK                            x       y       z     vdW  Elec       q    Type
REMARK                         _______ _______ _______ _____ _____    ______ ____
ROOT
ATOM      1  C   UNL     1       1.712   2.138  -0.105  0.00  0.00    +0.193 A 
ATOM      2  N   UNL     1       2.654   1.240  -0.078  0.00  0.00    -0.145 NA
ATOM      3  N   UNL     1       3.883   1.904   0.038  0.00  0.00    -0.226 N 
ATOM      4  H   UNL     1       4.758   1.488   0.079  0.00  0.00    +0.194 HD
ATOM      5  C   UNL     1       3.624   3.227   0.086  0.00  0.00    +0.345 A 
ATOM      6  O   UNL     1       4.448   4.118   0.189  0.00  0.00    -0.245 OA
ATOM      7  N   UNL     1       2.288   3.384  -0.002  0.00  0.00    -0.267 N 
ENDROOT
BRANCH   7   8
ATOM      8  C   UNL     1       1.572   4.662   0.012  0.00  0.00    +0.102 C 
ATOM      9  C   UNL     1       0.685   4.776   1.276  0.00  0.00    +0.033 C 
ATOM     10  C   UNL     1       1.264   6.020   2.022  0.00  0.00    +0.014 C 
ATOM     11  C   UNL     1       2.796   5.849   1.712  0.00  0.00    +0.017 C 
ATOM     12  C   UNL     1       2.574   5.851   0.155  0.00  0.00    +0.035 C 
ATOM     13  C   UNL     1       1.693   7.099   0.018  0.00  0.00    -0.025 C 
ATOM     14  C   UNL     1       0.939   7.196   1.095  0.00  0.00    -0.027 C 
ENDBRANCH   7   8
BRANCH   1  15
ATOM     15  S   UNL     1      -0.015   1.813  -0.243  0.00  0.00    -0.081 S 
BRANCH  15  16
ATOM     16  C   UNL     1       0.012   0.005  -0.332  0.00  0.00    +0.112 C 
BRANCH  16  22
ATOM     17  C   UNL     1      -1.959  -0.690  -1.708  0.00  0.00    +0.006 A 
ATOM     18  C   UNL     1      -3.252  -1.165  -1.825  0.00  0.00    +0.022 A 
ATOM     19  C   UNL     1      -3.985  -1.463  -0.690  0.00  0.00    +0.059 A 
ATOM     20  C   UNL     1      -3.421  -1.285   0.563  0.00  0.00    +0.060 A 
ATOM     21  C   UNL     1      -2.126  -0.815   0.677  0.00  0.00    +0.026 A 
ATOM     22  C   UNL     1      -1.397  -0.513  -0.458  0.00  0.00    -0.036 A 
ATOM     23 CL   UNL     1      -4.339  -1.659   1.988  0.00  0.00    -0.082 Cl
ATOM     24 CL   UNL     1      -5.608  -2.059  -0.836  0.00  0.00    -0.082 Cl
ENDBRANCH  16  22
ENDBRANCH  15  16
ENDBRANCH   1  15
TORSDOF 4
