REMARK  Name = ZINC39635809
REMARK  8 active torsions:
REMARK  status: ('A' for Active; 'I' for Inactive)
REMARK    1  A    between atoms: C_1  and  C_2
REMARK    2  A    between atoms: C_8  and  N_10
REMARK    3  A    between atoms: C_11  and  C_13
REMARK    4  A    between atoms: C_24  and  C_26
REMARK    5  A    between atoms: C_29  and  O_34
REMARK    6  A    between atoms: C_31  and  O_32
REMARK    7  A    between atoms: O_32  and  C_33
REMARK    8  A    between atoms: O_34  and  C_35
REMARK                            x       y       z     vdW  Elec       q    Type
REMARK                         _______ _______ _______ _____ _____    ______ ____
ROOT
ATOM      1  C   UNL     1       4.571   1.481   2.428  0.00  0.00    +0.100 C 
ATOM      2  C   UNL     1       5.234   0.289   1.702  0.00  0.00    +0.121 C 
ATOM      3  N   UNL     1       6.456   0.003   2.491  0.00  0.00    -0.296 N 
ATOM      4  C   UNL     1       6.035   0.184   3.901  0.00  0.00    +0.115 C 
ATOM      5  C   UNL     1       5.099   1.408   3.871  0.00  0.00    -0.004 C 
ATOM      6  C   UNL     1       5.876   2.675   4.214  0.00  0.00    -0.010 C 
ATOM      7  C   UNL     1       6.342   2.603   5.671  0.00  0.00    -0.082 C 
ATOM      8  N   UNL     1       5.177   2.466   6.553  0.00  0.00    +0.379 N 
ATOM      9  C   UNL     1       4.487   1.199   6.279  0.00  0.00    -0.082 C 
ATOM     10  C   UNL     1       3.943   1.211   4.848  0.00  0.00    -0.010 C 
ATOM     11  C   UNL     1       7.674  -0.343   2.030  0.00  0.00    +0.250 C 
ATOM     12  O   UNL     1       8.562  -0.626   2.811  0.00  0.00    -0.270 OA
ATOM     13  H   UNL     1       5.481   2.480   7.515  0.00  0.00    -0.086 HD
ATOM     14  H   UNL     1       4.542   3.234   6.393  0.00  0.00    -0.086 HD
ENDROOT
BRANCH  11  15
ATOM     15  C   UNL     1       7.931  -0.377   0.580  0.00  0.00    +0.079 A 
ATOM     16  C   UNL     1       6.958  -0.874  -0.293  0.00  0.00    +0.020 A 
ATOM     17  C   UNL     1       7.201  -0.905  -1.647  0.00  0.00    +0.046 A 
ATOM     18  C   UNL     1       8.413  -0.443  -2.152  0.00  0.00    +0.124 A 
ATOM     19  C   UNL     1       9.385   0.052  -1.295  0.00  0.00    +0.092 A 
ATOM     20  C   UNL     1       9.150   0.093   0.069  0.00  0.00    +0.136 A 
BRANCH  20  21
ATOM     21  O   UNL     1      10.097   0.582   0.908  0.00  0.00    -0.494 OA
ATOM     22  C   UNL     1      11.313   1.043   0.316  0.00  0.00    +0.277 C 
ENDBRANCH  20  21
BRANCH  18  23
ATOM     23  O   UNL     1       8.645  -0.476  -3.489  0.00  0.00    -0.495 OA
ATOM     24  C   UNL     1       7.602  -0.998  -4.315  0.00  0.00    +0.277 C 
ENDBRANCH  18  23
ENDBRANCH  11  15
BRANCH   1  26
ATOM     25  N   UNL     1       2.289   2.435   2.423  0.00  0.00    -0.312 N 
ATOM     26  C   UNL     1       3.071   1.338   2.410  0.00  0.00    +0.218 C 
ATOM     27  O   UNL     1       2.568   0.234   2.385  0.00  0.00    -0.275 OA
ATOM     28  H   UNL     1       2.691   3.317   2.444  0.00  0.00    +0.149 HD
BRANCH  25  35
ATOM     29  C   UNL     1       0.673   3.683   4.477  0.00  0.00    +0.009 C 
ATOM     30  C   UNL     1       0.192   3.537   3.032  0.00  0.00    +0.006 C 
ATOM     31  C   UNL     1      -1.331   3.391   3.014  0.00  0.00    +0.005 C 
ATOM     32  C   UNL     1      -1.812   3.244   1.569  0.00  0.00    +0.000 C 
ATOM     33  C   UNL     1      -1.173   2.003   0.943  0.00  0.00    +0.002 C 
ATOM     34  C   UNL     1       0.349   2.149   0.961  0.00  0.00    +0.022 C 
ATOM     35  C   UNL     1       0.831   2.295   2.406  0.00  0.00    +0.076 C 
ENDBRANCH  25  35
ENDBRANCH   1  26
TORSDOF 5
