REMARK  Name = ZINC16479552
REMARK  7 active torsions:
REMARK  status: ('A' for Active; 'I' for Inactive)
REMARK    1  A    between atoms: C_4  and  C_7
REMARK    2  A    between atoms: C_7  and  N_8
REMARK    3  A    between atoms: N_8  and  C_9
REMARK    4  A    between atoms: N_8  and  S_26
REMARK    5  A    between atoms: C_9  and  C_10
REMARK    6  A    between atoms: N_12  and  N_13
REMARK    7  A    between atoms: S_26  and  C_29
REMARK                            x       y       z     vdW  Elec       q    Type
REMARK                         _______ _______ _______ _____ _____    ______ ____
ROOT
ATOM      1  C   UNL     1      -0.018   1.503   0.010  0.00  0.00    +0.207 C 
ENDROOT
BRANCH   1   2
ATOM      2  C   UNL     1       0.002  -0.004   0.002  0.00  0.00    +0.248 C 
ATOM      3  O   UNL     1       1.061  -0.596  -0.011  0.00  0.00    -0.273 OA
ATOM      4  N   UNL     1      -1.156  -0.694   0.009  0.00  0.00    -0.206 N 
ATOM      5  H   UNL     1      -2.002  -0.220   0.020  0.00  0.00    +0.177 HD
BRANCH   4   6
ATOM      6  N   UNL     1      -1.137  -2.095   0.002  0.00  0.00    -0.189 NA
ATOM      7  C   UNL     1      -2.237  -2.750   0.009  0.00  0.00    +0.037 C 
ATOM      8  C   UNL     1      -3.552  -2.014   0.032  0.00  0.00    +0.052 C 
ATOM      9  C   UNL     1      -3.589  -1.009  -1.127  0.00  0.00    +0.006 C 
ATOM     10  C   UNL     1      -4.744  -1.356  -2.069  0.00  0.00    +0.000 C 
ATOM     11  C   UNL     1      -4.232  -1.396  -3.510  0.00  0.00    +0.000 C 
ATOM     12  C   UNL     1      -4.648  -2.716  -4.163  0.00  0.00    +0.000 C 
ATOM     13  C   UNL     1      -3.410  -3.426  -4.713  0.00  0.00    +0.000 C 
ATOM     14  C   UNL     1      -3.356  -4.855  -4.168  0.00  0.00    +0.000 C 
ATOM     15  C   UNL     1      -1.986  -5.109  -3.535  0.00  0.00    +0.000 C 
ATOM     16  C   UNL     1      -2.172  -5.607  -2.101  0.00  0.00    +0.000 C 
ATOM     17  C   UNL     1      -1.336  -4.748  -1.150  0.00  0.00    +0.006 C 
ATOM     18  C   UNL     1      -2.216  -4.256   0.000  0.00  0.00    +0.052 C 
ENDBRANCH   4   6
ENDBRANCH   1   2
BRANCH   1  19
ATOM     19  N   UNL     1       1.356   2.010  -0.000  0.00  0.00    -0.163 NA
BRANCH  19  20
ATOM     20  S   UNL     1       2.076   2.421  -1.433  0.00  0.00    +0.062 S 
ATOM     21  O   UNL     1       3.468   2.188  -1.270  0.00  0.00    -0.153 OA
ATOM     22  O   UNL     1       1.315   1.803  -2.462  0.00  0.00    -0.153 OA
BRANCH  20  23
ATOM     23  C   UNL     1       1.877   4.160  -1.636  0.00  0.00    +0.106 A 
ATOM     24  C   UNL     1       0.767   4.657  -2.294  0.00  0.00    +0.028 A 
ATOM     25  C   UNL     1       0.608   6.021  -2.448  0.00  0.00    +0.002 A 
ATOM     26  C   UNL     1       1.564   6.889  -1.955  0.00  0.00    +0.000 A 
ATOM     27  C   UNL     1       2.677   6.392  -1.302  0.00  0.00    +0.002 A 
ATOM     28  C   UNL     1       2.833   5.028  -1.143  0.00  0.00    +0.028 A 
ENDBRANCH  20  23
ENDBRANCH  19  20
BRANCH  19  29
ATOM     29  C   UNL     1       2.094   2.153   1.258  0.00  0.00    +0.145 C 
BRANCH  29  33
ATOM     30  C   UNL     1       3.912  -1.576   2.274  0.00  0.00    +0.000 A 
ATOM     31  C   UNL     1       4.599  -0.661   1.499  0.00  0.00    +0.000 A 
ATOM     32  C   UNL     1       4.011   0.546   1.170  0.00  0.00    +0.005 A 
ATOM     33  C   UNL     1       2.735   0.837   1.616  0.00  0.00    -0.032 A 
ATOM     34  C   UNL     1       2.050  -0.076   2.396  0.00  0.00    +0.005 A 
ATOM     35  C   UNL     1       2.637  -1.285   2.721  0.00  0.00    +0.000 A 
ENDBRANCH  29  33
ENDBRANCH  19  29
ENDBRANCH   1  19
TORSDOF 7
