REMARK  Name = ZINC06301082
REMARK  9 active torsions:
REMARK  status: ('A' for Active; 'I' for Inactive)
REMARK    1  A    between atoms: C_1  and  C_2
REMARK    2  A    between atoms: C_4  and  C_34
REMARK    3  A    between atoms: C_9  and  C_14
REMARK    4  A    between atoms: C_14  and  C_16
REMARK    5  A    between atoms: C_14  and  N_61
REMARK    6  A    between atoms: N_20  and  C_21
REMARK    7  A    between atoms: C_21  and  C_22
REMARK    8  A    between atoms: C_22  and  O_23
REMARK    9  A    between atoms: O_23  and  C_24
REMARK                            x       y       z     vdW  Elec       q    Type
REMARK                         _______ _______ _______ _____ _____    ______ ____
ROOT
ATOM      1  C   UNL     1      -1.194  -0.920   0.009  0.00  0.00    +0.039 C 
ENDROOT
BRANCH   1  10
ATOM      2  C   UNL     1      -2.730  -3.775   6.726  0.00  0.00    +0.044 C 
ATOM      3  C   UNL     1      -2.719  -2.618   5.761  0.00  0.00    -0.050 A 
ATOM      4  C   UNL     1      -3.206  -1.381   6.164  0.00  0.00    +0.008 A 
ATOM      5  C   UNL     1      -3.205  -0.309   5.299  0.00  0.00    -0.026 A 
ATOM      6  C   UNL     1      -2.713  -0.464   4.007  0.00  0.00    +0.052 A 
ATOM      7  C   UNL     1      -2.220  -1.719   3.602  0.00  0.00    -0.001 A 
ATOM      8  C   UNL     1      -2.231  -2.794   4.497  0.00  0.00    +0.013 A 
ATOM      9  C   UNL     1      -1.704  -1.873   2.240  0.00  0.00    +0.017 A 
ATOM     10  C   UNL     1      -1.719  -0.796   1.417  0.00  0.00    +0.011 A 
ATOM     11  C   UNL     1      -2.219   0.442   1.874  0.00  0.00    +0.251 A 
ATOM     12  O   UNL     1      -2.219   1.399   1.119  0.00  0.00    -0.268 OA
ATOM     13  N   UNL     1      -2.700   0.591   3.120  0.00  0.00    -0.322 N 
ATOM     14  H   UNL     1      -3.040   1.455   3.401  0.00  0.00    +0.169 HD
ATOM     15  C   UNL     1      -3.736   1.027   5.750  0.00  0.00    +0.046 C 
ENDBRANCH   1  10
BRANCH   1  25
ATOM     16  C   UNL     1      -3.439  -1.268  -0.835  0.00  0.00    -0.072 C 
ATOM     17  C   UNL     1      -4.572  -0.533  -1.552  0.00  0.00    +0.017 C 
ATOM     18  C   UNL     1      -4.127  -0.123  -2.932  0.00  0.00    -0.048 A 
ATOM     19  C   UNL     1      -5.094   0.232  -3.861  0.00  0.00    +0.004 A 
ATOM     20  C   UNL     1      -4.728   0.622  -5.133  0.00  0.00    +0.000 A 
ATOM     21  C   UNL     1      -3.392   0.658  -5.484  0.00  0.00    +0.000 A 
ATOM     22  C   UNL     1      -2.429   0.302  -4.562  0.00  0.00    +0.002 A 
ATOM     23  C   UNL     1      -2.794  -0.091  -3.283  0.00  0.00    -0.061 A 
ATOM     24  C   UNL     1      -1.708  -0.474  -2.312  0.00  0.00    -0.041 C 
ATOM     25  N   UNL     1      -2.226  -0.432  -0.934  0.00  0.00    +0.392 N 
ATOM     26  H   UNL     1      -2.465   0.537  -0.695  0.00  0.00    -0.080 HD
ENDBRANCH   1  25
BRANCH   1  27
ATOM     27  C   UNL     1       0.048  -0.080  -0.140  0.00  0.00    +0.143 A 
ATOM     28  N   UNL     1       0.099   1.222  -0.288  0.00  0.00    -0.115 NA
ATOM     29  N   UNL     1       1.338   1.563  -0.380  0.00  0.00    -0.023 NA
ATOM     30  N   UNL     1       2.078   0.513  -0.295  0.00  0.00    -0.044 NA
ATOM     31  N   UNL     1       1.320  -0.520  -0.146  0.00  0.00    -0.228 N 
BRANCH  31  32
ATOM     32  C   UNL     1       1.760  -1.910  -0.009  0.00  0.00    +0.175 C 
BRANCH  32  33
ATOM     33  C   UNL     1       1.851  -2.555  -1.394  0.00  0.00    +0.183 C 
BRANCH  33  34
ATOM     34  O   UNL     1       2.280  -3.912  -1.260  0.00  0.00    -0.381 OA
ATOM     35  C   UNL     1       2.398  -4.609  -2.502  0.00  0.00    +0.194 C 
ENDBRANCH  33  34
ENDBRANCH  32  33
ENDBRANCH  31  32
ENDBRANCH   1  27
TORSDOF 6
