REMARK  Name = ZINC59105785
REMARK  5 active torsions:
REMARK  status: ('A' for Active; 'I' for Inactive)
REMARK    1  A    between atoms: C_1  and  O_2
REMARK    2  A    between atoms: O_2  and  C_3
REMARK    3  A    between atoms: C_4  and  N_25
REMARK    4  A    between atoms: C_6  and  C_10
REMARK    5  A    between atoms: N_16  and  C_17
REMARK                            x       y       z     vdW  Elec       q    Type
REMARK                         _______ _______ _______ _____ _____    ______ ____
ROOT
ATOM      1  C   UNL     1       2.539  -2.502   4.230  0.00  0.00    +0.028 C 
ATOM      2  C   UNL     1       1.841  -2.747   5.420  0.00  0.00    +0.078 C 
ATOM      3  C   UNL     1       2.353  -3.297   6.694  0.00  0.00    +0.256 C 
ATOM      4  O   UNL     1       3.514  -3.620   6.857  0.00  0.00    -0.269 OA
ATOM      5  N   UNL     1       1.431  -3.408   7.645  0.00  0.00    -0.260 N 
ATOM      6  C   UNL     1       0.157  -3.014   7.347  0.00  0.00    +0.166 C 
ATOM      7  N   UNL     1      -0.903  -3.042   8.147  0.00  0.00    -0.226 NA
ATOM      8  S   UNL     1       0.218  -2.481   5.759  0.00  0.00    -0.049 S 
ATOM      9  H   UNL     1       1.655  -3.758   8.521  0.00  0.00    +0.157 HD
ENDROOT
BRANCH   1  13
ATOM     10  C   UNL     1       0.671  -0.476   1.095  0.00  0.00    +0.163 A 
ATOM     11  C   UNL     1       0.190  -0.333   2.400  0.00  0.00    +0.169 A 
ATOM     12  C   UNL     1       0.794  -0.990   3.428  0.00  0.00    +0.044 A 
ATOM     13  C   UNL     1       1.909  -1.819   3.173  0.00  0.00    -0.020 A 
ATOM     14  C   UNL     1       2.389  -1.958   1.852  0.00  0.00    +0.026 A 
ATOM     15  C   UNL     1       1.771  -1.298   0.834  0.00  0.00    +0.058 A 
ATOM     16  I   UNL     1       2.475  -1.509  -1.128  0.00  0.00    -0.040 I 
BRANCH  11  17
ATOM     17  N   UNL     1      -0.978   0.536   2.664  0.00  0.00    +0.060 N 
ATOM     18  O   UNL     1      -1.433   0.672   3.893  0.00  0.00    -0.126 OA
ATOM     19  O   UNL     1      -1.563   1.173   1.671  0.00  0.00    -0.126 OA
ENDBRANCH  11  17
BRANCH  10  21
ATOM     20  C   UNL     1      -1.007  -0.494  -0.582  0.00  0.00    +0.277 C 
ATOM     21  O   UNL     1       0.065   0.181   0.079  0.00  0.00    -0.492 OA
ENDBRANCH  10  21
ENDBRANCH   1  13
BRANCH   7  22
ATOM     22  C   UNL     1      -0.784  -3.494   9.399  0.00  0.00    +0.067 A 
ATOM     23  C   UNL     1      -0.057  -4.681   9.662  0.00  0.00    +0.030 A 
ATOM     24  C   UNL     1       0.058  -5.132  10.942  0.00  0.00    +0.040 A 
ATOM     25  C   UNL     1      -0.536  -4.431  11.991  0.00  0.00    +0.124 A 
ATOM     26  C   UNL     1      -1.254  -3.261  11.743  0.00  0.00    +0.040 A 
ATOM     27  C   UNL     1      -1.377  -2.787  10.473  0.00  0.00    +0.030 A 
ATOM     28  F   UNL     1      -0.415  -4.888  13.256  0.00  0.00    -0.205 F 
ENDBRANCH   7  22
TORSDOF 4
