REMARK  Name = ZINC35033916
REMARK  5 active torsions:
REMARK  status: ('A' for Active; 'I' for Inactive)
REMARK    1  A    between atoms: C_1  and  C_2
REMARK    2  A    between atoms: N_5  and  C_19
REMARK    3  A    between atoms: N_11  and  C_12
REMARK    4  A    between atoms: C_19  and  C_21
REMARK    5  A    between atoms: C_19  and  C_22
REMARK                            x       y       z     vdW  Elec       q    Type
REMARK                         _______ _______ _______ _____ _____    ______ ____
ROOT
ATOM      1  C   UNL     1       0.975   1.494  -0.914  0.00  0.00    +0.026 C 
ATOM      2  C   UNL     1       0.561   0.044  -0.654  0.00  0.00    +0.058 C 
ATOM      3  C   UNL     1       1.316  -0.886  -1.610  0.00  0.00    -0.055 C 
ATOM      4  N   UNL     1       1.020  -2.283  -1.267  0.00  0.00    +0.388 N 
ATOM      5  C   UNL     1       1.537  -2.590   0.072  0.00  0.00    -0.058 C 
ATOM      6  C   UNL     1       0.793  -1.744   1.112  0.00  0.00    +0.091 C 
ATOM      7  N   UNL     1       0.900  -0.327   0.729  0.00  0.00    -0.286 N 
ATOM      8  C   UNL     1       1.303   0.604   1.617  0.00  0.00    +0.307 C 
ATOM      9  O   UNL     1       1.307   1.779   1.306  0.00  0.00    -0.252 OA
ATOM     10  N   UNL     1       1.701   0.231   2.849  0.00  0.00    -0.268 N 
ATOM     11  H   UNL     1       1.652  -0.701   3.114  0.00  0.00    +0.156 HD
ATOM     12  H   UNL     1       0.021  -2.427  -1.282  0.00  0.00    -0.081 HD
ENDROOT
BRANCH  10  13
ATOM     13  C   UNL     1       2.184   1.190   3.748  0.00  0.00    +0.049 A 
ATOM     14  C   UNL     1       1.827   2.523   3.601  0.00  0.00    +0.024 A 
ATOM     15  C   UNL     1       2.305   3.466   4.490  0.00  0.00    +0.002 A 
ATOM     16  C   UNL     1       3.138   3.084   5.526  0.00  0.00    +0.001 A 
ATOM     17  C   UNL     1       3.495   1.757   5.676  0.00  0.00    +0.017 A 
ATOM     18  C   UNL     1       3.016   0.807   4.793  0.00  0.00    +0.039 A 
ATOM     19 BR   UNL     1       3.499  -1.009   5.002  0.00  0.00    -0.048 Br
ENDBRANCH  10  13
BRANCH   4  20
ATOM     20  C   UNL     1       1.654  -3.171  -2.250  0.00  0.00    -0.004 C 
ATOM     21  C   UNL     1       3.176  -3.076  -2.116  0.00  0.00    -0.005 C 
BRANCH  20  22
ATOM     22  C   UNL     1       1.216  -4.591  -2.001  0.00  0.00    +0.097 A 
ATOM     23  N   UNL     1       0.337  -4.811  -1.062  0.00  0.00    -0.197 NA
ATOM     24  C   UNL     1      -0.103  -6.052  -0.780  0.00  0.00    +0.281 A 
ATOM     25  O   UNL     1      -0.925  -6.241   0.100  0.00  0.00    -0.265 OA
ATOM     26  C   UNL     1       0.437  -7.175  -1.567  0.00  0.00    +0.065 A 
ATOM     27  C   UNL     1       0.039  -8.491  -1.347  0.00  0.00    +0.015 A 
ATOM     28  C   UNL     1       0.579  -9.500  -2.115  0.00  0.00    +0.001 A 
ATOM     29  C   UNL     1       1.511  -9.211  -3.102  0.00  0.00    +0.002 A 
ATOM     30  C   UNL     1       1.914  -7.912  -3.331  0.00  0.00    +0.026 A 
ATOM     31  C   UNL     1       1.382  -6.882  -2.567  0.00  0.00    +0.053 A 
ATOM     32  N   UNL     1       1.747  -5.565  -2.761  0.00  0.00    -0.344 N 
ATOM     33  H   UNL     1       2.394  -5.340  -3.447  0.00  0.00    +0.167 HD
ENDBRANCH  20  22
ENDBRANCH   4  20
TORSDOF 3
