REMARK  Name = ZINC39620908
REMARK  13 active torsions:
REMARK  status: ('A' for Active; 'I' for Inactive)
REMARK    1  A    between atoms: C_1  and  C_2
REMARK    2  A    between atoms: C_2  and  C_4
REMARK    3  A    between atoms: C_2  and  N_20
REMARK    4  A    between atoms: N_6  and  C_7
REMARK    5  A    between atoms: C_10  and  S_13
REMARK    6  A    between atoms: S_13  and  N_16
REMARK    7  A    between atoms: N_16  and  C_17
REMARK    8  A    between atoms: C_17  and  C_18
REMARK    9  A    between atoms: C_17  and  C_19
REMARK   10  A    between atoms: N_20  and  C_21
REMARK   11  A    between atoms: N_20  and  C_22
REMARK   12  A    between atoms: C_22  and  C_23
REMARK   13  A    between atoms: N_25  and  C_26
REMARK                            x       y       z     vdW  Elec       q    Type
REMARK                         _______ _______ _______ _____ _____    ______ ____
ROOT
ATOM      1  C   UNL     1      -0.344   1.563   0.436  0.00  0.00    -0.004 C 
ATOM      2  C   UNL     1      -0.462   0.054   0.210  0.00  0.00    +0.017 C 
ENDROOT
BRANCH   2   3
ATOM      3  C   UNL     1      -1.706  -0.239  -0.588  0.00  0.00    +0.203 C 
ATOM      4  O   UNL     1      -1.617  -0.566  -1.753  0.00  0.00    -0.277 OA
ATOM      5  N   UNL     1      -2.918  -0.139  -0.007  0.00  0.00    -0.287 N 
ATOM      6  H   UNL     1      -2.994   0.188   0.903  0.00  0.00    +0.155 HD
BRANCH   5   7
ATOM      7  C   UNL     1      -4.067  -0.504  -0.717  0.00  0.00    +0.033 A 
ATOM      8  C   UNL     1      -5.133  -1.099  -0.056  0.00  0.00    +0.025 A 
ATOM      9  C   UNL     1      -6.266  -1.460  -0.760  0.00  0.00    +0.030 A 
ATOM     10  C   UNL     1      -6.338  -1.228  -2.121  0.00  0.00    +0.105 A 
ATOM     11  C   UNL     1      -5.278  -0.637  -2.782  0.00  0.00    +0.030 A 
ATOM     12  C   UNL     1      -4.145  -0.269  -2.083  0.00  0.00    +0.025 A 
BRANCH  10  13
ATOM     13  S   UNL     1      -7.785  -1.689  -3.015  0.00  0.00    +0.059 S 
ATOM     14  O   UNL     1      -7.388  -1.865  -4.368  0.00  0.00    -0.153 OA
ATOM     15  O   UNL     1      -8.414  -2.720  -2.266  0.00  0.00    -0.153 OA
BRANCH  13  16
ATOM     16  N   UNL     1      -8.812  -0.391  -2.988  0.00  0.00    -0.187 NA
ATOM     17  H   UNL     1      -9.664  -0.455  -2.528  0.00  0.00    +0.148 HD
BRANCH  16  18
ATOM     18  C   UNL     1      -8.435   0.856  -3.659  0.00  0.00    +0.070 C 
ATOM     19  C   UNL     1      -9.031   0.878  -5.068  0.00  0.00    +0.025 C 
ATOM     20  C   UNL     1      -8.969   2.047  -2.860  0.00  0.00    +0.025 C 
ENDBRANCH  16  18
ENDBRANCH  13  16
ENDBRANCH  10  13
ENDBRANCH   5   7
ENDBRANCH   2   3
BRANCH   2  21
ATOM     21  N   UNL     1       0.716  -0.423  -0.527  0.00  0.00    +0.391 N 
ATOM     22  C   UNL     1       1.936  -0.035   0.194  0.00  0.00    -0.094 C 
ATOM     23  H   UNL     1       0.725  -0.013  -1.449  0.00  0.00    -0.080 HD
BRANCH  21  24
ATOM     24  C   UNL     1       0.661  -1.887  -0.644  0.00  0.00    +0.020 C 
BRANCH  24  25
ATOM     25  C   UNL     1       1.791  -2.364  -1.519  0.00  0.00    +0.201 C 
ATOM     26  O   UNL     1       2.566  -1.564  -1.999  0.00  0.00    -0.278 OA
ATOM     27  N   UNL     1       1.940  -3.680  -1.769  0.00  0.00    -0.287 N 
ATOM     28  H   UNL     1       1.285  -4.314  -1.438  0.00  0.00    +0.155 HD
BRANCH  27  29
ATOM     29  C   UNL     1       3.038  -4.130  -2.504  0.00  0.00    +0.041 A 
ATOM     30  C   UNL     1       3.643  -3.305  -3.428  0.00  0.00    +0.024 A 
ATOM     31  C   UNL     1       4.737  -3.745  -4.166  0.00  0.00    +0.002 A 
ATOM     32  C   UNL     1       5.242  -4.998  -3.997  0.00  0.00    +0.008 A 
ATOM     33  C   UNL     1       4.655  -5.870  -3.065  0.00  0.00    -0.016 A 
ATOM     34  C   UNL     1       3.543  -5.433  -2.304  0.00  0.00    +0.003 A 
ATOM     35  C   UNL     1       2.961  -6.304  -1.370  0.00  0.00    +0.010 A 
ATOM     36  C   UNL     1       3.474  -7.554  -1.204  0.00  0.00    +0.001 A 
ATOM     37  C   UNL     1       4.571  -7.984  -1.947  0.00  0.00    +0.001 A 
ATOM     38  C   UNL     1       5.154  -7.170  -2.869  0.00  0.00    +0.008 A 
ENDBRANCH  27  29
ENDBRANCH  24  25
ENDBRANCH  21  24
ENDBRANCH   2  21
TORSDOF 9
