REMARK  Name = ZINC39948529
REMARK  15 active torsions:
REMARK  status: ('A' for Active; 'I' for Inactive)
REMARK    1  A    between atoms: C_1  and  C_2
REMARK    2  A    between atoms: C_2  and  C_3
REMARK    3  A    between atoms: C_2  and  C_4
REMARK    4  A    between atoms: C_4  and  C_5
REMARK    5  A    between atoms: C_5  and  N_6
REMARK    6  A    between atoms: N_6  and  C_7
REMARK    7  A    between atoms: C_7  and  C_8
REMARK    8  A    between atoms: C_8  and  C_9
REMARK    9  A    between atoms: C_9  and  C_10
REMARK   10  A    between atoms: C_9  and  C_11
REMARK   11  A    between atoms: C_12  and  C_14
REMARK   12  A    between atoms: C_14  and  S_15
REMARK   13  A    between atoms: S_15  and  C_16
REMARK   14  A    between atoms: C_20  and  C_29
REMARK   15  A    between atoms: N_21  and  C_22
REMARK                            x       y       z     vdW  Elec       q    Type
REMARK                         _______ _______ _______ _____ _____    ______ ____
ROOT
ATOM      1  C   UNL     1       5.404  -4.033  -4.801  0.00  0.00    +0.241 C 
ATOM      2  N   UNL     1       4.587  -4.088  -6.024  0.00  0.00    -0.237 N 
ATOM      3  N   UNL     1       5.341  -3.480  -7.035  0.00  0.00    -0.169 NA
ATOM      4  C   UNL     1       6.497  -3.070  -6.583  0.00  0.00    +0.151 C 
ATOM      5  N   UNL     1       6.644  -3.359  -5.220  0.00  0.00    -0.254 N 
ATOM      6  H   UNL     1       3.700  -4.470  -6.113  0.00  0.00    +0.171 HD
ENDROOT
BRANCH   4   7
ATOM      7  C   UNL     1       7.468  -2.423  -7.363  0.00  0.00    +0.022 C 
ATOM      8  C   UNL     1       7.429  -2.195  -8.739  0.00  0.00    +0.006 A 
ATOM      9  C   UNL     1       6.478  -2.513  -9.732  0.00  0.00    +0.010 A 
ATOM     10  C   UNL     1       6.707  -2.160 -11.023  0.00  0.00    +0.001 A 
ATOM     11  C   UNL     1       7.870  -1.486 -11.400  0.00  0.00    +0.002 A 
ATOM     12  C   UNL     1       8.826  -1.149 -10.500  0.00  0.00    +0.026 A 
ATOM     13  C   UNL     1       8.656  -1.484  -9.132  0.00  0.00    +0.043 A 
ATOM     14  N   UNL     1       9.424  -1.272  -8.080  0.00  0.00    -0.380 N 
ATOM     15  C   UNL     1       8.771  -1.821  -6.887  0.00  0.00    +0.152 C 
ATOM     16  H   UNL     1      10.282  -0.822  -8.093  0.00  0.00    +0.160 HD
ENDBRANCH   4   7
BRANCH   5  17
ATOM     17  C   UNL     1       7.749  -3.066  -4.416  0.00  0.00    +0.038 A 
ATOM     18  C   UNL     1       7.857  -1.821  -3.808  0.00  0.00    +0.025 A 
ATOM     19  C   UNL     1       8.950  -1.535  -3.014  0.00  0.00    +0.022 A 
ATOM     20  C   UNL     1       9.937  -2.486  -2.823  0.00  0.00    +0.041 A 
ATOM     21  C   UNL     1       9.832  -3.727  -3.427  0.00  0.00    +0.022 A 
ATOM     22  C   UNL     1       8.738  -4.021  -4.217  0.00  0.00    +0.025 A 
ATOM     23 CL   UNL     1      11.309  -2.122  -1.824  0.00  0.00    -0.084 Cl
ENDBRANCH   5  17
BRANCH   1  24
ATOM     24  S   UNL     1       4.561  -3.068  -3.517  0.00  0.00    -0.108 S 
BRANCH  24  25
ATOM     25  C   UNL     1       4.271  -1.457  -4.298  0.00  0.00    +0.168 C 
BRANCH  25  27
ATOM     26  N   UNL     1       3.247   0.711  -3.689  0.00  0.00    -0.301 N 
ATOM     27  C   UNL     1       3.567  -0.547  -3.325  0.00  0.00    +0.226 C 
ATOM     28  O   UNL     1       3.288  -0.946  -2.214  0.00  0.00    -0.275 OA
BRANCH  26  29
ATOM     29  C   UNL     1       2.562   1.596  -2.743  0.00  0.00    +0.108 C 
BRANCH  29  30
ATOM     30  C   UNL     1       1.048   1.438  -2.902  0.00  0.00    +0.022 C 
BRANCH  30  32
ATOM     31  C   UNL     1       0.628   3.820  -2.274  0.00  0.00    +0.007 C 
ATOM     32  C   UNL     1       0.333   2.362  -1.914  0.00  0.00    -0.016 C 
ATOM     33  C   UNL     1      -1.175   2.115  -1.984  0.00  0.00    +0.007 C 
ENDBRANCH  30  32
ENDBRANCH  29  30
ENDBRANCH  26  29
BRANCH  26  34
ATOM     34  C   UNL     1       3.584   1.193  -5.031  0.00  0.00    +0.108 C 
BRANCH  34  35
ATOM     35  C   UNL     1       4.976   1.827  -5.010  0.00  0.00    +0.022 C 
BRANCH  35  36
ATOM     36  C   UNL     1       5.328   2.330  -6.411  0.00  0.00    -0.016 C 
ATOM     37  C   UNL     1       4.375   3.462  -6.801  0.00  0.00    +0.007 C 
ATOM     38  C   UNL     1       6.767   2.850  -6.420  0.00  0.00    +0.007 C 
ENDBRANCH  35  36
ENDBRANCH  34  35
ENDBRANCH  26  34
ENDBRANCH  25  27
ENDBRANCH  24  25
ENDBRANCH   1  24
TORSDOF 11
