REMARK  Name = ZINC39983389
REMARK  5 active torsions:
REMARK  status: ('A' for Active; 'I' for Inactive)
REMARK    1  A    between atoms: C_1  and  C_2
REMARK    2  A    between atoms: C_2  and  C_3
REMARK    3  A    between atoms: C_3  and  N_4
REMARK    4  A    between atoms: N_15  and  C_19
REMARK    5  A    between atoms: C_19  and  C_20
REMARK                            x       y       z     vdW  Elec       q    Type
REMARK                         _______ _______ _______ _____ _____    ______ ____
ROOT
ATOM      1  N   UNL     1      -1.413  -1.998   0.005  0.00  0.00    -0.267 N 
ATOM      2  C   UNL     1      -1.408  -2.776  -1.148  0.00  0.00    +0.045 A 
ATOM      3  C   UNL     1      -1.420  -2.432  -2.495  0.00  0.00    +0.025 A 
ATOM      4  C   UNL     1      -1.411  -3.416  -3.463  0.00  0.00    +0.017 A 
ATOM      5  C   UNL     1      -1.392  -4.756  -3.107  0.00  0.00    +0.019 A 
ATOM      6  C   UNL     1      -1.380  -5.118  -1.775  0.00  0.00    +0.025 A 
ATOM      7  C   UNL     1      -1.388  -4.132  -0.792  0.00  0.00    +0.011 A 
ATOM      8  C   UNL     1      -1.380  -4.176   0.685  0.00  0.00    +0.065 C 
ATOM      9  C   UNL     1      -1.360  -5.297   1.493  0.00  0.00    +0.089 C 
ATOM     10  C   UNL     1      -1.357  -5.397   2.978  0.00  0.00    +0.259 C 
ATOM     11  O   UNL     1      -1.375  -4.410   3.687  0.00  0.00    -0.269 OA
ATOM     12  N   UNL     1      -1.335  -6.620   3.483  0.00  0.00    -0.253 N 
ATOM     13  C   UNL     1      -1.316  -7.710   2.691  0.00  0.00    +0.121 C 
ATOM     14  S   UNL     1      -1.287  -9.358   3.157  0.00  0.00    -0.027 S 
ATOM     15  S   UNL     1      -1.337  -7.027   1.042  0.00  0.00    -0.060 S 
ATOM     16  C   UNL     1      -1.392  -2.762   1.111  0.00  0.00    +0.253 C 
ATOM     17  O   UNL     1      -1.386  -2.359   2.259  0.00  0.00    -0.270 OA
ATOM     18 BR   UNL     1      -1.381  -6.088  -4.449  0.00  0.00    -0.050 Br
ENDROOT
BRANCH   1  19
ATOM     19  C   UNL     1      -1.433  -0.534   0.013  0.00  0.00    +0.114 C 
BRANCH  19  21
ATOM     20  C   UNL     1      -0.019   1.526   0.010  0.00  0.00    +0.005 C 
ATOM     21  C   UNL     1       0.002  -0.004   0.002  0.00  0.00    +0.016 C 
ENDBRANCH  19  21
ENDBRANCH   1  19
BRANCH  12  22
ATOM     22  C   UNL     1      -1.331  -6.792   4.938  0.00  0.00    +0.146 C 
BRANCH  22  23
ATOM     23  C   UNL     1      -2.772  -6.877   5.445  0.00  0.00    +0.136 C 
ATOM     24  C   UNL     1      -2.791  -7.024   6.987  0.00  0.00    +0.035 C 
ATOM     25  C   UNL     1      -4.196  -6.453   7.321  0.00  0.00    +0.031 C 
ATOM     26  C   UNL     1      -4.362  -5.349   6.255  0.00  0.00    +0.160 C 
ATOM     27  O   UNL     1      -3.469  -5.650   5.175  0.00  0.00    -0.375 OA
ENDBRANCH  22  23
ENDBRANCH  12  22
TORSDOF 4
