REMARK  Name = ZINC36524645
REMARK  13 active torsions:
REMARK  status: ('A' for Active; 'I' for Inactive)
REMARK    1  A    between atoms: C_1  and  C_2
REMARK    2  A    between atoms: C_5  and  S_8
REMARK    3  A    between atoms: S_8  and  C_11
REMARK    4  A    between atoms: C_11  and  N_12
REMARK    5  A    between atoms: C_13  and  C_15
REMARK    6  A    between atoms: C_15  and  C_17
REMARK    7  A    between atoms: C_15  and  N_27
REMARK    8  A    between atoms: C_19  and  N_24
REMARK    9  A    between atoms: N_27  and  C_28
REMARK   10  A    between atoms: C_29  and  C_31
REMARK   11  A    between atoms: C_31  and  C_32
REMARK   12  A    between atoms: C_32  and  C_33
REMARK   13  A    between atoms: C_32  and  C_34
REMARK                            x       y       z     vdW  Elec       q    Type
REMARK                         _______ _______ _______ _____ _____    ______ ____
ROOT
ATOM      1  C   UNL     1       3.188  -4.904   3.521  0.00  0.00    +0.193 C 
ENDROOT
BRANCH   1   2
ATOM      2  C   UNL     1       4.528  -4.317   3.160  0.00  0.00    +0.002 A 
ATOM      3  C   UNL     1       5.131  -4.656   1.963  0.00  0.00    +0.040 A 
ATOM      4  C   UNL     1       6.361  -4.118   1.632  0.00  0.00    +0.127 A 
ATOM      5  C   UNL     1       6.988  -3.240   2.497  0.00  0.00    +0.034 A 
ATOM      6  C   UNL     1       6.386  -2.900   3.694  0.00  0.00    +0.022 A 
ATOM      7  C   UNL     1       5.152  -3.434   4.023  0.00  0.00    +0.047 A 
ATOM      8 CL   UNL     1       4.391  -3.002   5.522  0.00  0.00    -0.083 Cl
BRANCH   4   9
ATOM      9  N   UNL     1       7.007  -4.482   0.351  0.00  0.00    +0.056 N 
ATOM     10  O   UNL     1       6.459  -5.249  -0.406  0.00  0.00    -0.126 OA
ATOM     11  O   UNL     1       8.082  -4.011   0.061  0.00  0.00    -0.126 OA
ENDBRANCH   4   9
ENDBRANCH   1   2
BRANCH   1  13
ATOM     12  N   UNL     1       2.268  -4.662   1.238  0.00  0.00    -0.294 N 
ATOM     13  C   UNL     1       2.537  -5.467   2.284  0.00  0.00    +0.239 C 
ATOM     14  O   UNL     1       2.254  -6.645   2.231  0.00  0.00    -0.273 OA
ATOM     15  H   UNL     1       2.494  -3.719   1.280  0.00  0.00    +0.150 HD
BRANCH  12  16
ATOM     16  C   UNL     1       1.635  -5.209   0.035  0.00  0.00    +0.278 C 
BRANCH  16  17
ATOM     17  S   UNL     1      -0.160  -4.962   0.131  0.00  0.00    +0.013 S 
ATOM     18  O   UNL     1      -0.641  -5.360   1.407  0.00  0.00    -0.168 OA
ATOM     19  O   UNL     1      -0.783  -5.431  -1.057  0.00  0.00    -0.168 OA
BRANCH  17  24
ATOM     20  C   UNL     1      -0.912   1.023   0.000  0.00  0.00    +0.044 C 
ATOM     21  C   UNL     1      -0.724  -0.472   0.033  0.00  0.00    -0.050 A 
ATOM     22  C   UNL     1      -0.705  -1.192  -1.147  0.00  0.00    +0.005 A 
ATOM     23  C   UNL     1      -0.533  -2.563  -1.117  0.00  0.00    +0.027 A 
ATOM     24  C   UNL     1      -0.379  -3.214   0.093  0.00  0.00    +0.090 A 
ATOM     25  C   UNL     1      -0.396  -2.494   1.272  0.00  0.00    +0.027 A 
ATOM     26  C   UNL     1      -0.565  -1.122   1.242  0.00  0.00    +0.005 A 
ENDBRANCH  17  24
ENDBRANCH  16  17
ENDBRANCH  12  16
ENDBRANCH   1  13
BRANCH   1  27
ATOM     27  N   UNL     1       3.372  -5.972   4.506  0.00  0.00    -0.289 N 
ATOM     28  C   UNL     1       4.292  -7.077   4.224  0.00  0.00    +0.133 C 
ATOM     29  C   UNL     1       2.696  -5.939   5.671  0.00  0.00    +0.216 C 
ATOM     30  O   UNL     1       1.935  -5.024   5.904  0.00  0.00    -0.276 OA
BRANCH  29  31
ATOM     31  C   UNL     1       2.886  -7.038   6.684  0.00  0.00    +0.099 C 
BRANCH  31  32
ATOM     32  C   UNL     1       2.009  -6.761   7.907  0.00  0.00    -0.008 C 
ATOM     33  C   UNL     1       0.535  -6.832   7.505  0.00  0.00    +0.008 C 
ATOM     34  C   UNL     1       2.294  -7.808   8.986  0.00  0.00    +0.008 C 
ENDBRANCH  31  32
ENDBRANCH  29  31
ENDBRANCH   1  27
TORSDOF 9
