REMARK  Name = ZINC36597228
REMARK  18 active torsions:
REMARK  status: ('A' for Active; 'I' for Inactive)
REMARK    1  A    between atoms: C_1  and  C_2
REMARK    2  A    between atoms: C_5  and  C_7
REMARK    3  A    between atoms: C_7  and  N_8
REMARK    4  A    between atoms: N_8  and  C_9
REMARK    5  A    between atoms: C_9  and  C_11
REMARK    6  A    between atoms: C_9  and  C_20
REMARK    7  A    between atoms: C_11  and  C_13
REMARK    8  A    between atoms: C_11  and  C_14
REMARK    9  A    between atoms: N_22  and  C_23
REMARK   10  A    between atoms: C_23  and  C_24
REMARK   11  A    between atoms: C_23  and  C_25
REMARK   12  A    between atoms: C_23  and  C_26
REMARK   13  A    between atoms: C_26  and  C_27
REMARK   14  A    between atoms: C_27  and  C_28
REMARK   15  A    between atoms: C_27  and  C_29
REMARK   16  A    between atoms: C_27  and  C_30
REMARK   17  A    between atoms: C_31  and  C_33
REMARK   18  A    between atoms: C_36  and  O_39
REMARK                            x       y       z     vdW  Elec       q    Type
REMARK                         _______ _______ _______ _____ _____    ______ ____
ROOT
ATOM      1  C   UNL     1       4.931  -2.424  -1.961  0.00  0.00    +0.170 C 
ENDROOT
BRANCH   1   2
ATOM      2  C   UNL     1       4.061  -1.255  -2.345  0.00  0.00    +0.235 C 
ATOM      3  O   UNL     1       2.870  -1.285  -2.117  0.00  0.00    -0.274 OA
ATOM      4  N   UNL     1       4.606  -0.177  -2.942  0.00  0.00    -0.309 N 
ATOM      5  H   UNL     1       5.564  -0.136  -3.089  0.00  0.00    +0.149 HD
BRANCH   4   6
ATOM      6  C   UNL     1       3.751   0.934  -3.369  0.00  0.00    +0.030 C 
ATOM      7  C   UNL     1       2.684   0.415  -4.334  0.00  0.00    +0.031 C 
ATOM      8  C   UNL     1       3.073   1.555  -2.146  0.00  0.00    +0.031 C 
BRANCH   6   9
ATOM      9  C   UNL     1       4.604   1.992  -4.072  0.00  0.00    +0.031 C 
BRANCH   9  10
ATOM     10  C   UNL     1       5.092   1.445  -5.414  0.00  0.00    -0.036 C 
ATOM     11  C   UNL     1       3.958   1.522  -6.439  0.00  0.00    +0.010 C 
ATOM     12  C   UNL     1       6.279   2.277  -5.903  0.00  0.00    +0.010 C 
ATOM     13  C   UNL     1       5.526  -0.012  -5.243  0.00  0.00    +0.010 C 
ENDBRANCH   9  10
ENDBRANCH   6   9
ENDBRANCH   4   6
ENDBRANCH   1   2
BRANCH   1  14
ATOM     14  N   UNL     1       4.086  -3.572  -1.622  0.00  0.00    -0.278 N 
ATOM     15  C   UNL     1       4.315  -4.770  -2.196  0.00  0.00    +0.248 C 
ATOM     16  O   UNL     1       5.164  -4.878  -3.059  0.00  0.00    -0.270 OA
BRANCH  15  17
ATOM     17  C   UNL     1       3.535  -5.950  -1.775  0.00  0.00    +0.037 A 
ATOM     18  C   UNL     1       3.258  -6.161  -0.422  0.00  0.00    +0.016 A 
ATOM     19  C   UNL     1       2.530  -7.263  -0.033  0.00  0.00    +0.046 A 
ATOM     20  C   UNL     1       2.070  -8.166  -0.986  0.00  0.00    +0.117 A 
ATOM     21  C   UNL     1       2.343  -7.959  -2.333  0.00  0.00    +0.046 A 
ATOM     22  C   UNL     1       3.066  -6.856  -2.730  0.00  0.00    +0.016 A 
BRANCH  20  23
ATOM     23  O   UNL     1       1.353  -9.251  -0.599  0.00  0.00    -0.507 OA
ATOM     24  H   UNL     1       0.398  -9.101  -0.567  0.00  0.00    +0.292 HD
ENDBRANCH  20  23
ENDBRANCH  15  17
BRANCH  14  25
ATOM     25  C   UNL     1       2.992  -3.417  -0.660  0.00  0.00    +0.183 C 
BRANCH  25  30
ATOM     26  C   UNL     1       5.017  -3.817   3.942  0.00  0.00    +0.086 C 
ATOM     27  C   UNL     1       4.437  -3.217   2.688  0.00  0.00    +0.102 A 
ATOM     28  C   UNL     1       4.259  -1.904   2.453  0.00  0.00    +0.045 A 
ATOM     29  C   UNL     1       3.691  -1.792   1.163  0.00  0.00    +0.046 A 
ATOM     30  C   UNL     1       3.557  -3.043   0.686  0.00  0.00    +0.122 A 
ATOM     31  O   UNL     1       4.015  -3.901   1.612  0.00  0.00    -0.463 OA
ENDBRANCH  25  30
ENDBRANCH  14  25
ENDBRANCH   1  14
BRANCH   1  32
ATOM     32  C   UNL     1       5.788  -2.046  -0.751  0.00  0.00    +0.045 C 
ATOM     33  C   UNL     1       6.609  -3.259  -0.309  0.00  0.00    +0.015 C 
BRANCH  32  34
ATOM     34  C   UNL     1       6.716  -0.920  -1.125  0.00  0.00    -0.042 A 
ATOM     35  C   UNL     1       7.621  -1.084  -2.158  0.00  0.00    +0.004 A 
ATOM     36  C   UNL     1       8.473  -0.051  -2.501  0.00  0.00    +0.000 A 
ATOM     37  C   UNL     1       8.420   1.146  -1.812  0.00  0.00    +0.000 A 
ATOM     38  C   UNL     1       7.515   1.311  -0.780  0.00  0.00    +0.000 A 
ATOM     39  C   UNL     1       6.660   0.279  -0.440  0.00  0.00    +0.004 A 
ENDBRANCH  32  34
ENDBRANCH   1  32
TORSDOF 11
