REMARK  Name = ZINC13648769
REMARK  22 active torsions:
REMARK  status: ('A' for Active; 'I' for Inactive)
REMARK    1  A    between atoms: C_1  and  C_2
REMARK    2  A    between atoms: C_2  and  O_3
REMARK    3  A    between atoms: O_3  and  C_4
REMARK    4  A    between atoms: C_4  and  C_6
REMARK    5  A    between atoms: C_7  and  C_8
REMARK    6  A    between atoms: C_8  and  C_10
REMARK    7  A    between atoms: C_8  and  N_14
REMARK    8  A    between atoms: C_10  and  C_11
REMARK    9  A    between atoms: C_11  and  C_12
REMARK   10  A    between atoms: C_11  and  C_13
REMARK   11  A    between atoms: C_15  and  C_17
REMARK   12  A    between atoms: C_17  and  C_19
REMARK   13  A    between atoms: C_17  and  N_21
REMARK   14  A    between atoms: C_19  and  O_20
REMARK   15  A    between atoms: C_22  and  C_24
REMARK   16  A    between atoms: C_24  and  C_26
REMARK   17  A    between atoms: C_24  and  N_29
REMARK   18  A    between atoms: C_26  and  C_27
REMARK   19  A    between atoms: C_26  and  C_28
REMARK   20  A    between atoms: C_30  and  C_32
REMARK   21  A    between atoms: C_36  and  O_39
REMARK   22  A    between atoms: C_37  and  C_38
REMARK                            x       y       z     vdW  Elec       q    Type
REMARK                         _______ _______ _______ _____ _____    ______ ____
ROOT
ATOM      1  N   UNK A   1      -0.868   4.053  -1.706  0.00  0.00    -0.301 N 
ATOM      2  C   UNK A   1      -1.191   4.381  -0.439  0.00  0.00    +0.234 C 
ATOM      3  O   UNK A   1      -2.122   5.128  -0.224  0.00  0.00    -0.274 OA
ATOM      4  H   UNK A   1      -0.171   3.400  -1.875  0.00  0.00    +0.150 HD
ENDROOT
BRANCH   1   5
ATOM      5  C   UNK A   1      -1.569   4.683  -2.827  0.00  0.00    +0.184 C 
BRANCH   5   7
ATOM      6  N   UNK A   1      -2.089   4.154  -5.187  0.00  0.00    -0.307 N 
ATOM      7  C   UNK A   1      -1.507   3.779  -4.030  0.00  0.00    +0.236 C 
ATOM      8  O   UNK A   1      -0.932   2.713  -3.959  0.00  0.00    -0.274 OA
ATOM      9  H   UNK A   1      -2.548   5.007  -5.244  0.00  0.00    +0.149 HD
BRANCH   6  10
ATOM     10  C   UNK A   1      -2.028   3.275  -6.357  0.00  0.00    +0.097 C 
BRANCH  10  12
ATOM     11  C   UNK A   1      -1.196   4.099  -8.519  0.00  0.00    +0.089 C 
ATOM     12  C   UNK A   1      -2.169   4.098  -7.611  0.00  0.00    +0.002 C 
BRANCH  11  13
ATOM     13  C   UNK A   1      -1.333   4.902  -9.743  0.00  0.00    +0.332 C 
ATOM     14  O   UNK A   1      -2.335   5.565  -9.925  0.00  0.00    -0.246 OA
BRANCH  13  15
ATOM     15  O   UNK A   1      -0.347   4.903 -10.662  0.00  0.00    -0.462 OA
BRANCH  15  17
ATOM     16  C   UNK A   1       0.664   5.594 -12.767  0.00  0.00    +0.048 C 
ATOM     17  C   UNK A   1      -0.551   5.719 -11.846  0.00  0.00    +0.229 C 
ENDBRANCH  15  17
ENDBRANCH  13  15
ENDBRANCH  11  13
ENDBRANCH  10  12
BRANCH  10  18
ATOM     18  C   UNK A   1      -3.164   2.253  -6.287  0.00  0.00    +0.029 C 
BRANCH  18  19
ATOM     19  C   UNK A   1      -2.952   1.337  -5.080  0.00  0.00    -0.015 C 
ATOM     20  C   UNK A   1      -4.151   0.397  -4.938  0.00  0.00    +0.007 C 
ATOM     21  C   UNK A   1      -1.679   0.513  -5.284  0.00  0.00    +0.007 C 
ENDBRANCH  18  19
ENDBRANCH  10  18
ENDBRANCH   6  10
ENDBRANCH   5   7
BRANCH   5  22
ATOM     22  C   UNK A   1      -0.904   6.021  -3.158  0.00  0.00    +0.187 C 
BRANCH  22  23
ATOM     23  O   UNK A   1       0.426   5.788  -3.627  0.00  0.00    -0.393 OA
ATOM     24  H   UNK A   1       0.908   6.593  -3.857  0.00  0.00    +0.209 HD
ENDBRANCH  22  23
ENDBRANCH   5  22
ENDBRANCH   1   5
BRANCH   2  25
ATOM     25  C   UNK A   1      -0.396   3.818   0.711  0.00  0.00    +0.162 C 
BRANCH  25  26
ATOM     26  N   UNK A   1      -0.641   4.619   1.913  0.00  0.00    -0.300 N 
ATOM     27  C   UNK A   0       0.279   4.658   2.897  0.00  0.00    +0.245 C 
ATOM     28  O   UNK A   0       1.313   4.028   2.787  0.00  0.00    -0.270 OA
ATOM     29  H   UNK A   1      -1.466   5.122   2.001  0.00  0.00    +0.150 HD
BRANCH  27  30
ATOM     30  C   UNK A   0       0.031   5.466   4.110  0.00  0.00    +0.043 A 
ATOM     31  C   UNK A   0      -1.095   6.288   4.186  0.00  0.00    +0.013 A 
ATOM     32  C   UNK A   0      -1.323   7.041   5.319  0.00  0.00    +0.004 A 
ATOM     33  C   UNK A   0      -0.440   6.985   6.381  0.00  0.00    +0.046 A 
ATOM     34  C   UNK A   0       0.682   6.170   6.315  0.00  0.00    +0.120 A 
ATOM     35  C   UNK A   0       0.917   5.405   5.185  0.00  0.00    +0.003 A 
ATOM     36  C   UNK A   0       2.132   4.516   5.114  0.00  0.00    +0.048 C 
BRANCH  34  37
ATOM     37  O   UNK A   0       1.546   6.118   7.363  0.00  0.00    -0.506 OA
ATOM     38  H   UNK A   0       1.333   5.437   8.015  0.00  0.00    +0.292 HD
ENDBRANCH  34  37
ENDBRANCH  27  30
ENDBRANCH  25  26
BRANCH  25  39
ATOM     39  C   UNK A   1      -0.822   2.371   0.967  0.00  0.00    +0.012 C 
ATOM     40  C   UNK A   1      -2.294   2.339   1.383  0.00  0.00    +0.009 C 
ATOM     41  C   UNK A   1       0.037   1.776   2.084  0.00  0.00    +0.009 C 
ENDBRANCH  25  39
ENDBRANCH   2  25
TORSDOF 16
