REMARK  Name = ZINC10064861
REMARK  11 active torsions:
REMARK  status: ('A' for Active; 'I' for Inactive)
REMARK    1  A    between atoms: C_1  and  C_2
REMARK    2  A    between atoms: C_2  and  C_3
REMARK    3  A    between atoms: N_11  and  C_12
REMARK    4  A    between atoms: C_12  and  C_14
REMARK    5  A    between atoms: N_19  and  S_21
REMARK    6  A    between atoms: S_21  and  C_24
REMARK    7  A    between atoms: N_29  and  C_30
REMARK    8  A    between atoms: C_30  and  C_31
REMARK    9  A    between atoms: C_31  and  O_33
REMARK   10  A    between atoms: O_33  and  C_34
REMARK   11  A    between atoms: C_34  and  C_35
REMARK                            x       y       z     vdW  Elec       q    Type
REMARK                         _______ _______ _______ _____ _____    ______ ____
ROOT
ATOM      1  C   UNL     1      -2.393  -0.364   1.501  0.00  0.00    -0.046 A 
ATOM      2  C   UNL     1      -3.530  -0.446   2.288  0.00  0.00    +0.006 A 
ATOM      3  C   UNL     1      -3.706   0.379   3.373  0.00  0.00    +0.027 A 
ATOM      4  C   UNL     1      -2.735   1.332   3.716  0.00  0.00    +0.058 A 
ATOM      5  C   UNL     1      -1.595   1.393   2.901  0.00  0.00    +0.039 A 
ATOM      6  C   UNL     1      -1.417   0.564   1.819  0.00  0.00    +0.020 A 
ATOM      7  S   UNL     1      -0.633   2.687   3.642  0.00  0.00    -0.052 S 
ATOM      8  C   UNL     1      -1.710   3.091   4.941  0.00  0.00    +0.167 A 
ATOM      9  N   UNL     1      -1.555   4.017   5.884  0.00  0.00    -0.156 NA
ATOM     10  N   UNL     1      -2.750   2.234   4.764  0.00  0.00    -0.310 N 
ENDROOT
BRANCH   1  12
ATOM     11  C   UNL     1      -2.815  -0.617  -0.930  0.00  0.00    +0.009 C 
ATOM     12  C   UNL     1      -2.219  -1.277   0.315  0.00  0.00    +0.032 C 
ENDBRANCH   1  12
BRANCH   9  13
ATOM     13  C   UNL     1      -2.411   4.083   6.898  0.00  0.00    +0.243 C 
ATOM     14  O   UNL     1      -2.477   3.171   7.699  0.00  0.00    -0.273 OA
BRANCH  13  15
ATOM     15  C   UNL     1      -3.302   5.289   7.054  0.00  0.00    +0.093 C 
ATOM     16  C   UNL     1      -3.928   5.640   5.702  0.00  0.00    +0.015 C 
ATOM     17  C   UNL     1      -4.807   6.884   5.853  0.00  0.00    +0.018 C 
ATOM     18  C   UNL     1      -5.936   6.589   6.846  0.00  0.00    +0.109 C 
ATOM     19  N   UNL     1      -5.346   6.111   8.104  0.00  0.00    -0.175 NA
ATOM     20  C   UNL     1      -4.413   4.976   8.061  0.00  0.00    +0.122 C 
BRANCH  19  21
ATOM     21  S   UNL     1      -5.725   6.837   9.543  0.00  0.00    +0.067 S 
ATOM     22  O   UNL     1      -4.595   6.675  10.390  0.00  0.00    -0.152 OA
ATOM     23  O   UNL     1      -6.261   8.114   9.225  0.00  0.00    -0.152 OA
BRANCH  21  24
ATOM     24  C   UNL     1      -7.034   5.906  10.268  0.00  0.00    +0.143 A 
ATOM     25  C   UNL     1      -6.967   4.903  11.176  0.00  0.00    +0.036 A 
ATOM     26  C   UNL     1      -8.138   4.310  11.609  0.00  0.00    +0.010 A 
ATOM     27  C   UNL     1      -9.320   4.751  11.111  0.00  0.00    +0.047 A 
ATOM     28  S   UNL     1      -8.794   6.045  10.001  0.00  0.00    -0.077 S 
ENDBRANCH  21  24
ENDBRANCH  19  21
ENDBRANCH  13  15
ENDBRANCH   9  13
BRANCH  10  29
ATOM     29  C   UNL     1      -3.889   2.266   5.684  0.00  0.00    +0.244 C 
BRANCH  29  30
ATOM     30  C   UNL     1      -5.166   2.070   4.910  0.00  0.00    +0.327 C 
ATOM     31  O   UNL     1      -5.178   2.235   3.713  0.00  0.00    -0.249 OA
BRANCH  30  32
ATOM     32  O   UNL     1      -6.291   1.714   5.550  0.00  0.00    -0.464 OA
BRANCH  32  33
ATOM     33  C   UNL     1      -7.462   1.456   4.731  0.00  0.00    +0.229 C 
ATOM     34  C   UNL     1      -8.655   1.136   5.633  0.00  0.00    +0.048 C 
ENDBRANCH  32  33
ENDBRANCH  30  32
ENDBRANCH  29  30
ENDBRANCH  10  29
TORSDOF 9
