REMARK  Name = ZINC63642950
REMARK  9 active torsions:
REMARK  status: ('A' for Active; 'I' for Inactive)
REMARK    1  A    between atoms: C_1  and  C_2
REMARK    2  A    between atoms: C_2  and  O_3
REMARK    3  A    between atoms: O_3  and  C_4
REMARK    4  A    between atoms: C_4  and  C_6
REMARK    5  A    between atoms: C_18  and  N_20
REMARK    6  A    between atoms: C_21  and  C_23
REMARK    7  A    between atoms: C_23  and  C_25
REMARK    8  A    between atoms: C_23  and  S_26
REMARK    9  A    between atoms: S_26  and  C_27
REMARK                            x       y       z     vdW  Elec       q    Type
REMARK                         _______ _______ _______ _____ _____    ______ ____
ROOT
ATOM      1  N   UNL     1       2.756  -0.833  -1.131  0.00  0.00    -0.302 N 
ATOM      2  C   UNL     1       3.221   0.386  -1.468  0.00  0.00    +0.227 C 
ATOM      3  O   UNL     1       3.041   0.816  -2.588  0.00  0.00    -0.275 OA
ATOM      4  H   UNL     1       2.836  -1.147  -0.217  0.00  0.00    +0.150 HD
ENDROOT
BRANCH   1  14
ATOM      5  C   UNL     1       0.803  -2.258  -1.626  0.00  0.00    +0.132 C 
ATOM      6  C   UNL     1       0.789  -3.769  -1.481  0.00  0.00    +0.018 C 
ATOM      7  C   UNL     1       1.018  -4.187  -0.044  0.00  0.00    +0.005 C 
ATOM      8  C   UNL     1       0.283  -5.459   0.299  0.00  0.00    +0.000 C 
ATOM      9  C   UNL     1       1.058  -6.719   0.063  0.00  0.00    +0.000 C 
ATOM     10  C   UNL     1       1.352  -6.765  -1.470  0.00  0.00    +0.001 C 
ATOM     11  C   UNL     1       2.437  -5.705  -1.719  0.00  0.00    +0.014 C 
ATOM     12  C   UNL     1       1.868  -4.462  -2.359  0.00  0.00    +0.052 C 
ATOM     13  S   UNL     1       3.169  -3.165  -2.431  0.00  0.00    -0.134 S 
ATOM     14  C   UNL     1       2.130  -1.684  -2.147  0.00  0.00    +0.145 C 
BRANCH   5  15
ATOM     15  C   UNL     1       0.512  -1.646  -0.280  0.00  0.00    +0.313 C 
ATOM     16  O   UNL     1       1.342  -1.693   0.597  0.00  0.00    -0.250 OA
BRANCH  15  17
ATOM     17  O   UNL     1      -0.669  -1.049  -0.056  0.00  0.00    -0.465 OA
BRANCH  17  19
ATOM     18  C   UNL     1      -2.268   0.143   1.309  0.00  0.00    +0.048 C 
ATOM     19  C   UNL     1      -0.876  -0.490   1.243  0.00  0.00    +0.229 C 
ENDBRANCH  17  19
ENDBRANCH  15  17
ENDBRANCH   5  15
ENDBRANCH   1  14
BRANCH   2  20
ATOM     20  C   UNL     1       3.966   1.215  -0.453  0.00  0.00    +0.134 C 
ATOM     21  C   UNL     1       5.442   0.814  -0.450  0.00  0.00    +0.029 C 
BRANCH  20  22
ATOM     22  S   UNL     1       3.817   2.971  -0.881  0.00  0.00    -0.115 S 
BRANCH  22  23
ATOM     23  C   UNL     1       4.275   3.763   0.504  0.00  0.00    +0.014 C 
ATOM     24  C   UNL     1       4.249   5.134   0.737  0.00  0.00    +0.009 A 
ATOM     25  C   UNL     1       3.855   6.229  -0.064  0.00  0.00    +0.011 A 
ATOM     26  C   UNL     1       3.937   7.490   0.432  0.00  0.00    +0.001 A 
ATOM     27  C   UNL     1       4.405   7.738   1.724  0.00  0.00    +0.002 A 
ATOM     28  C   UNL     1       4.800   6.735   2.547  0.00  0.00    +0.026 A 
ATOM     29  C   UNL     1       4.742   5.391   2.099  0.00  0.00    +0.044 A 
ATOM     30  N   UNL     1       5.062   4.257   2.695  0.00  0.00    -0.379 N 
ATOM     31  C   UNL     1       4.803   3.142   1.779  0.00  0.00    +0.155 C 
ATOM     32  H   UNL     1       5.409   4.175   3.597  0.00  0.00    +0.160 HD
ENDBRANCH  22  23
ENDBRANCH  20  22
ENDBRANCH   2  20
TORSDOF 7
