REMARK  Name = ZINC23632292
REMARK  10 active torsions:
REMARK  status: ('A' for Active; 'I' for Inactive)
REMARK    1  A    between atoms: C_1  and  C_2
REMARK    2  A    between atoms: C_8  and  N_10
REMARK    3  A    between atoms: C_14  and  C_16
REMARK    4  A    between atoms: C_16  and  S_17
REMARK    5  A    between atoms: S_17  and  C_18
REMARK    6  A    between atoms: C_21  and  C_24
REMARK    7  A    between atoms: N_22  and  N_23
REMARK    8  A    between atoms: C_24  and  C_25
REMARK    9  A    between atoms: C_24  and  C_26
REMARK   10  A    between atoms: C_24  and  C_27
REMARK                            x       y       z     vdW  Elec       q    Type
REMARK                         _______ _______ _______ _____ _____    ______ ____
ROOT
ATOM      1  N   UNL     1       1.226   1.024  -2.958  0.00  0.00    -0.296 N 
ATOM      2  C   UNL     1       1.084   0.170  -3.991  0.00  0.00    +0.306 C 
ATOM      3  O   UNL     1       1.640  -0.910  -3.968  0.00  0.00    -0.252 OA
ATOM      4  N   UNL     1       0.324   0.515  -5.050  0.00  0.00    -0.239 N 
ATOM      5  C   UNL     1       0.182  -0.339  -6.083  0.00  0.00    +0.231 C 
ATOM      6  O   UNL     1       0.737  -1.417  -6.060  0.00  0.00    -0.274 OA
ATOM      7  H   UNL     1       0.722   2.002  -2.979  0.00  0.00    +0.151 HD
ATOM      8  H   UNL     1      -0.179   1.492  -5.071  0.00  0.00    +0.159 HD
ENDROOT
BRANCH   1  15
ATOM      9  C   UNL     1       0.121   1.085  -0.281  0.00  0.00    +0.009 C 
ATOM     10  C   UNL     1       1.585   1.423  -0.572  0.00  0.00    +0.006 C 
ATOM     11  C   UNL     1       1.719   2.925  -0.829  0.00  0.00    +0.005 C 
ATOM     12  C   UNL     1       3.183   3.263  -1.120  0.00  0.00    +0.000 C 
ATOM     13  C   UNL     1       3.650   2.490  -2.355  0.00  0.00    +0.002 C 
ATOM     14  C   UNL     1       3.515   0.988  -2.097  0.00  0.00    +0.022 C 
ATOM     15  C   UNL     1       2.051   0.650  -1.807  0.00  0.00    +0.077 C 
ENDBRANCH   1  15
BRANCH   5  16
ATOM     16  C   UNL     1      -0.667   0.046  -7.267  0.00  0.00    +0.173 C 
BRANCH  16  17
ATOM     17  S   UNL     1      -0.660  -1.300  -8.478  0.00  0.00    -0.075 S 
BRANCH  17  18
ATOM     18  C   UNL     1      -1.698  -0.601  -9.718  0.00  0.00    +0.209 A 
ATOM     19  N   UNL     1      -2.276   0.577  -9.679  0.00  0.00    -0.121 NA
ATOM     20  N   UNL     1      -2.959   0.764 -10.752  0.00  0.00    -0.131 NA
ATOM     21  C   UNL     1      -2.864  -0.278 -11.530  0.00  0.00    +0.156 A 
ATOM     22  N   UNL     1      -2.058  -1.185 -10.899  0.00  0.00    -0.227 N 
BRANCH  21  23
ATOM     23  C   UNL     1      -3.522  -0.451 -12.874  0.00  0.00    +0.024 C 
ATOM     24  C   UNL     1      -4.331  -1.750 -12.883  0.00  0.00    +0.019 C 
ATOM     25  C   UNL     1      -4.454   0.732 -13.143  0.00  0.00    +0.019 C 
ATOM     26  C   UNL     1      -2.448  -0.512 -13.963  0.00  0.00    +0.019 C 
ENDBRANCH  21  23
BRANCH  22  27
ATOM     27  N   UNL     1      -1.689  -2.418 -11.355  0.00  0.00    -0.295 N 
ATOM     28  H   UNL     1      -2.050  -2.774 -12.332  0.00  0.00    +0.163 HD
ATOM     29  H   UNL     1      -1.031  -3.056 -10.747  0.00  0.00    +0.163 HD
ENDBRANCH  22  27
ENDBRANCH  17  18
ENDBRANCH  16  17
ENDBRANCH   5  16
TORSDOF 6
