REMARK  Name = ZINC13817491
REMARK  6 active torsions:
REMARK  status: ('A' for Active; 'I' for Inactive)
REMARK    1  A    between atoms: C_1  and  C_2
REMARK    2  A    between atoms: C_5  and  C_8
REMARK    3  A    between atoms: C_8  and  C_10
REMARK    4  A    between atoms: C_12  and  C_31
REMARK    5  A    between atoms: C_23  and  C_30
REMARK    6  A    between atoms: C_34  and  N_37
REMARK                            x       y       z     vdW  Elec       q    Type
REMARK                         _______ _______ _______ _____ _____    ______ ____
ROOT
ATOM      1  C   UNL     1      -0.063  -4.547   2.218  0.00  0.00    +0.103 C 
ATOM      2  C   UNL     1      -1.372  -5.252   1.779  0.00  0.00    +0.050 C 
ATOM      3  C   UNL     1      -0.870  -6.270   0.733  0.00  0.00    +0.077 C 
ATOM      4  C   UNL     1      -1.884  -7.416   0.572  0.00  0.00    +0.090 C 
ATOM      5  S   UNL     1      -1.275  -8.635   1.809  0.00  0.00    -0.144 S 
ATOM      6  C   UNL     1       0.187  -7.697   2.420  0.00  0.00    +0.155 C 
ATOM      7  N   UNL     1       0.422  -6.744   1.291  0.00  0.00    -0.271 NA
ATOM      8  C   UNL     1       1.055  -5.531   1.856  0.00  0.00    +0.137 C 
ATOM      9  C   UNL     1       1.893  -5.870   3.059  0.00  0.00    +0.004 A 
ATOM     10  C   UNL     1       1.609  -6.444   4.278  0.00  0.00    +0.011 A 
ATOM     11  C   UNL     1       2.618  -6.634   5.205  0.00  0.00    -0.050 A 
ATOM     12  C   UNL     1       3.911  -6.246   4.904  0.00  0.00    +0.005 A 
ATOM     13  C   UNL     1       4.200  -5.671   3.685  0.00  0.00    +0.024 A 
ATOM     14  C   UNL     1       3.190  -5.476   2.745  0.00  0.00    +0.039 A 
ATOM     15  N   UNL     1       3.230  -4.924   1.463  0.00  0.00    -0.283 N 
ATOM     16  C   UNL     1       2.019  -4.920   0.874  0.00  0.00    +0.243 C 
ATOM     17  O   UNL     1       1.756  -4.505  -0.235  0.00  0.00    -0.273 OA
ATOM     18  C   UNL     1       2.309  -7.261   6.540  0.00  0.00    +0.044 C 
ATOM     19  H   UNL     1       4.036  -4.583   1.045  0.00  0.00    +0.155 HD
ENDROOT
BRANCH   2  20
ATOM     20  C   UNL     1      -2.327  -4.267   1.157  0.00  0.00    -0.042 A 
ATOM     21  C   UNL     1      -2.555  -4.291  -0.206  0.00  0.00    +0.006 A 
ATOM     22  C   UNL     1      -3.432  -3.387  -0.776  0.00  0.00    +0.033 A 
ATOM     23  C   UNL     1      -4.081  -2.459   0.016  0.00  0.00    +0.126 A 
ATOM     24  C   UNL     1      -3.854  -2.436   1.380  0.00  0.00    +0.033 A 
ATOM     25  C   UNL     1      -2.981  -3.342   1.951  0.00  0.00    +0.006 A 
BRANCH  23  26
ATOM     26  N   UNL     1      -5.019  -1.491  -0.595  0.00  0.00    +0.056 N 
ATOM     27  O   UNL     1      -5.217  -1.511  -1.787  0.00  0.00    -0.126 OA
ATOM     28  O   UNL     1      -5.587  -0.679   0.099  0.00  0.00    -0.126 OA
ENDBRANCH  23  26
ENDBRANCH   2  20
BRANCH   1  29
ATOM     29  C   UNL     1       0.113  -3.253   1.467  0.00  0.00    +0.169 C 
ATOM     30  O   UNL     1      -0.275  -3.159   0.322  0.00  0.00    -0.292 OA
BRANCH  29  35
ATOM     31  C   UNL     1       2.626   1.239   4.029  0.00  0.00    +0.044 C 
ATOM     32  C   UNL     1       1.967   0.061   3.357  0.00  0.00    -0.050 A 
ATOM     33  C   UNL     1       1.526   0.172   2.050  0.00  0.00    +0.004 A 
ATOM     34  C   UNL     1       0.922  -0.900   1.428  0.00  0.00    +0.011 A 
ATOM     35  C   UNL     1       0.757  -2.103   2.122  0.00  0.00    +0.018 A 
ATOM     36  C   UNL     1       1.206  -2.208   3.443  0.00  0.00    +0.011 A 
ATOM     37  C   UNL     1       1.812  -1.128   4.048  0.00  0.00    +0.004 A 
ENDBRANCH  29  35
ENDBRANCH   1  29
TORSDOF 4
