REMARK  Name = ZINC43740999
REMARK  9 active torsions:
REMARK  status: ('A' for Active; 'I' for Inactive)
REMARK    1  A    between atoms: C_1  and  C_2
REMARK    2  A    between atoms: C_17  and  C_37
REMARK    3  A    between atoms: C_22  and  C_23
REMARK    4  A    between atoms: C_22  and  O_36
REMARK    5  A    between atoms: C_23  and  N_24
REMARK    6  A    between atoms: C_25  and  C_26
REMARK    7  A    between atoms: C_30  and  O_33
REMARK    8  A    between atoms: C_31  and  O_32
REMARK    9  A    between atoms: O_33  and  C_34
REMARK                            x       y       z     vdW  Elec       q    Type
REMARK                         _______ _______ _______ _____ _____    ______ ____
ROOT
ATOM      1  C   UNL     1       0.142   1.486   0.459  0.00  0.00    +0.012 C 
ATOM      2  C   UNL     1       0.084  -0.035   0.277  0.00  0.00    -0.026 C 
ATOM      3  C   UNL     1       0.789  -0.398  -1.035  0.00  0.00    +0.007 C 
ATOM      4  C   UNL     1       2.262   0.004  -0.975  0.00  0.00    +0.001 C 
ATOM      5  C   UNL     1       2.949  -0.697   0.197  0.00  0.00    +0.000 C 
ATOM      6  C   UNL     1       2.249  -0.335   1.508  0.00  0.00    +0.004 C 
ATOM      7  C   UNL     1       0.779  -0.741   1.433  0.00  0.00    -0.005 C 
ATOM      8  C   UNL     1       0.071  -0.412   2.746  0.00  0.00    +0.004 C 
ATOM      9  C   UNL     1      -1.370  -0.905   2.661  0.00  0.00    +0.004 C 
ATOM     10  C   UNL     1      -2.123  -0.229   1.503  0.00  0.00    -0.004 C 
ATOM     11  C   UNL     1      -1.390  -0.442   0.189  0.00  0.00    -0.001 C 
ATOM     12  C   UNL     1      -1.543  -1.845  -0.365  0.00  0.00    +0.005 C 
ATOM     13  C   UNL     1      -3.002  -2.303  -0.497  0.00  0.00    +0.010 C 
ATOM     14  C   UNL     1      -3.950  -1.281   0.061  0.00  0.00    +0.001 C 
ATOM     15  C   UNL     1      -3.503  -0.848   1.467  0.00  0.00    +0.001 C 
ATOM     16  C   UNL     1      -4.668   0.050   1.909  0.00  0.00    +0.007 C 
ATOM     17  C   UNL     1      -5.915  -0.700   1.363  0.00  0.00    +0.037 C 
ATOM     18  C   UNL     1      -5.388  -1.756   0.354  0.00  0.00    +0.089 C 
ATOM     19  C   UNL     1      -4.112  -0.096  -0.901  0.00  0.00    +0.014 C 
ENDROOT
BRANCH  18  20
ATOM     20  O   UNL     1      -6.159  -1.716  -0.848  0.00  0.00    -0.386 OA
ATOM     21  H   UNL     1      -7.076  -2.002  -0.736  0.00  0.00    +0.210 HD
ENDBRANCH  18  20
BRANCH  18  22
ATOM     22  C   UNL     1      -5.422  -3.145   0.973  0.00  0.00    +0.147 C 
BRANCH  22  23
ATOM     23  N   UNL     1      -6.812  -3.534   1.225  0.00  0.00    -0.387 N 
ATOM     24  C   UNL     1      -7.331  -4.532   0.585  0.00  0.00    +0.090 C 
ATOM     25  H   UNL     1      -7.343  -3.043   1.872  0.00  0.00    +0.159 HD
BRANCH  24  26
ATOM     26  C   UNL     1      -8.768  -4.828   0.722  0.00  0.00    +0.037 A 
ATOM     27  C   UNL     1      -9.309  -5.974   0.132  0.00  0.00    +0.028 A 
ATOM     28  C   UNL     1     -10.653  -6.248   0.263  0.00  0.00    +0.022 A 
ATOM     29  C   UNL     1     -11.475  -5.391   0.978  0.00  0.00    +0.064 A 
ATOM     30  C   UNL     1     -10.954  -4.251   1.567  0.00  0.00    +0.163 A 
ATOM     31  C   UNL     1      -9.598  -3.965   1.448  0.00  0.00    +0.167 A 
ATOM     32 BR   UNL     1     -11.380  -7.800  -0.536  0.00  0.00    -0.050 Br
BRANCH  31  33
ATOM     33  O   UNL     1      -9.082  -2.851   2.029  0.00  0.00    -0.503 OA
ATOM     34  H   UNL     1      -9.098  -2.068   1.462  0.00  0.00    +0.292 HD
ENDBRANCH  31  33
BRANCH  30  35
ATOM     35  O   UNL     1     -11.767  -3.415   2.266  0.00  0.00    -0.491 OA
ATOM     36  C   UNL     1     -13.147  -3.773   2.352  0.00  0.00    +0.277 C 
ENDBRANCH  30  35
ENDBRANCH  24  26
ENDBRANCH  22  23
ENDBRANCH  18  22
TORSDOF 6
