REMARK  Name = ZINC58930683
REMARK  7 active torsions:
REMARK  status: ('A' for Active; 'I' for Inactive)
REMARK    1  A    between atoms: C_4  and  N_7
REMARK    2  A    between atoms: C_10  and  C_26
REMARK    3  A    between atoms: N_12  and  C_15
REMARK    4  A    between atoms: C_15  and  C_16
REMARK    5  A    between atoms: C_16  and  C_17
REMARK    6  A    between atoms: C_26  and  C_27
REMARK    7  A    between atoms: N_29  and  C_30
REMARK                            x       y       z     vdW  Elec       q    Type
REMARK                         _______ _______ _______ _____ _____    ______ ____
ROOT
ATOM      1  N   UNL     1       4.636  -0.977   1.071  0.00  0.00    -0.220 N 
ATOM      2  C   UNL     1       4.560  -2.312   0.903  0.00  0.00    +0.246 C 
ATOM      3  O   UNL     1       3.582  -3.014   1.047  0.00  0.00    -0.273 OA
ATOM      4  C   UNL     1       5.952  -2.754   0.496  0.00  0.00    +0.171 C 
ATOM      5  N   UNL     1       6.723  -1.499   0.480  0.00  0.00    -0.300 N 
ATOM      6  C   UNL     1       5.868  -0.518   0.824  0.00  0.00    +0.147 C 
ATOM      7  S   UNL     1       6.310   1.132   0.937  0.00  0.00    -0.018 S 
ENDROOT
BRANCH   1  11
ATOM      8  C   UNL     1       1.423   1.427   2.200  0.00  0.00    +0.000 A 
ATOM      9  C   UNL     1       1.958   1.542   0.930  0.00  0.00    +0.002 A 
ATOM     10  C   UNL     1       3.023   0.747   0.553  0.00  0.00    +0.024 A 
ATOM     11  C   UNL     1       3.556  -0.168   1.450  0.00  0.00    +0.043 A 
ATOM     12  C   UNL     1       3.017  -0.282   2.725  0.00  0.00    +0.024 A 
ATOM     13  C   UNL     1       1.952   0.516   3.096  0.00  0.00    +0.002 A 
ENDBRANCH   1  11
BRANCH   5  14
ATOM     14  C   UNL     1       8.142  -1.348   0.150  0.00  0.00    +0.112 C 
BRANCH  14  15
ATOM     15  C   UNL     1       8.284  -0.958  -1.323  0.00  0.00    +0.054 C 
BRANCH  15  16
ATOM     16  C   UNL     1       9.733  -0.681  -1.632  0.00  0.00    -0.042 A 
ATOM     17  C   UNL     1      10.262   0.573  -1.393  0.00  0.00    +0.007 A 
ATOM     18  C   UNL     1      11.590   0.832  -1.674  0.00  0.00    +0.050 A 
ATOM     19  C   UNL     1      12.395  -0.167  -2.197  0.00  0.00    +0.166 A 
ATOM     20  C   UNL     1      11.863  -1.431  -2.438  0.00  0.00    +0.166 A 
ATOM     21  C   UNL     1      10.532  -1.685  -2.148  0.00  0.00    +0.053 A 
ATOM     22  O   UNL     1      12.846  -2.229  -2.948  0.00  0.00    -0.453 OA
ATOM     23  C   UNL     1      13.876  -1.329  -3.398  0.00  0.00    +0.466 C 
ATOM     24  O   UNL     1      13.712  -0.173  -2.556  0.00  0.00    -0.453 OA
ENDBRANCH  15  16
ENDBRANCH  14  15
ENDBRANCH   5  14
BRANCH   4  25
ATOM     25  C   UNL     1       5.928  -3.393  -0.894  0.00  0.00    +0.128 C 
BRANCH  25  26
ATOM     26  C   UNL     1       5.174  -4.697  -0.835  0.00  0.00    +0.219 C 
ATOM     27  O   UNL     1       4.812  -5.140   0.234  0.00  0.00    -0.275 OA
ATOM     28  N   UNL     1       4.902  -5.370  -1.970  0.00  0.00    -0.285 N 
ATOM     29  H   UNL     1       5.262  -5.060  -2.816  0.00  0.00    +0.155 HD
BRANCH  28  30
ATOM     30  C   UNL     1       4.101  -6.517  -1.929  0.00  0.00    +0.034 A 
ATOM     31  C   UNL     1       3.050  -6.599  -1.025  0.00  0.00    +0.026 A 
ATOM     32  C   UNL     1       2.260  -7.731  -0.986  0.00  0.00    +0.040 A 
ATOM     33  C   UNL     1       2.516  -8.785  -1.848  0.00  0.00    +0.124 A 
ATOM     34  C   UNL     1       3.563  -8.705  -2.750  0.00  0.00    +0.040 A 
ATOM     35  C   UNL     1       4.351  -7.572  -2.797  0.00  0.00    +0.026 A 
ATOM     36  F   UNL     1       1.743  -9.892  -1.807  0.00  0.00    -0.205 F 
ENDBRANCH  28  30
ENDBRANCH  25  26
ENDBRANCH   4  25
TORSDOF 7
