REMARK  Name = ZINC08912655
REMARK  9 active torsions:
REMARK  status: ('A' for Active; 'I' for Inactive)
REMARK    1  A    between atoms: C_1  and  C_2
REMARK    2  A    between atoms: C_5  and  C_34
REMARK    3  A    between atoms: C_15  and  C_18
REMARK    4  A    between atoms: N_20  and  C_21
REMARK    5  A    between atoms: C_21  and  C_22
REMARK    6  A    between atoms: C_22  and  C_23
REMARK    7  A    between atoms: C_23  and  N_24
REMARK    8  A    between atoms: C_26  and  C_33
REMARK    9  A    between atoms: C_29  and  C_32
REMARK                            x       y       z     vdW  Elec       q    Type
REMARK                         _______ _______ _______ _____ _____    ______ ____
ROOT
ATOM      1  C   UNL     1      -0.018   1.503   0.010  0.00  0.00    +0.064 C 
ATOM      2  C   UNL     1       0.002  -0.004   0.002  0.00  0.00    +0.023 A 
ATOM      3  C   UNL     1       0.008  -0.789  -1.095  0.00  0.00    +0.023 A 
ATOM      4  C   UNL     1       0.028  -2.128  -0.657  0.00  0.00    +0.023 A 
ATOM      5  C   UNL     1       0.034  -2.113   0.692  0.00  0.00    +0.023 A 
ATOM      6  N   UNL     1       0.024  -0.811   1.104  0.00  0.00    -0.296 N 
ATOM      7  C   UNL     1       0.030  -0.377   2.431  0.00  0.00    +0.202 A 
ATOM      8  N   UNL     1       0.012   0.850   2.924  0.00  0.00    -0.121 NA
ATOM      9  N   UNL     1       0.022   1.072   4.165  0.00  0.00    -0.124 NA
ATOM     10  C   UNL     1       0.050   0.089   5.053  0.00  0.00    +0.186 A 
ATOM     11  S   UNL     1       0.058  -1.323   3.951  0.00  0.00    -0.013 S 
ATOM     12  N   UNL     1       0.064   0.138   6.440  0.00  0.00    -0.308 N 
ATOM     13  C   UNL     1       0.103  -1.098   7.233  0.00  0.00    +0.108 C 
ATOM     14  C   UNL     1       1.280  -1.020   8.210  0.00  0.00    +0.032 C 
ATOM     15  C   UNL     1       1.162   0.258   9.044  0.00  0.00    +0.078 C 
ATOM     16  C   UNL     1       1.218   1.478   8.122  0.00  0.00    +0.032 C 
ATOM     17  C   UNL     1       0.047   1.428   7.143  0.00  0.00    +0.108 C 
ATOM     18  C   UNL     1       0.054  -3.324   1.589  0.00  0.00    +0.064 C 
ENDROOT
BRANCH  15  19
ATOM     19  C   UNL     1       2.300   0.321  10.030  0.00  0.00    +0.216 C 
ATOM     20  O   UNL     1       3.123  -0.569  10.063  0.00  0.00    -0.276 OA
ATOM     21  N   UNL     1       2.401   1.365  10.876  0.00  0.00    -0.315 N 
ATOM     22  H   UNL     1       1.742   2.077  10.850  0.00  0.00    +0.149 HD
BRANCH  21  23
ATOM     23  C   UNL     1       3.507   1.427  11.835  0.00  0.00    +0.102 C 
BRANCH  23  24
ATOM     24  C   UNL     1       3.389   2.704  12.668  0.00  0.00    +0.000 C 
BRANCH  24  25
ATOM     25  C   UNL     1       4.544   2.768  13.670  0.00  0.00    -0.077 C 
BRANCH  25  26
ATOM     26  N   UNL     1       4.431   3.995  14.470  0.00  0.00    +0.380 N 
ATOM     27  C   UNL     1       4.597   5.164  13.598  0.00  0.00    -0.076 C 
ATOM     28  C   UNL     1       4.400   6.444  14.412  0.00  0.00    -0.031 C 
ATOM     29  C   UNL     1       5.438   6.493  15.536  0.00  0.00    +0.003 C 
ATOM     30  C   UNL     1       5.304   5.233  16.396  0.00  0.00    -0.031 C 
ATOM     31  C   UNL     1       5.468   3.997  15.509  0.00  0.00    -0.076 C 
ATOM     32  C   UNL     1       3.925   5.209  17.057  0.00  0.00    +0.005 C 
ATOM     33  C   UNL     1       4.575   7.661  13.500  0.00  0.00    +0.005 C 
ATOM     34  H   UNL     1       3.521   4.029  14.905  0.00  0.00    -0.082 HD
ENDBRANCH  25  26
ENDBRANCH  24  25
ENDBRANCH  23  24
ENDBRANCH  21  23
ENDBRANCH  15  19
TORSDOF 5
