REMARK  Name = ZINC09307121
REMARK  8 active torsions:
REMARK  status: ('A' for Active; 'I' for Inactive)
REMARK    1  A    between atoms: C_1  and  C_2
REMARK    2  A    between atoms: C_9  and  S_11
REMARK    3  A    between atoms: S_11  and  C_12
REMARK    4  A    between atoms: C_12  and  C_13
REMARK    5  A    between atoms: N_15  and  C_16
REMARK    6  A    between atoms: C_21  and  C_22
REMARK    7  A    between atoms: C_22  and  C_23
REMARK    8  A    between atoms: C_22  and  C_24
REMARK                            x       y       z     vdW  Elec       q    Type
REMARK                         _______ _______ _______ _____ _____    ______ ____
ROOT
ATOM      1  C   UNL     1       0.071  -4.962   4.415  0.00  0.00    +0.173 C 
ENDROOT
BRANCH   1   2
ATOM      2  C   UNL     1       0.103  -6.135   5.362  0.00  0.00    +0.227 C 
ATOM      3  O   UNL     1       0.124  -7.266   4.926  0.00  0.00    -0.275 OA
ATOM      4  N   UNL     1       0.109  -5.926   6.693  0.00  0.00    -0.285 N 
ATOM      5  H   UNL     1       0.173  -5.023   7.042  0.00  0.00    +0.155 HD
BRANCH   4   6
ATOM      6  C   UNL     1       0.023  -7.011   7.572  0.00  0.00    +0.037 A 
ATOM      7  C   UNL     1      -0.569  -8.197   7.157  0.00  0.00    +0.023 A 
ATOM      8  C   UNL     1      -0.652  -9.267   8.027  0.00  0.00    +0.002 A 
ATOM      9  C   UNL     1      -0.148  -9.157   9.310  0.00  0.00    +0.000 A 
ATOM     10  C   UNL     1       0.441  -7.978   9.726  0.00  0.00    +0.006 A 
ATOM     11  C   UNL     1       0.534  -6.906   8.859  0.00  0.00    -0.024 A 
BRANCH  11  12
ATOM     12  C   UNL     1       1.182  -5.623   9.311  0.00  0.00    +0.015 C 
ATOM     13  C   UNL     1       0.501  -5.130  10.589  0.00  0.00    +0.012 C 
ATOM     14  C   UNL     1       2.666  -5.872   9.588  0.00  0.00    +0.012 C 
ENDBRANCH  11  12
ENDBRANCH   4   6
ENDBRANCH   1   2
BRANCH   1  15
ATOM     15  S   UNL     1       0.071  -5.566   2.705  0.00  0.00    -0.077 S 
BRANCH  15  24
ATOM     16  C   UNL     1      -0.103   1.506   0.016  0.00  0.00    +0.067 C 
ATOM     17  C   UNL     1      -0.071  -0.001   0.007  0.00  0.00    +0.055 A 
ATOM     18  C   UNL     1      -0.067  -0.671  -1.205  0.00  0.00    +0.041 A 
ATOM     19  C   UNL     1      -0.037  -2.058  -1.217  0.00  0.00    +0.048 A 
ATOM     20  C   UNL     1      -0.012  -2.724  -0.001  0.00  0.00    +0.112 A 
ATOM     21  C   UNL     1      -0.018  -1.982   1.194  0.00  0.00    +0.181 A 
ATOM     22  N   UNL     1      -0.042  -0.652   1.151  0.00  0.00    -0.230 NA
ATOM     23  N   UNL     1       0.009  -2.876   2.214  0.00  0.00    -0.201 NA
ATOM     24  C   UNL     1       0.032  -4.096   1.734  0.00  0.00    +0.191 A 
ATOM     25  N   UNL     1       0.019  -4.058   0.369  0.00  0.00    -0.219 NA
ATOM     26 BR   UNL     1      -0.101   0.295  -2.830  0.00  0.00    -0.048 Br
ENDBRANCH  15  24
ENDBRANCH   1  15
TORSDOF 5
