REMARK  Name = ZINC13214385
REMARK  10 active torsions:
REMARK  status: ('A' for Active; 'I' for Inactive)
REMARK    1  A    between atoms: C_1  and  C_2
REMARK    2  A    between atoms: C_2  and  O_3
REMARK    3  A    between atoms: O_3  and  C_4
REMARK    4  A    between atoms: C_9  and  C_10
REMARK    5  A    between atoms: C_12  and  C_27
REMARK    6  A    between atoms: N_16  and  C_17
REMARK    7  A    between atoms: C_21  and  C_23
REMARK    8  A    between atoms: C_27  and  C_29
REMARK    9  A    between atoms: C_32  and  O_36
REMARK   10  A    between atoms: O_36  and  C_37
REMARK                            x       y       z     vdW  Elec       q    Type
REMARK                         _______ _______ _______ _____ _____    ______ ____
ROOT
ATOM      1  C   UNL     1      -3.445  -1.891   0.044  0.00  0.00    +0.153 C 
ATOM      2  C   UNL     1      -4.049  -1.282  -1.200  0.00  0.00    +0.077 C 
ATOM      3  C   UNL     1      -5.356  -1.630  -1.210  0.00  0.00    +0.250 C 
ATOM      4  C   UNL     1      -5.650  -2.451  -0.017  0.00  0.00    +0.292 C 
ATOM      5  O   UNL     1      -6.738  -2.917   0.258  0.00  0.00    -0.266 OA
ATOM      6  N   UNL     1      -4.534  -2.606   0.721  0.00  0.00    -0.253 N 
ATOM      7  O   UNL     1      -6.253  -1.281  -2.162  0.00  0.00    -0.282 OA
ENDROOT
BRANCH   1  13
ATOM      8  C   UNL     1      -1.043  -2.401  -0.462  0.00  0.00    +0.126 A 
ATOM      9  C   UNL     1      -0.034  -3.290  -0.801  0.00  0.00    +0.046 A 
ATOM     10  C   UNL     1      -0.331  -4.623  -1.013  0.00  0.00    +0.004 A 
ATOM     11  C   UNL     1      -1.633  -5.070  -0.886  0.00  0.00    +0.001 A 
ATOM     12  C   UNL     1      -2.641  -4.186  -0.548  0.00  0.00    +0.009 A 
ATOM     13  C   UNL     1      -2.348  -2.853  -0.330  0.00  0.00    +0.020 A 
BRANCH   8  14
ATOM     14  O   UNL     1      -0.753  -1.090  -0.253  0.00  0.00    -0.492 OA
BRANCH  14  16
ATOM     15  C   UNL     1       0.751   0.796  -0.093  0.00  0.00    +0.048 C 
ATOM     16  C   UNL     1       0.610  -0.693  -0.418  0.00  0.00    +0.225 C 
ENDBRANCH  14  16
ENDBRANCH   8  14
ENDBRANCH   1  13
BRANCH   6  17
ATOM     17  C   UNL     1      -4.430  -3.321   1.917  0.00  0.00    +0.038 A 
ATOM     18  C   UNL     1      -3.209  -3.395   2.579  0.00  0.00    +0.023 A 
ATOM     19  C   UNL     1      -3.101  -4.100   3.763  0.00  0.00    +0.003 A 
ATOM     20  C   UNL     1      -4.203  -4.737   4.296  0.00  0.00    +0.015 A 
ATOM     21  C   UNL     1      -5.434  -4.669   3.639  0.00  0.00    +0.065 A 
ATOM     22  C   UNL     1      -5.545  -3.951   2.447  0.00  0.00    +0.038 A 
BRANCH  21  23
ATOM     23  C   UNL     1      -6.615  -5.348   4.207  0.00  0.00    +0.387 C 
ATOM     24  O   UNL     1      -6.516  -5.972   5.254  0.00  0.00    -0.241 OA
ATOM     25  O   UNL     1      -7.691  -5.287   3.631  0.00  0.00    -0.241 OA
ENDBRANCH  21  23
ENDBRANCH   6  17
BRANCH   2  26
ATOM     26  C   UNL     1      -3.352  -0.469  -2.202  0.00  0.00    +0.198 C 
ATOM     27  O   UNL     1      -3.205  -0.892  -3.334  0.00  0.00    -0.287 OA
BRANCH  26  28
ATOM     28  C   UNL     1      -2.829   0.861  -1.839  0.00  0.00    +0.057 A 
ATOM     29  C   UNL     1      -3.093   1.398  -0.574  0.00  0.00    +0.018 A 
ATOM     30  C   UNL     1      -2.603   2.639  -0.239  0.00  0.00    +0.046 A 
ATOM     31  C   UNL     1      -1.847   3.363  -1.156  0.00  0.00    +0.123 A 
ATOM     32  C   UNL     1      -1.581   2.837  -2.413  0.00  0.00    +0.084 A 
ATOM     33  C   UNL     1      -2.062   1.590  -2.757  0.00  0.00    +0.138 A 
ATOM     34  F   UNL     1      -1.799   1.076  -3.978  0.00  0.00    -0.205 F 
BRANCH  31  35
ATOM     35  O   UNL     1      -1.367   4.587  -0.820  0.00  0.00    -0.495 OA
ATOM     36  C   UNL     1      -0.598   5.276  -1.807  0.00  0.00    +0.277 C 
ENDBRANCH  31  35
ENDBRANCH  26  28
ENDBRANCH   2  26
TORSDOF 8
