REMARK  Name = ZINC00163218
REMARK  5 active torsions:
REMARK  status: ('A' for Active; 'I' for Inactive)
REMARK    1  A    between atoms: C_1  and  S_2
REMARK    2  A    between atoms: S_2  and  C_3
REMARK    3  A    between atoms: C_4  and  C_18
REMARK    4  A    between atoms: C_5  and  N_17
REMARK    5  A    between atoms: C_7  and  C_9
REMARK                            x       y       z     vdW  Elec       q    Type
REMARK                         _______ _______ _______ _____ _____    ______ ____
ROOT
ATOM      1  C   UNL     1       1.114   2.021   0.002  0.00  0.00    +0.120 A 
ATOM      2  C   UNL     1       2.343   1.329  -0.013  0.00  0.00    +0.123 A 
ATOM      3  C   UNL     1       2.311  -0.079  -0.020  0.00  0.00    +0.139 A 
ATOM      4  N   UNL     1       1.133  -0.695  -0.013  0.00  0.00    -0.212 NA
ATOM      5  C   UNL     1       0.002  -0.004   0.002  0.00  0.00    +0.163 A 
ATOM      6  N   UNL     1      -0.016   1.321   0.009  0.00  0.00    -0.220 NA
ENDROOT
BRANCH   5   7
ATOM      7  C   UNL     1      -1.287  -0.739   0.011  0.00  0.00    +0.025 A 
ATOM      8  C   UNL     1      -2.504  -0.053   0.033  0.00  0.00    +0.051 A 
ATOM      9  C   UNL     1      -3.682  -0.776   0.034  0.00  0.00    +0.132 A 
ATOM     10  N   UNL     1      -3.666  -2.096   0.027  0.00  0.00    -0.224 NA
ATOM     11  C   UNL     1      -2.538  -2.781   0.012  0.00  0.00    +0.132 A 
ATOM     12  C   UNL     1      -1.316  -2.136   0.004  0.00  0.00    +0.051 A 
ATOM     13 CL   UNL     1      -2.591  -4.516   0.004  0.00  0.00    -0.062 Cl
ATOM     14 CL   UNL     1      -5.202   0.063   0.054  0.00  0.00    -0.062 Cl
ENDBRANCH   5   7
BRANCH   3  15
ATOM     15  N   UNL     1       3.484  -0.808  -0.036  0.00  0.00    -0.342 N 
ATOM     16  H   UNL     1       3.452  -1.778  -0.041  0.00  0.00    +0.144 HD
ATOM     17  H   UNL     1       4.339  -0.350  -0.042  0.00  0.00    +0.144 HD
ENDBRANCH   3  15
BRANCH   1  19
ATOM     18  C   UNL     1      -0.711   4.059   0.032  0.00  0.00    +0.091 C 
ATOM     19  S   UNL     1       1.077   3.782   0.013  0.00  0.00    -0.108 S 
ENDBRANCH   1  19
BRANCH   2  20
ATOM     20  C   UNL     1       3.587   2.038  -0.021  0.00  0.00    +0.105 C 
ATOM     21  N   UNL     1       4.574   2.600  -0.027  0.00  0.00    -0.191 NA
ENDBRANCH   2  20
TORSDOF 4
