REMARK  Name = ZINC01816883
REMARK  2 active torsions:
REMARK  status: ('A' for Active; 'I' for Inactive)
REMARK    1  A    between atoms: C_5  and  C_7
REMARK    2  A    between atoms: C_13  and  C_15
REMARK                            x       y       z     vdW  Elec       q    Type
REMARK                         _______ _______ _______ _____ _____    ______ ____
ROOT
ATOM      1  C   UNL     1       1.229  -2.186  -0.022  0.00  0.00    +0.295 C 
ATOM      2  N   UNL     1      -0.047  -2.700   0.426  0.00  0.00    -0.175 NA
ATOM      3  C   UNL     1      -1.130  -2.035  -0.364  0.00  0.00    +0.138 C 
ATOM      4  C   UNL     1      -2.340  -2.556   0.362  0.00  0.00    +0.023 C 
ATOM      5  C   UNL     1      -1.889  -2.827   1.610  0.00  0.00    +0.047 C 
ATOM      6  N   UNL     1      -0.508  -2.527   1.686  0.00  0.00    -0.273 N 
ATOM      7  C   UNL     1      -0.933  -2.478  -1.776  0.00  0.00    +0.019 A 
ATOM      8  C   UNL     1      -1.992  -2.620  -2.647  0.00  0.00    +0.024 A 
ATOM      9  C   UNL     1      -1.769  -3.022  -3.952  0.00  0.00    +0.019 A 
ATOM     10  C   UNL     1      -0.479  -3.278  -4.383  0.00  0.00    +0.034 A 
ATOM     11  C   UNL     1       0.584  -3.141  -3.513  0.00  0.00    +0.061 A 
ATOM     12  C   UNL     1       0.369  -2.744  -2.198  0.00  0.00    +0.142 A 
ATOM     13  O   UNL     1       1.428  -2.667  -1.363  0.00  0.00    -0.467 OA
ATOM     14 BR   UNL     1       2.342  -3.494  -4.114  0.00  0.00    -0.046 Br
ATOM     15 BR   UNL     1      -3.223  -3.218  -5.144  0.00  0.00    -0.050 Br
ATOM     16  H   UNL     1      -0.003  -2.257   2.469  0.00  0.00    +0.167 HD
ENDROOT
BRANCH   1  21
ATOM     17  C   UNL     1       0.841   1.396  -1.149  0.00  0.00    +0.001 A 
ATOM     18  C   UNL     1       1.172   2.086   0.003  0.00  0.00    +0.001 A 
ATOM     19  C   UNL     1       1.521   1.394   1.147  0.00  0.00    +0.020 A 
ATOM     20  C   UNL     1       1.540   0.011   1.139  0.00  0.00    +0.049 A 
ATOM     21  C   UNL     1       1.208  -0.679  -0.013  0.00  0.00    +0.027 A 
ATOM     22  C   UNL     1       0.859   0.014  -1.157  0.00  0.00    +0.010 A 
ATOM     23 CL   UNL     1       1.979  -0.860   2.576  0.00  0.00    -0.083 Cl
ENDBRANCH   1  21
BRANCH   5  24
ATOM     24  C   UNL     1      -2.712  -3.354   2.722  0.00  0.00    -0.003 A 
ATOM     25  C   UNL     1      -4.068  -3.617   2.526  0.00  0.00    +0.011 A 
ATOM     26  C   UNL     1      -4.830  -4.109   3.565  0.00  0.00    +0.020 A 
ATOM     27  C   UNL     1      -4.252  -4.341   4.802  0.00  0.00    +0.041 A 
ATOM     28  C   UNL     1      -2.907  -4.081   5.002  0.00  0.00    +0.020 A 
ATOM     29  C   UNL     1      -2.134  -3.595   3.968  0.00  0.00    +0.011 A 
ATOM     30 CL   UNL     1      -5.217  -4.958   6.106  0.00  0.00    -0.084 Cl
ENDBRANCH   5  24
TORSDOF 2
