REMARK  Name = ZINC64328012
REMARK  11 active torsions:
REMARK  status: ('A' for Active; 'I' for Inactive)
REMARK    1  A    between atoms: C_1  and  C_2
REMARK    2  A    between atoms: C_2  and  C_3
REMARK    3  A    between atoms: C_2  and  C_4
REMARK    4  A    between atoms: N_6  and  C_27
REMARK    5  A    between atoms: C_7  and  O_25
REMARK    6  A    between atoms: C_9  and  C_11
REMARK    7  A    between atoms: C_11  and  N_12
REMARK    8  A    between atoms: N_12  and  C_13
REMARK    9  A    between atoms: C_13  and  C_14
REMARK   10  A    between atoms: C_14  and  C_15
REMARK   11  A    between atoms: O_25  and  C_26
REMARK                            x       y       z     vdW  Elec       q    Type
REMARK                         _______ _______ _______ _____ _____    ______ ____
ROOT
ATOM      1  N   UNL     1       0.393  -3.317  -0.722  0.00  0.00    +0.380 N 
ATOM      2  H   UNL     1      -0.504  -3.631  -0.384  0.00  0.00    -0.086 HD
ATOM      3  H   UNL     1       0.286  -2.429  -1.188  0.00  0.00    -0.086 HD
ENDROOT
BRANCH   1   4
ATOM      4  C   UNL     1       1.318  -3.168   0.410  0.00  0.00    -0.069 C 
BRANCH   4   9
ATOM      5  C   UNL     1       1.685  -1.957   2.566  0.00  0.00    +0.045 C 
ATOM      6  N   UNL     1       1.214  -2.372   3.670  0.00  0.00    -0.191 NA
ATOM      7  N   UNL     1      -0.044  -2.963   3.576  0.00  0.00    -0.230 N 
ATOM      8  C   UNL     1      -0.476  -2.932   2.169  0.00  0.00    +0.228 C 
ATOM      9  C   UNL     1       0.700  -2.236   1.453  0.00  0.00    +0.067 C 
ATOM     10  C   UNL     1      -0.810  -3.523   4.692  0.00  0.00    +0.154 C 
BRANCH   5  12
ATOM     11  C   UNL     1       2.808   0.155   1.913  0.00  0.00    +0.013 C 
ATOM     12  C   UNL     1       3.021  -1.282   2.393  0.00  0.00    +0.029 C 
ATOM     13  C   UNL     1       3.763  -1.268   3.730  0.00  0.00    +0.013 C 
ENDBRANCH   5  12
BRANCH   8  14
ATOM     14  O   UNL     1      -0.667  -4.257   1.670  0.00  0.00    -0.360 OA
ATOM     15  C   UNL     1      -1.886  -4.869   2.096  0.00  0.00    +0.196 C 
ENDBRANCH   8  14
ENDBRANCH   4   9
ENDBRANCH   1   4
BRANCH   1  16
ATOM     16  C   UNL     1       0.932  -4.304  -1.667  0.00  0.00    -0.078 C 
BRANCH  16  17
ATOM     17  C   UNL     1      -0.030  -4.460  -2.846  0.00  0.00    +0.014 C 
BRANCH  17  18
ATOM     18  C   UNL     1       0.522  -5.473  -3.816  0.00  0.00    -0.043 C 
ATOM     19  C   UNL     1       0.225  -6.790  -3.873  0.00  0.00    -0.001 A 
ATOM     20  C   UNL     1      -0.668  -7.642  -3.077  0.00  0.00    +0.013 A 
ATOM     21  C   UNL     1      -0.760  -8.957  -3.377  0.00  0.00    +0.039 A 
ATOM     22  C   UNL     1      -0.023  -9.527  -4.428  0.00  0.00    +0.125 A 
ATOM     23  C   UNL     1       0.819  -8.805  -5.203  0.00  0.00    +0.064 A 
ATOM     24  C   UNL     1       0.991  -7.414  -4.975  0.00  0.00    +0.046 A 
ATOM     25  N   UNL     1       1.733  -6.516  -5.577  0.00  0.00    -0.380 N 
ATOM     26  C   UNL     1       1.517  -5.219  -4.926  0.00  0.00    +0.144 C 
ATOM     27  F   UNL     1      -0.161 -10.848  -4.675  0.00  0.00    -0.205 F 
ATOM     28  H   UNL     1       2.324  -6.681  -6.329  0.00  0.00    +0.160 HD
ENDBRANCH  17  18
ENDBRANCH  16  17
ENDBRANCH   1  16
TORSDOF 7
