REMARK  Name = ZINC08855611
REMARK  5 active torsions:
REMARK  status: ('A' for Active; 'I' for Inactive)
REMARK    1  A    between atoms: C_1  and  C_2
REMARK    2  A    between atoms: C_15  and  C_17
REMARK    3  A    between atoms: C_17  and  S_18
REMARK    4  A    between atoms: S_18  and  C_19
REMARK    5  A    between atoms: C_22  and  C_24
REMARK                            x       y       z     vdW  Elec       q    Type
REMARK                         _______ _______ _______ _____ _____    ______ ____
ROOT
ATOM      1  C   UNL     1      -1.580   2.600  -1.386  0.00  0.00    +0.029 C 
ATOM      2  C   UNL     1      -1.286   2.072   0.019  0.00  0.00    +0.087 C 
ATOM      3  C   UNL     1      -1.200   3.245   1.002  0.00  0.00    +0.118 C 
ATOM      4  C   UNL     1      -0.528   2.809   2.277  0.00  0.00    +0.219 C 
ATOM      5  O   UNL     1      -1.193   2.619   3.274  0.00  0.00    -0.275 OA
ATOM      6  N   UNL     1       0.810   2.628   2.318  0.00  0.00    -0.284 N 
ATOM      7  C   UNL     1       1.579   2.750   1.155  0.00  0.00    +0.055 A 
ATOM      8  C   UNL     1       2.742   3.502   1.149  0.00  0.00    +0.025 A 
ATOM      9  C   UNL     1       3.515   3.563   0.004  0.00  0.00    +0.002 A 
ATOM     10  C   UNL     1       3.130   2.877  -1.134  0.00  0.00    +0.002 A 
ATOM     11  C   UNL     1       1.965   2.133  -1.138  0.00  0.00    +0.025 A 
ATOM     12  C   UNL     1       1.181   2.074   0.002  0.00  0.00    +0.058 A 
ATOM     13  N   UNL     1      -0.016   1.344   0.009  0.00  0.00    -0.266 N 
ATOM     14  C   UNL     1       0.002  -0.004   0.002  0.00  0.00    +0.230 C 
ATOM     15  O   UNL     1      -1.040  -0.625   0.009  0.00  0.00    -0.274 OA
ATOM     16  H   UNL     1       1.241   2.412   3.160  0.00  0.00    +0.155 HD
ENDROOT
BRANCH  14  17
ATOM     17  C   UNL     1       1.317  -0.740  -0.015  0.00  0.00    +0.175 C 
BRANCH  17  18
ATOM     18  S   UNL     1       1.011  -2.524  -0.021  0.00  0.00    -0.056 S 
BRANCH  18  19
ATOM     19  C   UNL     1       2.669  -3.119  -0.040  0.00  0.00    +0.278 A 
ATOM     20  N   UNL     1       3.758  -2.385  -0.052  0.00  0.00    -0.101 NA
ATOM     21  N   UNL     1       4.791  -3.152  -0.061  0.00  0.00    -0.106 NA
ATOM     22  C   UNL     1       4.404  -4.405  -0.064  0.00  0.00    +0.250 A 
ATOM     23  O   UNL     1       3.052  -4.410  -0.051  0.00  0.00    -0.411 OA
BRANCH  22  24
ATOM     24  C   UNL     1       5.283  -5.592  -0.079  0.00  0.00    +0.052 A 
ATOM     25  C   UNL     1       6.670  -5.437  -0.092  0.00  0.00    +0.014 A 
ATOM     26  C   UNL     1       7.485  -6.549  -0.105  0.00  0.00    +0.001 A 
ATOM     27  C   UNL     1       6.931  -7.818  -0.105  0.00  0.00    +0.001 A 
ATOM     28  C   UNL     1       5.558  -7.979  -0.092  0.00  0.00    +0.016 A 
ATOM     29  C   UNL     1       4.730  -6.874  -0.074  0.00  0.00    +0.030 A 
ATOM     30 BR   UNL     1       2.852  -7.097  -0.048  0.00  0.00    -0.050 Br
ENDBRANCH  22  24
ENDBRANCH  18  19
ENDBRANCH  17  18
ENDBRANCH  14  17
TORSDOF 4
