REMARK  Name = ZINC39197552
REMARK  14 active torsions:
REMARK  status: ('A' for Active; 'I' for Inactive)
REMARK    1  A    between atoms: C_1  and  C_2
REMARK    2  A    between atoms: C_2  and  C_3
REMARK    3  A    between atoms: C_8  and  N_9
REMARK    4  A    between atoms: C_10  and  C_30
REMARK    5  A    between atoms: C_12  and  C_14
REMARK    6  A    between atoms: N_16  and  C_17
REMARK    7  A    between atoms: C_17  and  C_19
REMARK    8  A    between atoms: C_17  and  C_20
REMARK    9  A    between atoms: N_22  and  C_23
REMARK   10  A    between atoms: C_23  and  C_25
REMARK   11  A    between atoms: C_23  and  C_26
REMARK   12  A    between atoms: C_26  and  C_27
REMARK   13  A    between atoms: C_27  and  C_28
REMARK   14  A    between atoms: C_27  and  C_29
REMARK                            x       y       z     vdW  Elec       q    Type
REMARK                         _______ _______ _______ _____ _____    ______ ____
ROOT
ATOM      1  N   UNL     1       2.881  -0.593  -0.142  0.00  0.00    -0.231 N 
ATOM      2  C   UNL     1       4.230  -0.394  -0.240  0.00  0.00    +0.075 A 
ATOM      3  C   UNL     1       4.627   0.199   0.926  0.00  0.00    +0.063 A 
ATOM      4  C   UNL     1       3.453   0.333   1.699  0.00  0.00    +0.148 A 
ATOM      5  N   UNL     1       2.456  -0.158   0.989  0.00  0.00    -0.161 NA
ENDROOT
BRANCH   2   6
ATOM      6  C   UNL     1       5.093  -0.752  -1.387  0.00  0.00    +0.002 A 
ATOM      7  C   UNL     1       4.539  -0.898  -2.660  0.00  0.00    +0.014 A 
ATOM      8  C   UNL     1       5.343  -1.231  -3.731  0.00  0.00    +0.048 A 
ATOM      9  C   UNL     1       6.703  -1.422  -3.545  0.00  0.00    +0.142 A 
ATOM     10  C   UNL     1       7.263  -1.278  -2.275  0.00  0.00    +0.076 A 
ATOM     11  C   UNL     1       6.463  -0.939  -1.199  0.00  0.00    +0.037 A 
ATOM     12  N   UNL     1       8.641  -1.477  -2.106  0.00  0.00    -0.280 N 
ATOM     13  C   UNL     1       9.439  -1.487  -3.196  0.00  0.00    +0.255 C 
ATOM     14  O   UNL     1      10.629  -1.687  -3.077  0.00  0.00    -0.272 OA
ATOM     15  C   UNL     1       8.844  -1.250  -4.561  0.00  0.00    +0.325 C 
ATOM     16  O   UNL     1       7.504  -1.749  -4.594  0.00  0.00    -0.481 OA
ATOM     17  H   UNL     1       9.015  -1.605  -1.220  0.00  0.00    +0.155 HD
ENDBRANCH   2   6
BRANCH   1  23
ATOM     18  C   UNL     1       1.004  -0.479  -1.659  0.00  0.00    -0.022 A 
ATOM     19  C   UNL     1       0.221  -1.058  -2.638  0.00  0.00    +0.006 A 
ATOM     20  C   UNL     1       0.503  -2.335  -3.087  0.00  0.00    +0.000 A 
ATOM     21  C   UNL     1       1.571  -3.037  -2.558  0.00  0.00    +0.002 A 
ATOM     22  C   UNL     1       2.359  -2.464  -1.579  0.00  0.00    +0.028 A 
ATOM     23  C   UNL     1       2.081  -1.179  -1.130  0.00  0.00    +0.069 A 
BRANCH  18  25
ATOM     24  C   UNL     1       1.619   1.914  -1.865  0.00  0.00    +0.009 C 
ATOM     25  C   UNL     1       0.696   0.912  -1.170  0.00  0.00    +0.034 C 
ENDBRANCH  18  25
ENDBRANCH   1  23
BRANCH   4  26
ATOM     26  C   UNL     1       3.359   0.920   3.051  0.00  0.00    +0.265 C 
ATOM     27  O   UNL     1       4.357   1.344   3.600  0.00  0.00    -0.268 OA
ATOM     28  N   UNL     1       2.167   0.985   3.676  0.00  0.00    -0.299 N 
ATOM     29  H   UNL     1       1.370   0.646   3.238  0.00  0.00    +0.150 HD
BRANCH  28  30
ATOM     30  C   UNL     1       2.073   1.567   5.017  0.00  0.00    +0.156 C 
ATOM     31  C   UNL     1       1.932   3.086   4.905  0.00  0.00    +0.038 C 
BRANCH  30  32
ATOM     32  C   UNL     1       0.870   1.001   5.727  0.00  0.00    +0.233 C 
ATOM     33  O   UNL     1       0.161   0.192   5.168  0.00  0.00    -0.274 OA
ATOM     34  N   UNL     1       0.583   1.395   6.984  0.00  0.00    -0.311 N 
ATOM     35  H   UNL     1       1.150   2.043   7.431  0.00  0.00    +0.149 HD
BRANCH  34  36
ATOM     36  C   UNL     1      -0.587   0.846   7.674  0.00  0.00    +0.070 C 
ATOM     37  C   UNL     1      -0.212  -0.483   8.333  0.00  0.00    +0.028 C 
BRANCH  36  38
ATOM     38  C   UNL     1      -1.056   1.832   8.746  0.00  0.00    +0.025 C 
BRANCH  38  39
ATOM     39  C   UNL     1      -1.552   3.115   8.076  0.00  0.00    -0.015 C 
ATOM     40  C   UNL     1      -2.807   2.809   7.255  0.00  0.00    +0.007 C 
ATOM     41  C   UNL     1      -1.885   4.154   9.148  0.00  0.00    +0.007 C 
ENDBRANCH  38  39
ENDBRANCH  36  38
ENDBRANCH  34  36
ENDBRANCH  30  32
ENDBRANCH  28  30
ENDBRANCH   4  26
TORSDOF 9
