REMARK  Name = ZINC06172986
REMARK  12 active torsions:
REMARK  status: ('A' for Active; 'I' for Inactive)
REMARK    1  A    between atoms: C_1  and  C_2
REMARK    2  A    between atoms: C_2  and  C_3
REMARK    3  A    between atoms: C_3  and  N_53
REMARK    4  A    between atoms: C_4  and  C_5
REMARK    5  A    between atoms: C_4  and  N_53
REMARK    6  A    between atoms: C_5  and  C_6
REMARK    7  A    between atoms: C_7  and  N_8
REMARK    8  A    between atoms: C_7  and  N_53
REMARK    9  A    between atoms: C_15  and  N_18
REMARK   10  A    between atoms: C_16  and  O_17
REMARK   11  A    between atoms: N_19  and  C_20
REMARK   12  A    between atoms: C_20  and  C_22
REMARK                            x       y       z     vdW  Elec       q    Type
REMARK                         _______ _______ _______ _____ _____    ______ ____
ROOT
ATOM      1  N   UNL     1      -0.964  -2.224   0.498  0.00  0.00    -0.327 N 
ATOM      2  C   UNL     1      -1.090  -3.107  -0.563  0.00  0.00    +0.052 A 
ATOM      3  C   UNL     1      -1.448  -2.934  -1.895  0.00  0.00    +0.027 A 
ATOM      4  C   UNL     1      -1.484  -4.019  -2.746  0.00  0.00    +0.017 A 
ATOM      5  C   UNL     1      -1.160  -5.287  -2.288  0.00  0.00    +0.019 A 
ATOM      6  C   UNL     1      -0.798  -5.477  -0.970  0.00  0.00    +0.027 A 
ATOM      7  C   UNL     1      -0.759  -4.389  -0.102  0.00  0.00    +0.032 A 
ATOM      8  C   UNL     1      -0.425  -4.237   1.329  0.00  0.00    +0.152 A 
ATOM      9  C   UNL     1      -0.576  -2.875   1.619  0.00  0.00    +0.220 A 
ATOM     10 BR   UNL     1      -1.216  -6.760  -3.472  0.00  0.00    -0.050 Br
ENDROOT
BRANCH   9  11
ATOM     11  O   UNL     1      -0.368  -2.304   2.823  0.00  0.00    -0.492 OA
ATOM     12  H   UNL     1      -1.125  -2.254   3.422  0.00  0.00    +0.294 HD
ENDBRANCH   9  11
BRANCH   8  13
ATOM     13  N   UNL     1      -0.055  -5.202   2.174  0.00  0.00    -0.151 NA
ATOM     14  N   UNL     1       0.207  -4.917   3.405  0.00  0.00    -0.075 NA
BRANCH  14  15
ATOM     15  C   UNL     1       0.580  -5.890   4.257  0.00  0.00    +0.285 C 
ATOM     16  O   UNL     1       0.670  -7.040   3.867  0.00  0.00    -0.267 OA
BRANCH  15  17
ATOM     17  C   UNL     1       0.881  -5.562   5.671  0.00  0.00    +0.043 A 
ATOM     18  C   UNL     1       0.789  -4.247   6.138  0.00  0.00    +0.033 A 
ATOM     19  C   UNL     1       1.074  -3.987   7.465  0.00  0.00    +0.111 A 
ATOM     20  N   UNL     1       1.437  -4.956   8.282  0.00  0.00    -0.263 NA
ATOM     21  C   UNL     1       1.541  -6.207   7.881  0.00  0.00    +0.111 A 
ATOM     22  C   UNL     1       1.270  -6.558   6.572  0.00  0.00    +0.033 A 
ENDBRANCH  15  17
ENDBRANCH  14  15
ENDBRANCH   8  13
BRANCH   1  23
ATOM     23  C   UNL     1      -1.221  -0.783   0.418  0.00  0.00    +0.050 C 
BRANCH  23  24
ATOM     24  N   UNL     1      -0.013  -0.113  -0.106  0.00  0.00    +0.392 N 
ATOM     25  H   UNL     1       0.317  -0.621  -0.935  0.00  0.00    -0.079 HD
BRANCH  24  26
ATOM     26  C   UNL     1      -0.334   1.278  -0.492  0.00  0.00    -0.077 C 
BRANCH  26  28
ATOM     27  C   UNL     1       0.541   3.307  -1.658  0.00  0.00    +0.002 C 
ATOM     28  C   UNL     1       0.865   1.873  -1.232  0.00  0.00    -0.022 C 
ENDBRANCH  26  28
ENDBRANCH  24  26
BRANCH  24  29
ATOM     29  C   UNL     1       1.053  -0.120   0.918  0.00  0.00    -0.077 C 
BRANCH  29  30
ATOM     30  C   UNL     1       0.642   0.723   2.126  0.00  0.00    -0.022 C 
ATOM     31  C   UNL     1       1.707   0.604   3.218  0.00  0.00    +0.002 C 
ENDBRANCH  29  30
ENDBRANCH  24  29
ENDBRANCH  23  24
ENDBRANCH   1  23
TORSDOF 10
