REMARK  Name = ZINC13523690
REMARK  7 active torsions:
REMARK  status: ('A' for Active; 'I' for Inactive)
REMARK    1  A    between atoms: C_1  and  O_2
REMARK    2  A    between atoms: O_2  and  C_3
REMARK    3  A    between atoms: C_6  and  C_9
REMARK    4  A    between atoms: C_9  and  C_24
REMARK    5  A    between atoms: C_11  and  C_17
REMARK    6  A    between atoms: C_27  and  O_31
REMARK    7  A    between atoms: C_29  and  O_30
REMARK                            x       y       z     vdW  Elec       q    Type
REMARK                         _______ _______ _______ _____ _____    ______ ____
ROOT
ATOM      1  C   UNL     1       2.505  -2.503  -4.381  0.00  0.00    +0.089 C 
ATOM      2  C   UNL     1       3.098  -3.844  -3.936  0.00  0.00    +0.062 C 
ATOM      3  C   UNL     1       3.871  -4.450  -5.113  0.00  0.00    +0.106 C 
ATOM      4  N   UNL     1       4.871  -3.488  -5.577  0.00  0.00    -0.320 N 
ATOM      5  C   UNL     1       4.679  -2.166  -5.449  0.00  0.00    +0.132 C 
ATOM      6  S   UNL     1       5.887  -1.101  -6.030  0.00  0.00    -0.019 S 
ATOM      7  N   UNL     1       3.579  -1.646  -4.885  0.00  0.00    -0.313 N 
ATOM      8  H   UNL     1       5.689  -3.812  -5.985  0.00  0.00    +0.148 HD
ATOM      9  H   UNL     1       3.494  -0.683  -4.810  0.00  0.00    +0.149 HD
ENDROOT
BRANCH   3  10
ATOM     10  C   UNL     1       4.557  -5.716  -4.666  0.00  0.00    -0.009 A 
ATOM     11  C   UNL     1       5.872  -5.677  -4.244  0.00  0.00    +0.007 A 
ATOM     12  C   UNL     1       6.502  -6.837  -3.834  0.00  0.00    +0.000 A 
ATOM     13  C   UNL     1       5.816  -8.038  -3.847  0.00  0.00    +0.001 A 
ATOM     14  C   UNL     1       4.501  -8.078  -4.269  0.00  0.00    +0.020 A 
ATOM     15  C   UNL     1       3.868  -6.915  -4.674  0.00  0.00    +0.046 A 
ATOM     16 CL   UNL     1       2.214  -6.964  -5.198  0.00  0.00    -0.083 Cl
ENDBRANCH   3  10
BRANCH   1  20
ATOM     17  C   UNL     1       0.606  -0.607  -1.056  0.00  0.00    +0.120 A 
ATOM     18  C   UNL     1       1.173   0.161  -2.062  0.00  0.00    +0.046 A 
ATOM     19  C   UNL     1       1.786  -0.455  -3.136  0.00  0.00    +0.009 A 
ATOM     20  C   UNL     1       1.835  -1.835  -3.209  0.00  0.00    -0.019 A 
ATOM     21  C   UNL     1       1.270  -2.602  -2.207  0.00  0.00    +0.009 A 
ATOM     22  C   UNL     1       0.661  -1.992  -1.128  0.00  0.00    +0.046 A 
BRANCH  17  24
ATOM     23  C   UNL     1      -0.017   1.425   0.010  0.00  0.00    +0.277 C 
ATOM     24  O   UNL     1       0.002  -0.004   0.002  0.00  0.00    -0.495 OA
ENDBRANCH  17  24
ENDBRANCH   1  20
BRANCH   1  25
ATOM     25  C   UNL     1       1.492  -2.736  -5.473  0.00  0.00    +0.022 A 
ATOM     26  C   UNL     1       1.678  -2.168  -6.719  0.00  0.00    +0.013 A 
ATOM     27  C   UNL     1       0.751  -2.380  -7.722  0.00  0.00    +0.046 A 
ATOM     28  C   UNL     1      -0.367  -3.165  -7.481  0.00  0.00    +0.120 A 
ATOM     29  C   UNL     1      -0.555  -3.736  -6.232  0.00  0.00    +0.091 A 
ATOM     30  C   UNL     1       0.378  -3.527  -5.229  0.00  0.00    +0.126 A 
BRANCH  30  31
ATOM     31  O   UNL     1       0.200  -4.090  -4.005  0.00  0.00    -0.506 OA
ATOM     32  H   UNL     1      -0.300  -3.540  -3.387  0.00  0.00    +0.292 HD
ENDBRANCH  30  31
BRANCH  28  33
ATOM     33  O   UNL     1      -1.278  -3.372  -8.468  0.00  0.00    -0.507 OA
ATOM     34  H   UNL     1      -1.096  -4.149  -9.014  0.00  0.00    +0.292 HD
ENDBRANCH  28  33
ENDBRANCH   1  25
TORSDOF 6
