REMARK  Name = ZINC15672450
REMARK  7 active torsions:
REMARK  status: ('A' for Active; 'I' for Inactive)
REMARK    1  A    between atoms: C_1  and  C_2
REMARK    2  A    between atoms: C_4  and  C_32
REMARK    3  A    between atoms: C_6  and  N_8
REMARK    4  A    between atoms: C_17  and  C_18
REMARK    5  A    between atoms: C_17  and  C_19
REMARK    6  A    between atoms: N_21  and  C_22
REMARK    7  A    between atoms: C_25  and  C_28
REMARK                            x       y       z     vdW  Elec       q    Type
REMARK                         _______ _______ _______ _____ _____    ______ ____
ROOT
ATOM      1  N   UNL     1       1.249   2.149  -0.177  0.00  0.00    -0.250 N 
ATOM      2  C   UNL     1       0.052   1.589   0.118  0.00  0.00    +0.268 C 
ATOM      3  O   UNL     1      -0.950   2.261   0.274  0.00  0.00    -0.268 OA
ATOM      4  C   UNL     1       0.029   0.126   0.234  0.00  0.00    +0.107 A 
ATOM      5  C   UNL     1      -1.018  -0.741   0.344  0.00  0.00    +0.048 A 
ATOM      6  C   UNL     1      -0.483  -2.022   0.421  0.00  0.00    +0.038 A 
ATOM      7  C   UNL     1       0.917  -1.950   0.368  0.00  0.00    +0.057 A 
ATOM      8  N   UNL     1       1.214  -0.603   0.265  0.00  0.00    -0.333 N 
ATOM      9  C   UNL     1       2.524   0.049   0.202  0.00  0.00    +0.158 C 
ATOM     10  C   UNL     1       2.397   1.350  -0.591  0.00  0.00    +0.133 C 
ATOM     11  C   UNL     1       3.669   2.176  -0.395  0.00  0.00    +0.044 C 
ATOM     12  C   UNL     1       1.590  -3.178   0.433  0.00  0.00    +0.034 A 
ATOM     13  C   UNL     1       0.894  -4.329   0.541  0.00  0.00    +0.048 A 
ATOM     14  S   UNL     1      -0.798  -3.762   0.561  0.00  0.00    -0.095 S 
ENDROOT
BRANCH   1  20
ATOM     15  C   UNL     1       3.128   6.063   2.128  0.00  0.00    +0.044 C 
ATOM     16  C   UNL     1       2.294   5.462   1.026  0.00  0.00    -0.048 A 
ATOM     17  C   UNL     1       1.665   6.283   0.109  0.00  0.00    +0.006 A 
ATOM     18  C   UNL     1       0.900   5.735  -0.904  0.00  0.00    -0.048 A 
ATOM     19  C   UNL     1       0.759   4.365  -1.001  0.00  0.00    +0.027 A 
ATOM     20  C   UNL     1       1.389   3.537  -0.081  0.00  0.00    +0.038 A 
ATOM     21  C   UNL     1       2.154   4.090   0.938  0.00  0.00    +0.027 A 
ATOM     22  C   UNL     1       0.217   6.635  -1.902  0.00  0.00    +0.044 C 
ENDBRANCH   1  20
BRANCH  10  23
ATOM     23  C   UNL     1       2.255   1.016  -2.054  0.00  0.00    +0.239 C 
ATOM     24  O   UNL     1       2.692  -0.031  -2.482  0.00  0.00    -0.273 OA
ATOM     25  N   UNL     1       1.641   1.881  -2.886  0.00  0.00    -0.311 N 
ATOM     26  H   UNL     1       1.291   2.718  -2.544  0.00  0.00    +0.149 HD
BRANCH  25  27
ATOM     27  C   UNL     1       1.503   1.556  -4.308  0.00  0.00    +0.073 C 
ATOM     28  C   UNL     1       2.775   1.970  -5.051  0.00  0.00    +0.022 C 
ATOM     29  C   UNL     1       2.992   3.476  -4.891  0.00  0.00    +0.005 C 
ATOM     30  C   UNL     1       1.793   4.229  -5.472  0.00  0.00    -0.014 C 
ATOM     31  C   UNL     1       0.522   3.815  -4.729  0.00  0.00    +0.005 C 
ATOM     32  C   UNL     1       0.305   2.309  -4.889  0.00  0.00    +0.022 C 
ATOM     33  C   UNL     1       2.010   5.735  -5.311  0.00  0.00    +0.007 C 
ENDBRANCH  25  27
ENDBRANCH  10  23
TORSDOF 3
