REMARK  Name = ZINC08308836
REMARK  11 active torsions:
REMARK  status: ('A' for Active; 'I' for Inactive)
REMARK    1  A    between atoms: C_1  and  C_2
REMARK    2  A    between atoms: C_5  and  N_9
REMARK    3  A    between atoms: C_6  and  C_8
REMARK    4  A    between atoms: N_9  and  C_10
REMARK    5  A    between atoms: C_10  and  C_11
REMARK    6  A    between atoms: N_13  and  N_14
REMARK    7  A    between atoms: C_15  and  C_17
REMARK    8  A    between atoms: C_17  and  N_18
REMARK    9  A    between atoms: C_19  and  C_21
REMARK   10  A    between atoms: C_24  and  C_28
REMARK   11  A    between atoms: C_25  and  C_27
REMARK                            x       y       z     vdW  Elec       q    Type
REMARK                         _______ _______ _______ _____ _____    ______ ____
ROOT
ATOM      1  N   UNL     1       0.108  -8.625  -1.807  0.00  0.00    -0.233 N 
ATOM      2  C   UNL     1       0.115  -9.495  -2.836  0.00  0.00    +0.246 C 
ATOM      3  O   UNL     1       0.104  -9.084  -3.978  0.00  0.00    -0.273 OA
ATOM      4  H   UNL     1       0.117  -8.953  -0.894  0.00  0.00    +0.173 HD
ENDROOT
BRANCH   1   7
ATOM      5  C   UNL     1       0.082  -6.376  -1.026  0.00  0.00    +0.246 C 
ATOM      6  O   UNL     1       0.093  -6.786   0.115  0.00  0.00    -0.273 OA
ATOM      7  N   UNL     1       0.089  -7.246  -2.056  0.00  0.00    -0.233 N 
ATOM      8  H   UNL     1       0.080  -6.918  -2.968  0.00  0.00    +0.173 HD
BRANCH   5   9
ATOM      9  C   UNL     1       0.061  -4.893  -1.294  0.00  0.00    +0.199 C 
BRANCH   9  10
ATOM     10  N   UNL     1       0.058  -4.167  -0.021  0.00  0.00    -0.335 N 
ATOM     11  H   UNL     1       0.069  -4.657   0.816  0.00  0.00    +0.147 HD
BRANCH  10  16
ATOM     12  C   UNL     1      -0.018   1.503   0.010  0.00  0.00    +0.044 C 
ATOM     13  C   UNL     1       0.002  -0.004   0.002  0.00  0.00    -0.050 A 
ATOM     14  C   UNL     1       0.006  -0.687  -1.200  0.00  0.00    +0.005 A 
ATOM     15  C   UNL     1       0.024  -2.068  -1.212  0.00  0.00    +0.023 A 
ATOM     16  C   UNL     1       0.040  -2.771  -0.013  0.00  0.00    +0.030 A 
ATOM     17  C   UNL     1       0.036  -2.081   1.192  0.00  0.00    -0.029 A 
ATOM     18  C   UNL     1       0.023  -0.700   1.196  0.00  0.00    +0.008 A 
ATOM     19  C   UNL     1       0.052  -2.839   2.495  0.00  0.00    +0.045 C 
ENDBRANCH  10  16
ENDBRANCH   9  10
ENDBRANCH   5   9
ENDBRANCH   1   7
BRANCH   2  20
ATOM     20  C   UNL     1       0.136 -10.978  -2.569  0.00  0.00    +0.202 C 
BRANCH  20  21
ATOM     21  N   UNL     1       0.139 -11.703  -3.842  0.00  0.00    -0.303 N 
ATOM     22  C   UNL     1       0.157 -13.051  -3.849  0.00  0.00    +0.244 C 
ATOM     23  O   UNL     1       0.170 -13.664  -2.800  0.00  0.00    -0.270 OA
ATOM     24  H   UNL     1       0.129 -11.214  -4.679  0.00  0.00    +0.150 HD
BRANCH  22  25
ATOM     25  C   UNL     1       0.161 -13.783  -5.134  0.00  0.00    +0.037 A 
ATOM     26  C   UNL     1       0.151 -13.082  -6.341  0.00  0.00    +0.013 A 
ATOM     27  C   UNL     1       0.155 -13.771  -7.535  0.00  0.00    +0.004 A 
ATOM     28  C   UNL     1       0.167 -15.155  -7.540  0.00  0.00    -0.047 A 
ATOM     29  C   UNL     1       0.177 -15.856  -6.347  0.00  0.00    -0.047 A 
ATOM     30  C   UNL     1       0.179 -15.179  -5.145  0.00  0.00    +0.016 A 
ATOM     31  C   UNL     1       0.190 -17.363  -6.361  0.00  0.00    +0.044 C 
ATOM     32  C   UNL     1       0.170 -15.901  -8.849  0.00  0.00    +0.044 C 
ENDBRANCH  22  25
ENDBRANCH  20  21
ENDBRANCH   2  20
TORSDOF 7
