REMARK  Name = ZINC17092489
REMARK  10 active torsions:
REMARK  status: ('A' for Active; 'I' for Inactive)
REMARK    1  A    between atoms: C_1  and  C_2
REMARK    2  A    between atoms: C_4  and  O_9
REMARK    3  A    between atoms: O_9  and  C_10
REMARK    4  A    between atoms: C_10  and  C_11
REMARK    5  A    between atoms: C_14  and  C_16
REMARK    6  A    between atoms: C_17  and  C_18
REMARK    7  A    between atoms: C_17  and  C_20
REMARK    8  A    between atoms: N_22  and  C_23
REMARK    9  A    between atoms: C_23  and  C_25
REMARK   10  A    between atoms: C_23  and  C_26
REMARK                            x       y       z     vdW  Elec       q    Type
REMARK                         _______ _______ _______ _____ _____    ______ ____
ROOT
ATOM      1  C   UNL     1       2.457   1.288  -0.015  0.00  0.00    +0.070 C 
ATOM      2  C   UNL     1       1.247   1.964   0.001  0.00  0.00    +0.117 C 
ENDROOT
BRANCH   1   6
ATOM      3  C   UNL     1       5.091   3.677  -0.026  0.00  0.00    +0.143 A 
ATOM      4  C   UNL     1       5.831   2.544  -0.040  0.00  0.00    +0.049 A 
ATOM      5  C   UNL     1       4.939   1.465  -0.032  0.00  0.00    +0.049 A 
ATOM      6  C   UNL     1       3.666   2.008  -0.022  0.00  0.00    +0.130 A 
ATOM      7  O   UNL     1       3.792   3.352  -0.016  0.00  0.00    -0.457 OA
BRANCH   3   8
ATOM      8  C   UNL     1       5.641   5.081  -0.023  0.00  0.00    +0.303 C 
BRANCH   8   9
ATOM      9  O   UNL     1       5.801   5.532  -1.369  0.00  0.00    -0.484 OA
BRANCH   9  13
ATOM     10  C   UNL     1       7.168   9.114  -4.391  0.00  0.00    +0.045 C 
ATOM     11  C   UNL     1       6.970   8.568  -3.000  0.00  0.00    -0.029 A 
ATOM     12  C   UNL     1       6.473   7.291  -2.824  0.00  0.00    +0.050 A 
ATOM     13  C   UNL     1       6.291   6.788  -1.544  0.00  0.00    +0.121 A 
ATOM     14  C   UNL     1       6.605   7.571  -0.443  0.00  0.00    +0.047 A 
ATOM     15  C   UNL     1       7.107   8.845  -0.623  0.00  0.00    +0.024 A 
ATOM     16  C   UNL     1       7.287   9.345  -1.900  0.00  0.00    +0.044 A 
ATOM     17 CL   UNL     1       7.913  10.949  -2.124  0.00  0.00    -0.083 Cl
ENDBRANCH   9  13
ENDBRANCH   8   9
ENDBRANCH   3   8
ENDBRANCH   1   6
BRANCH   2  18
ATOM     18  C   UNL     1      -0.014   1.213   0.009  0.00  0.00    +0.255 C 
ATOM     19  O   UNL     1       0.002  -0.004   0.002  0.00  0.00    -0.269 OA
ATOM     20  N   UNL     1      -1.191   1.871   0.018  0.00  0.00    -0.304 N 
ATOM     21  H   UNL     1      -1.204   2.841   0.023  0.00  0.00    +0.150 HD
BRANCH  20  22
ATOM     22  C   UNL     1      -2.449   1.121   0.020  0.00  0.00    +0.100 C 
ATOM     23  C   UNL     1      -2.830   0.760  -1.417  0.00  0.00    +0.033 C 
BRANCH  22  24
ATOM     24  C   UNL     1      -3.537   1.967   0.630  0.00  0.00    -0.027 A 
ATOM     25  C   UNL     1      -3.600   3.319   0.349  0.00  0.00    +0.005 A 
ATOM     26  C   UNL     1      -4.601   4.094   0.906  0.00  0.00    +0.000 A 
ATOM     27  C   UNL     1      -5.532   3.519   1.750  0.00  0.00    +0.000 A 
ATOM     28  C   UNL     1      -5.465   2.168   2.035  0.00  0.00    +0.000 A 
ATOM     29  C   UNL     1      -4.468   1.392   1.475  0.00  0.00    +0.005 A 
ENDBRANCH  22  24
ENDBRANCH  20  22
ENDBRANCH   2  18
BRANCH   2  30
ATOM     30  C   UNL     1       1.228   3.396   0.009  0.00  0.00    +0.104 C 
ATOM     31  N   UNL     1       1.212   4.532   0.015  0.00  0.00    -0.191 NA
ENDBRANCH   2  30
TORSDOF 8
