REMARK  Name = ZINC21234424
REMARK  12 active torsions:
REMARK  status: ('A' for Active; 'I' for Inactive)
REMARK    1  A    between atoms: C_1  and  C_2
REMARK    2  A    between atoms: C_2  and  C_3
REMARK    3  A    between atoms: C_2  and  O_4
REMARK    4  A    between atoms: O_4  and  C_5
REMARK    5  A    between atoms: C_6  and  C_13
REMARK    6  A    between atoms: C_10  and  O_11
REMARK    7  A    between atoms: O_11  and  C_12
REMARK    8  A    between atoms: C_24  and  C_27
REMARK    9  A    between atoms: C_30  and  C_33
REMARK   10  A    between atoms: C_33  and  C_34
REMARK   11  A    between atoms: C_33  and  C_35
REMARK   12  A    between atoms: C_33  and  C_36
REMARK                            x       y       z     vdW  Elec       q    Type
REMARK                         _______ _______ _______ _____ _____    ______ ____
ROOT
ATOM      1  C   UNL     1      -0.013   1.086   0.008  0.00  0.00    +0.066 C 
ATOM      2  C   UNL     1      -0.729   1.579   1.266  0.00  0.00    +0.109 C 
ATOM      3  C   UNL     1      -1.002   3.056   1.132  0.00  0.00    +0.218 C 
ATOM      4  O   UNL     1      -0.977   3.767   2.114  0.00  0.00    -0.275 OA
ATOM      5  N   UNL     1      -1.271   3.586  -0.074  0.00  0.00    -0.289 N 
ATOM      6  C   UNL     1      -1.329   2.803  -1.198  0.00  0.00    +0.018 C 
ATOM      7  C   UNL     1      -0.744   1.587  -1.215  0.00  0.00    +0.020 C 
ATOM      8  C   UNL     1      -0.799   0.764  -2.353  0.00  0.00    +0.162 C 
ATOM      9  O   UNL     1      -0.252  -0.320  -2.334  0.00  0.00    -0.292 OA
ATOM     10  C   UNL     1      -1.526   1.206  -3.595  0.00  0.00    +0.088 C 
ATOM     11  C   UNL     1      -2.656   2.161  -3.197  0.00  0.00    +0.032 C 
ATOM     12  C   UNL     1      -2.055   3.329  -2.411  0.00  0.00    +0.059 C 
ATOM     13  H   UNL     1      -1.449   4.667  -0.172  0.00  0.00    +0.155 HD
ENDROOT
BRANCH   1  15
ATOM     14  C   UNL     1       2.466   0.722  -0.012  0.00  0.00    +0.166 A 
ATOM     15  C   UNL     1       1.401   1.608  -0.003  0.00  0.00    +0.006 A 
ATOM     16  C   UNL     1       1.635   2.970   0.002  0.00  0.00    +0.008 A 
ATOM     17  C   UNL     1       2.930   3.453  -0.007  0.00  0.00    +0.004 A 
ATOM     18  C   UNL     1       3.998   2.574  -0.021  0.00  0.00    +0.049 A 
ATOM     19  C   UNL     1       3.771   1.207  -0.026  0.00  0.00    +0.162 A 
BRANCH  19  20
ATOM     20  O   UNL     1       4.820   0.342  -0.040  0.00  0.00    -0.491 OA
ATOM     21  C   UNL     1       6.130   0.912  -0.049  0.00  0.00    +0.277 C 
ENDBRANCH  19  20
BRANCH  14  22
ATOM     22  O   UNL     1       2.238  -0.619  -0.012  0.00  0.00    -0.485 OA
BRANCH  22  24
ATOM     23  C   UNL     1       3.499  -1.726  -1.750  0.00  0.00    +0.051 C 
ATOM     24  C   UNL     1       2.120  -1.257  -1.285  0.00  0.00    +0.168 C 
ATOM     25  C   UNL     1       1.184  -2.461  -1.166  0.00  0.00    +0.051 C 
ENDBRANCH  22  24
ENDBRANCH  14  22
ENDBRANCH   1  15
BRANCH  11  26
ATOM     26  C   UNL     1      -3.338   2.682  -4.435  0.00  0.00    -0.043 A 
ATOM     27  C   UNL     1      -2.613   3.385  -5.380  0.00  0.00    +0.004 A 
ATOM     28  C   UNL     1      -3.237   3.859  -6.518  0.00  0.00    +0.004 A 
ATOM     29  C   UNL     1      -4.589   3.639  -6.708  0.00  0.00    -0.042 A 
ATOM     30  C   UNL     1      -5.315   2.941  -5.761  0.00  0.00    +0.004 A 
ATOM     31  C   UNL     1      -4.690   2.463  -4.625  0.00  0.00    +0.004 A 
BRANCH  29  32
ATOM     32  C   UNL     1      -5.271   4.160  -7.947  0.00  0.00    -0.013 C 
ATOM     33  C   UNL     1      -6.384   5.130  -7.546  0.00  0.00    +0.015 C 
ATOM     34  C   UNL     1      -4.250   4.889  -8.822  0.00  0.00    +0.015 C 
ATOM     35  C   UNL     1      -5.870   2.990  -8.729  0.00  0.00    +0.015 C 
ENDBRANCH  29  32
ENDBRANCH  11  26
TORSDOF 6
