REMARK  Name = ZINC20176312
REMARK  10 active torsions:
REMARK  status: ('A' for Active; 'I' for Inactive)
REMARK    1  A    between atoms: C_1  and  C_2
REMARK    2  A    between atoms: C_2  and  O_3
REMARK    3  A    between atoms: O_3  and  C_4
REMARK    4  A    between atoms: C_7  and  N_10
REMARK    5  A    between atoms: N_12  and  C_28
REMARK    6  A    between atoms: C_13  and  C_16
REMARK    7  A    between atoms: C_19  and  C_22
REMARK    8  A    between atoms: C_28  and  C_29
REMARK    9  A    between atoms: C_29  and  C_30
REMARK   10  A    between atoms: C_30  and  O_31
REMARK                            x       y       z     vdW  Elec       q    Type
REMARK                         _______ _______ _______ _____ _____    ______ ____
ROOT
ATOM      1  N   UNL     1       2.359   1.892  -0.587  0.00  0.00    -0.336 N 
ATOM      2  C   UNL     1       1.137   2.225  -0.221  0.00  0.00    +0.152 A 
ATOM      3  N   UNL     1      -0.013   1.471  -0.245  0.00  0.00    -0.321 N 
ATOM      4  C   UNL     1      -1.181   2.042   0.186  0.00  0.00    +0.058 A 
ATOM      5  C   UNL     1      -1.176   3.316   0.630  0.00  0.00    +0.075 A 
ATOM      6  S   UNL     1       0.538   3.774   0.436  0.00  0.00    -0.059 S 
ATOM      7  H   UNL     1       2.545   0.917  -1.060  0.00  0.00    +0.168 HD
ENDROOT
BRANCH   1  11
ATOM      8  C   UNL     1       5.498   4.519   0.044  0.00  0.00    +0.121 A 
ATOM      9  C   UNL     1       5.170   3.586   1.018  0.00  0.00    +0.047 A 
ATOM     10  C   UNL     1       4.126   2.708   0.812  0.00  0.00    +0.029 A 
ATOM     11  C   UNL     1       3.397   2.761  -0.378  0.00  0.00    +0.041 A 
ATOM     12  C   UNL     1       3.734   3.698  -1.358  0.00  0.00    +0.029 A 
ATOM     13  C   UNL     1       4.777   4.574  -1.141  0.00  0.00    +0.047 A 
BRANCH   8  14
ATOM     14  O   UNL     1       6.529   5.381   0.251  0.00  0.00    -0.492 OA
BRANCH  14  16
ATOM     15  C   UNL     1       7.994   7.196  -0.381  0.00  0.00    +0.048 C 
ATOM     16  C   UNL     1       6.812   6.316  -0.792  0.00  0.00    +0.225 C 
ENDBRANCH  14  16
ENDBRANCH   8  14
ENDBRANCH   1  11
BRANCH   4  17
ATOM     17  C   UNL     1      -2.439   1.265   0.169  0.00  0.00    -0.001 A 
ATOM     18  C   UNL     1      -2.445  -0.068   0.582  0.00  0.00    +0.010 A 
ATOM     19  C   UNL     1      -3.623  -0.785   0.569  0.00  0.00    +0.004 A 
ATOM     20  C   UNL     1      -4.795  -0.190   0.136  0.00  0.00    -0.044 A 
ATOM     21  C   UNL     1      -4.794   1.129  -0.280  0.00  0.00    +0.004 A 
ATOM     22  C   UNL     1      -3.624   1.860  -0.266  0.00  0.00    +0.010 A 
BRANCH  20  23
ATOM     23  C   UNL     1      -6.077  -0.982   0.119  0.00  0.00    +0.019 C 
ATOM     24  C   UNL     1      -6.402  -1.457   1.536  0.00  0.00    +0.008 C 
ATOM     25  C   UNL     1      -7.704  -2.261   1.519  0.00  0.00    +0.001 C 
ATOM     26  C   UNL     1      -7.542  -3.473   0.600  0.00  0.00    +0.000 C 
ATOM     27  C   UNL     1      -7.217  -2.998  -0.818  0.00  0.00    +0.001 C 
ATOM     28  C   UNL     1      -5.915  -2.194  -0.800  0.00  0.00    +0.008 C 
ENDBRANCH  20  23
ENDBRANCH   4  17
BRANCH   3  29
ATOM     29  C   UNL     1       0.009   0.088  -0.726  0.00  0.00    +0.126 C 
BRANCH  29  30
ATOM     30  C   UNL     1       0.995  -0.031  -1.891  0.00  0.00    +0.049 C 
BRANCH  30  31
ATOM     31  C   UNL     1       1.018  -1.475  -2.394  0.00  0.00    +0.157 C 
BRANCH  31  32
ATOM     32  O   UNL     1       1.939  -1.586  -3.481  0.00  0.00    -0.395 OA
ATOM     33  H   UNL     1       2.092  -2.557  -3.976  0.00  0.00    +0.209 HD
ENDBRANCH  31  32
ENDBRANCH  30  31
ENDBRANCH  29  30
ENDBRANCH   3  29
TORSDOF 9
