REMARK  Name = ZINC43607609
REMARK  7 active torsions:
REMARK  status: ('A' for Active; 'I' for Inactive)
REMARK    1  A    between atoms: C_4  and  C_7
REMARK    2  A    between atoms: C_7  and  C_8
REMARK    3  A    between atoms: C_7  and  C_33
REMARK    4  A    between atoms: C_8  and  C_9
REMARK    5  A    between atoms: C_9  and  N_10
REMARK    6  A    between atoms: N_15  and  C_23
REMARK    7  A    between atoms: C_23  and  C_24
REMARK                            x       y       z     vdW  Elec       q    Type
REMARK                         _______ _______ _______ _____ _____    ______ ____
ROOT
ATOM      1  N   UNL     1       4.628  -3.170   2.703  0.00  0.00    -0.298 N 
ATOM      2  C   UNL     1       5.011  -2.539   3.956  0.00  0.00    +0.076 C 
ATOM      3  C   UNL     1       6.272  -1.697   3.770  0.00  0.00    +0.004 C 
ATOM      4  C   UNL     1       7.462  -2.614   3.476  0.00  0.00    -0.077 C 
ATOM      5  N   UNL     1       7.648  -3.544   4.597  0.00  0.00    +0.383 N 
ATOM      6  C   UNL     1       6.476  -4.418   4.712  0.00  0.00    -0.073 C 
ATOM      7  C   UNL     1       5.258  -3.587   5.040  0.00  0.00    -0.007 C 
ATOM      8  C   UNL     1       4.050  -4.532   5.088  0.00  0.00    +0.013 C 
ATOM      9  C   UNL     1       4.015  -5.337   3.787  0.00  0.00    +0.096 C 
ATOM     10  C   UNL     1       4.136  -4.408   2.612  0.00  0.00    +0.216 C 
ATOM     11  O   UNL     1       3.807  -4.816   1.518  0.00  0.00    -0.276 OA
ATOM     12  H   UNL     1       7.762  -3.021   5.453  0.00  0.00    -0.081 HD
ENDROOT
BRANCH   1  13
ATOM     13  C   UNL     1       4.785  -2.399   1.467  0.00  0.00    +0.109 C 
BRANCH  13  14
ATOM     14  C   UNL     1       3.562  -1.502   1.267  0.00  0.00    +0.032 C 
BRANCH  14  15
ATOM     15  C   UNL     1       3.726  -0.697  -0.024  0.00  0.00    +0.050 C 
BRANCH  15  19
ATOM     16  C   UNL     1       0.483   2.057  -0.409  0.00  0.00    +0.000 A 
ATOM     17  C   UNL     1       1.787   2.505  -0.510  0.00  0.00    +0.000 A 
ATOM     18  C   UNL     1       2.836   1.614  -0.386  0.00  0.00    +0.004 A 
ATOM     19  C   UNL     1       2.582   0.275  -0.159  0.00  0.00    -0.040 A 
ATOM     20  C   UNL     1       1.279  -0.174  -0.056  0.00  0.00    +0.004 A 
ATOM     21  C   UNL     1       0.229   0.717  -0.182  0.00  0.00    +0.000 A 
ENDBRANCH  15  19
BRANCH  15  22
ATOM     22  C   UNL     1       3.731  -1.634  -1.204  0.00  0.00    -0.040 A 
ATOM     23  C   UNL     1       2.711  -2.553  -1.361  0.00  0.00    +0.004 A 
ATOM     24  C   UNL     1       2.715  -3.413  -2.443  0.00  0.00    +0.000 A 
ATOM     25  C   UNL     1       3.740  -3.354  -3.369  0.00  0.00    +0.000 A 
ATOM     26  C   UNL     1       4.760  -2.434  -3.212  0.00  0.00    +0.000 A 
ATOM     27  C   UNL     1       4.753  -1.571  -2.132  0.00  0.00    +0.004 A 
ENDBRANCH  15  22
ENDBRANCH  14  15
ENDBRANCH  13  14
ENDBRANCH   1  13
BRANCH   5  28
ATOM     28  C   UNL     1       8.846  -4.361   4.362  0.00  0.00    -0.043 C 
BRANCH  28  29
ATOM     29  C   UNL     1      10.066  -3.476   4.370  0.00  0.00    -0.060 A 
ATOM     30  C   UNL     1      10.506  -2.896   3.194  0.00  0.00    +0.005 A 
ATOM     31  C   UNL     1      11.624  -2.084   3.197  0.00  0.00    +0.050 A 
ATOM     32  C   UNL     1      12.309  -1.850   4.379  0.00  0.00    +0.166 A 
ATOM     33  C   UNL     1      11.866  -2.434   5.563  0.00  0.00    +0.166 A 
ATOM     34  C   UNL     1      10.741  -3.243   5.554  0.00  0.00    +0.051 A 
ATOM     35  O   UNL     1      12.699  -2.054   6.575  0.00  0.00    -0.453 OA
ATOM     36  C   UNL     1      13.889  -1.564   5.930  0.00  0.00    +0.466 C 
ATOM     37  O   UNL     1      13.419  -1.103   4.649  0.00  0.00    -0.453 OA
ENDBRANCH  28  29
ENDBRANCH   5  28
TORSDOF 7
