REMARK  Name = ZINC34923361
REMARK  13 active torsions:
REMARK  status: ('A' for Active; 'I' for Inactive)
REMARK    1  A    between atoms: C_1  and  C_2
REMARK    2  A    between atoms: C_6  and  C_8
REMARK    3  A    between atoms: C_10  and  C_31
REMARK    4  A    between atoms: C_11  and  C_30
REMARK    5  A    between atoms: C_15  and  C_18
REMARK    6  A    between atoms: C_19  and  N_21
REMARK    7  A    between atoms: C_24  and  N_27
REMARK    8  A    between atoms: N_27  and  C_28
REMARK    9  A    between atoms: N_27  and  C_29
REMARK   10  A    between atoms: C_31  and  O_33
REMARK   11  A    between atoms: O_33  and  C_34
REMARK   12  A    between atoms: C_34  and  C_35
REMARK   13  A    between atoms: C_34  and  C_36
REMARK                            x       y       z     vdW  Elec       q    Type
REMARK                         _______ _______ _______ _____ _____    ______ ____
ROOT
ATOM      1  C   UNL     1      -0.329  -3.184   2.207  0.00  0.00    +0.150 C 
ATOM      2  C   UNL     1      -1.408  -4.093   2.753  0.00  0.00    +0.082 C 
ATOM      3  C   UNL     1      -1.045  -5.375   3.119  0.00  0.00    +0.053 C 
ATOM      4  N   UNL     1       0.208  -5.780   2.991  0.00  0.00    -0.230 NA
ATOM      5  C   UNL     1       1.192  -5.041   2.523  0.00  0.00    +0.166 C 
ATOM      6  N   UNL     1       1.043  -3.748   2.107  0.00  0.00    -0.267 N 
ATOM      7  C   UNL     1       2.174  -3.106   1.642  0.00  0.00    +0.048 C 
ATOM      8  C   UNL     1       3.332  -3.802   1.635  0.00  0.00    +0.072 C 
ATOM      9  S   UNL     1       2.820  -5.376   2.290  0.00  0.00    -0.060 S 
ATOM     10  C   UNL     1      -2.084  -6.319   3.669  0.00  0.00    +0.066 C 
ENDROOT
BRANCH   1  16
ATOM     11  C   UNL     1      -2.285   0.289  -0.819  0.00  0.00    +0.044 C 
ATOM     12  C   UNL     1      -1.686  -1.079  -0.618  0.00  0.00    -0.050 A 
ATOM     13  C   UNL     1      -1.523  -1.928  -1.697  0.00  0.00    +0.003 A 
ATOM     14  C   UNL     1      -0.974  -3.183  -1.513  0.00  0.00    +0.001 A 
ATOM     15  C   UNL     1      -0.588  -3.589  -0.249  0.00  0.00    +0.006 A 
ATOM     16  C   UNL     1      -0.750  -2.741   0.830  0.00  0.00    -0.022 A 
ATOM     17  C   UNL     1      -1.295  -1.484   0.644  0.00  0.00    +0.009 A 
ENDBRANCH   1  16
BRANCH   7  18
ATOM     18  C   UNL     1       2.119  -1.714   1.171  0.00  0.00    +0.091 C 
ATOM     19  C   UNL     1       3.192  -1.164   0.571  0.00  0.00    +0.241 C 
ATOM     20  O   UNL     1       4.266  -1.932   0.265  0.00  0.00    -0.271 OA
BRANCH  19  21
ATOM     21  N   UNL     1       3.198   0.187   0.267  0.00  0.00    -0.300 N 
ATOM     22  C   UNL     1       2.159   1.155   0.648  0.00  0.00    +0.106 C 
ATOM     23  C   UNL     1       2.577   2.525   0.072  0.00  0.00    +0.005 C 
ATOM     24  C   UNL     1       3.541   2.138  -1.081  0.00  0.00    -0.050 C 
ATOM     25  C   UNL     1       4.250   0.893  -0.487  0.00  0.00    +0.093 C 
BRANCH  24  26
ATOM     26  N   UNL     1       4.504   3.215  -1.346  0.00  0.00    +0.379 N 
ATOM     27  C   UNL     1       5.397   2.814  -2.441  0.00  0.00    -0.096 C 
ATOM     28  C   UNL     1       3.781   4.436  -1.726  0.00  0.00    -0.096 C 
ATOM     29  H   UNL     1       5.048   3.391  -0.515  0.00  0.00    -0.082 HD
ENDBRANCH  24  26
ENDBRANCH  19  21
ENDBRANCH   7  18
BRANCH   2  30
ATOM     30  C   UNL     1      -2.729  -3.650   2.884  0.00  0.00    +0.339 C 
ATOM     31  O   UNL     1      -3.604  -4.431   3.214  0.00  0.00    -0.245 OA
BRANCH  30  32
ATOM     32  O   UNL     1      -3.035  -2.355   2.644  0.00  0.00    -0.459 OA
BRANCH  32  33
ATOM     33  C   UNL     1      -4.403  -1.973   2.797  0.00  0.00    +0.171 C 
ATOM     34  C   UNL     1      -4.649  -1.522   4.238  0.00  0.00    +0.052 C 
ATOM     35  C   UNL     1      -4.720  -0.820   1.841  0.00  0.00    +0.052 C 
ENDBRANCH  32  33
ENDBRANCH  30  32
ENDBRANCH   2  30
TORSDOF 7
