REMARK  Name = ZINC63205688
REMARK  7 active torsions:
REMARK  status: ('A' for Active; 'I' for Inactive)
REMARK    1  A    between atoms: C_4  and  C_7
REMARK    2  A    between atoms: C_7  and  C_9
REMARK    3  A    between atoms: C_7  and  C_27
REMARK    4  A    between atoms: C_9  and  N_10
REMARK    5  A    between atoms: N_10  and  C_11
REMARK    6  A    between atoms: C_11  and  C_13
REMARK    7  A    between atoms: C_11  and  C_19
REMARK                            x       y       z     vdW  Elec       q    Type
REMARK                         _______ _______ _______ _____ _____    ______ ____
ROOT
ATOM      1  C   UNL     1       4.147  -2.336  -1.472  0.00  0.00    +0.094 C 
ENDROOT
BRANCH   1   2
ATOM      2  N   UNL     1       4.105  -1.143  -2.329  0.00  0.00    -0.301 NA
ATOM      3  H   UNL     1       3.400  -0.495  -2.013  0.00  0.00    +0.123 HD
BRANCH   2   4
ATOM      4  C   UNL     1       3.890  -1.513  -3.734  0.00  0.00    +0.171 C 
BRANCH   4   5
ATOM      5  C   UNL     1       4.444  -0.433  -4.628  0.00  0.00    +0.237 C 
ATOM      6  O   UNL     1       4.480   0.716  -4.240  0.00  0.00    -0.274 OA
ATOM      7  N   UNL     1       4.899  -0.744  -5.858  0.00  0.00    -0.296 N 
ATOM      8  C   UNL     1       4.768  -2.109  -6.391  0.00  0.00    +0.136 C 
ATOM      9  C   UNL     1       4.138  -2.024  -7.787  0.00  0.00    +0.179 C 
ATOM     10  O   UNL     1       4.883  -1.100  -8.584  0.00  0.00    -0.377 OA
ATOM     11  C   UNL     1       4.874   0.241  -8.087  0.00  0.00    +0.179 C 
ATOM     12  C   UNL     1       5.536   0.273  -6.709  0.00  0.00    +0.136 C 
ENDBRANCH   4   5
BRANCH   4  13
ATOM     13  C   UNL     1       2.414  -1.670  -3.992  0.00  0.00    -0.022 A 
ATOM     14  C   UNL     1       1.529  -0.702  -3.554  0.00  0.00    +0.005 A 
ATOM     15  C   UNL     1       0.174  -0.846  -3.791  0.00  0.00    +0.000 A 
ATOM     16  C   UNL     1      -0.295  -1.957  -4.465  0.00  0.00    +0.000 A 
ATOM     17  C   UNL     1       0.590  -2.925  -4.903  0.00  0.00    +0.000 A 
ATOM     18  C   UNL     1       1.944  -2.779  -4.671  0.00  0.00    +0.005 A 
ENDBRANCH   4  13
ENDBRANCH   2   4
ENDBRANCH   1   2
BRANCH   1  19
ATOM     19  C   UNL     1       4.372  -1.912  -0.019  0.00  0.00    +0.061 C 
BRANCH  19  20
ATOM     20  C   UNL     1       4.537  -3.137   0.842  0.00  0.00    -0.033 C 
ATOM     21  C   UNL     1       5.611  -3.462   1.597  0.00  0.00    -0.000 A 
ATOM     22  C   UNL     1       6.898  -2.798   1.833  0.00  0.00    +0.010 A 
ATOM     23  C   UNL     1       7.796  -3.380   2.660  0.00  0.00    +0.001 A 
ATOM     24  C   UNL     1       7.528  -4.600   3.296  0.00  0.00    +0.002 A 
ATOM     25  C   UNL     1       6.368  -5.271   3.130  0.00  0.00    +0.026 A 
ATOM     26  C   UNL     1       5.352  -4.749   2.281  0.00  0.00    +0.043 A 
ATOM     27  N   UNL     1       4.164  -5.202   1.962  0.00  0.00    -0.380 N 
ATOM     28  C   UNL     1       3.532  -4.250   1.042  0.00  0.00    +0.145 C 
ATOM     29  H   UNL     1       3.768  -6.028   2.283  0.00  0.00    +0.160 HD
ENDBRANCH  19  20
BRANCH  19  33
ATOM     30  C   UNL     1       1.010   0.345   1.341  0.00  0.00    +0.000 A 
ATOM     31  C   UNL     1       2.268   0.917   1.332  0.00  0.00    +0.000 A 
ATOM     32  C   UNL     1       3.356   0.187   0.892  0.00  0.00    +0.004 A 
ATOM     33  C   UNL     1       3.186  -1.116   0.462  0.00  0.00    -0.039 A 
ATOM     34  C   UNL     1       1.928  -1.688   0.472  0.00  0.00    +0.004 A 
ATOM     35  C   UNL     1       0.839  -0.958   0.910  0.00  0.00    +0.000 A 
ENDBRANCH  19  33
ENDBRANCH   1  19
TORSDOF 7
