REMARK  Name = ZINC63351515
REMARK  11 active torsions:
REMARK  status: ('A' for Active; 'I' for Inactive)
REMARK    1  A    between atoms: C_1  and  O_2
REMARK    2  A    between atoms: O_2  and  C_3
REMARK    3  A    between atoms: C_8  and  O_9
REMARK    4  A    between atoms: O_9  and  C_10
REMARK    5  A    between atoms: C_14  and  N_16
REMARK    6  A    between atoms: N_16  and  C_17
REMARK    7  A    between atoms: C_17  and  C_19
REMARK    8  A    between atoms: C_17  and  C_29
REMARK    9  A    between atoms: C_19  and  C_20
REMARK   10  A    between atoms: C_29  and  O_31
REMARK   11  A    between atoms: O_31  and  C_32
REMARK                            x       y       z     vdW  Elec       q    Type
REMARK                         _______ _______ _______ _____ _____    ______ ____
ROOT
ATOM      1  N   UNL     1      -5.624  -2.711   1.242  0.00  0.00    -0.265 NA
ATOM      2  H   UNL     1      -5.295  -3.302   1.990  0.00  0.00    +0.126 HD
ENDROOT
BRANCH   1  12
ATOM      3  C   UNL     1      -1.201  -0.638   0.010  0.00  0.00    +0.162 A 
ATOM      4  C   UNL     1      -2.372   0.102   0.019  0.00  0.00    +0.050 A 
ATOM      5  C   UNL     1      -3.603  -0.536   0.027  0.00  0.00    +0.013 A 
ATOM      6  C   UNL     1      -3.668  -1.908   0.026  0.00  0.00    +0.025 A 
ATOM      7  C   UNL     1      -2.496  -2.673   0.016  0.00  0.00    +0.112 A 
ATOM      8  C   UNL     1      -1.254  -2.029   0.003  0.00  0.00    +0.176 A 
ATOM      9  C   UNL     1      -2.888  -4.091   0.017  0.00  0.00    +0.345 C 
ATOM     10  O   UNL     1      -2.114  -5.027   0.010  0.00  0.00    -0.245 OA
ATOM     11  O   UNL     1      -4.227  -4.199   0.026  0.00  0.00    -0.438 OA
ATOM     12  C   UNL     1      -4.810  -2.893   0.032  0.00  0.00    +0.279 C 
BRANCH   3  14
ATOM     13  C   UNL     1      -0.017   1.425   0.010  0.00  0.00    +0.277 C 
ATOM     14  O   UNL     1       0.002  -0.004   0.002  0.00  0.00    -0.491 OA
ENDBRANCH   3  14
BRANCH   8  15
ATOM     15  O   UNL     1      -0.107  -2.756  -0.012  0.00  0.00    -0.491 OA
ATOM     16  C   UNL     1       0.453  -3.110   1.254  0.00  0.00    +0.277 C 
ENDBRANCH   8  15
ENDBRANCH   1  12
BRANCH   1  17
ATOM     17  C   UNL     1      -7.045  -2.958   0.962  0.00  0.00    +0.170 C 
BRANCH  17  18
ATOM     18  C   UNL     1      -7.677  -1.699   0.426  0.00  0.00    +0.324 C 
ATOM     19  O   UNL     1      -7.012  -0.699   0.291  0.00  0.00    -0.249 OA
BRANCH  18  20
ATOM     20  O   UNL     1      -8.979  -1.688   0.099  0.00  0.00    -0.467 OA
ATOM     21  C   UNL     1      -9.511  -0.461  -0.403  0.00  0.00    +0.280 C 
ENDBRANCH  18  20
ENDBRANCH  17  18
BRANCH  17  22
ATOM     22  C   UNL     1      -7.754  -3.375   2.252  0.00  0.00    +0.063 C 
BRANCH  22  23
ATOM     23  C   UNL     1      -7.205  -4.698   2.721  0.00  0.00    -0.040 C 
ATOM     24  C   UNL     1      -6.223  -4.894   3.630  0.00  0.00    -0.001 A 
ATOM     25  C   UNL     1      -5.402  -3.970   4.423  0.00  0.00    +0.010 A 
ATOM     26  C   UNL     1      -4.476  -4.476   5.269  0.00  0.00    +0.001 A 
ATOM     27  C   UNL     1      -4.281  -5.857   5.407  0.00  0.00    +0.002 A 
ATOM     28  C   UNL     1      -4.996  -6.768   4.713  0.00  0.00    +0.026 A 
ATOM     29  C   UNL     1      -5.997  -6.348   3.795  0.00  0.00    +0.043 A 
ATOM     30  N   UNL     1      -6.808  -7.024   3.018  0.00  0.00    -0.380 N 
ATOM     31  C   UNL     1      -7.645  -6.074   2.276  0.00  0.00    +0.144 C 
ATOM     32  H   UNL     1      -6.851  -7.990   2.949  0.00  0.00    +0.160 HD
ENDBRANCH  22  23
ENDBRANCH  17  22
ENDBRANCH   1  17
TORSDOF 8
