REMARK  Name = ZINC39927313
REMARK  9 active torsions:
REMARK  status: ('A' for Active; 'I' for Inactive)
REMARK    1  A    between atoms: C_1  and  C_2
REMARK    2  A    between atoms: C_2  and  C_3
REMARK    3  A    between atoms: C_2  and  C_4
REMARK    4  A    between atoms: C_2  and  C_5
REMARK    5  A    between atoms: C_8  and  C_11
REMARK    6  A    between atoms: C_15  and  S_18
REMARK    7  A    between atoms: N_16  and  N_17
REMARK    8  A    between atoms: S_18  and  C_19
REMARK    9  A    between atoms: C_19  and  C_20
REMARK                            x       y       z     vdW  Elec       q    Type
REMARK                         _______ _______ _______ _____ _____    ______ ____
ROOT
ATOM      1  C   UNL     1       2.707  -1.868  -4.752  0.00  0.00    +0.223 C 
ATOM      2  N   UNL     1       2.220  -3.206  -5.132  0.00  0.00    -0.241 N 
ATOM      3  N   UNL     1       3.330  -4.058  -5.066  0.00  0.00    -0.161 NA
ATOM      4  C   UNL     1       4.393  -3.422  -4.704  0.00  0.00    +0.189 C 
ATOM      5  N   UNL     1       4.141  -2.073  -4.484  0.00  0.00    -0.221 N 
ATOM      6  H   UNL     1       1.314  -3.447  -5.379  0.00  0.00    +0.171 HD
ENDROOT
BRANCH   1  10
ATOM      7  C   UNL     1       0.707  -0.490  -1.238  0.00  0.00    -0.042 A 
ATOM      8  C   UNL     1       0.036  -1.284  -2.148  0.00  0.00    +0.004 A 
ATOM      9  C   UNL     1       0.683  -1.730  -3.286  0.00  0.00    +0.007 A 
ATOM     10  C   UNL     1       2.001  -1.381  -3.513  0.00  0.00    -0.007 A 
ATOM     11  C   UNL     1       2.672  -0.586  -2.603  0.00  0.00    +0.007 A 
ATOM     12  C   UNL     1       2.024  -0.137  -1.467  0.00  0.00    +0.004 A 
BRANCH   7  14
ATOM     13  C   UNL     1      -0.019   1.526   0.010  0.00  0.00    +0.015 C 
ATOM     14  C   UNL     1       0.002  -0.004   0.002  0.00  0.00    -0.013 C 
ATOM     15  C   UNL     1       0.742  -0.511   1.242  0.00  0.00    +0.015 C 
ATOM     16  C   UNL     1      -1.433  -0.534   0.013  0.00  0.00    +0.015 C 
ENDBRANCH   7  14
ENDBRANCH   1  10
BRANCH   5  17
ATOM     17  N   UNL     1       5.042  -1.123  -4.095  0.00  0.00    -0.250 NA
ATOM     18  H   UNL     1       5.961  -1.523  -3.978  0.00  0.00    +0.141 HD
ATOM     19  H   UNL     1       5.063  -0.355  -4.749  0.00  0.00    +0.141 HD
ENDBRANCH   5  17
BRANCH   4  20
ATOM     20  S   UNL     1       5.975  -4.173  -4.514  0.00  0.00    -0.080 S 
BRANCH  20  21
ATOM     21  C   UNL     1       5.688  -5.914  -4.934  0.00  0.00    +0.151 C 
BRANCH  21  22
ATOM     22  C   UNL     1       6.979  -6.681  -4.810  0.00  0.00    +0.118 A 
ATOM     23  N   UNL     1       7.395  -7.270  -3.728  0.00  0.00    -0.232 NA
ATOM     24  C   UNL     1       8.593  -7.866  -3.963  0.00  0.00    +0.089 A 
ATOM     25  C   UNL     1       9.467  -8.617  -3.174  0.00  0.00    +0.030 A 
ATOM     26  C   UNL     1      10.629  -9.094  -3.711  0.00  0.00    +0.002 A 
ATOM     27  C   UNL     1      10.953  -8.841  -5.036  0.00  0.00    +0.002 A 
ATOM     28  C   UNL     1      10.105  -8.101  -5.834  0.00  0.00    +0.028 A 
ATOM     29  C   UNL     1       8.920  -7.609  -5.306  0.00  0.00    +0.066 A 
ATOM     30  N   UNL     1       7.877  -6.862  -5.816  0.00  0.00    -0.341 N 
ATOM     31  H   UNL     1       7.800  -6.527  -6.723  0.00  0.00    +0.167 HD
ENDBRANCH  21  22
ENDBRANCH  20  21
ENDBRANCH   4  20
TORSDOF 6
