REMARK  Name = ZINC07987745
REMARK  6 active torsions:
REMARK  status: ('A' for Active; 'I' for Inactive)
REMARK    1  A    between atoms: C_1  and  C_2
REMARK    2  A    between atoms: C_5  and  N_8
REMARK    3  A    between atoms: C_9  and  C_11
REMARK    4  A    between atoms: C_11  and  C_12
REMARK    5  A    between atoms: N_23  and  C_24
REMARK    6  A    between atoms: C_24  and  C_25
REMARK                            x       y       z     vdW  Elec       q    Type
REMARK                         _______ _______ _______ _____ _____    ______ ____
ROOT
ATOM      1  C   UNL     1       6.000   1.846   0.003  0.00  0.00    +0.169 C 
ATOM      2  C   UNL     1       7.276   1.064  -0.170  0.00  0.00    +0.238 C 
ATOM      3  O   UNL     1       7.756   0.913  -1.274  0.00  0.00    -0.273 OA
ATOM      4  N   UNL     1       7.881   0.533   0.913  0.00  0.00    -0.282 N 
ATOM      5  C   UNL     1       7.367   0.821   2.185  0.00  0.00    +0.055 A 
ATOM      6  C   UNL     1       7.778   0.087   3.287  0.00  0.00    +0.025 A 
ATOM      7  C   UNL     1       7.254   0.366   4.536  0.00  0.00    +0.002 A 
ATOM      8  C   UNL     1       6.319   1.373   4.688  0.00  0.00    +0.002 A 
ATOM      9  C   UNL     1       5.909   2.113   3.595  0.00  0.00    +0.025 A 
ATOM     10  C   UNL     1       6.436   1.847   2.339  0.00  0.00    +0.052 A 
ATOM     11  N   UNL     1       6.051   2.624   1.244  0.00  0.00    -0.313 N 
ATOM     12  H   UNL     1       8.658  -0.039   0.814  0.00  0.00    +0.155 HD
ENDROOT
BRANCH   1  13
ATOM     13  C   UNL     1       4.815   0.879   0.059  0.00  0.00    +0.128 C 
BRANCH  13  15
ATOM     14  N   UNL     1       3.625  -0.639  -1.489  0.00  0.00    -0.285 N 
ATOM     15  C   UNL     1       4.664   0.192  -1.273  0.00  0.00    +0.219 C 
ATOM     16  O   UNL     1       5.477   0.386  -2.152  0.00  0.00    -0.275 OA
ATOM     17  H   UNL     1       2.935  -0.737  -0.815  0.00  0.00    +0.155 HD
BRANCH  14  22
ATOM     18  C   UNL     1       3.289  -3.561  -6.340  0.00  0.00    +0.044 C 
ATOM     19  C   UNL     1       3.379  -2.785  -5.051  0.00  0.00    -0.050 A 
ATOM     20  C   UNL     1       2.227  -2.472  -4.353  0.00  0.00    +0.005 A 
ATOM     21  C   UNL     1       2.304  -1.756  -3.175  0.00  0.00    +0.023 A 
ATOM     22  C   UNL     1       3.542  -1.360  -2.685  0.00  0.00    +0.033 A 
ATOM     23  C   UNL     1       4.698  -1.681  -3.385  0.00  0.00    +0.023 A 
ATOM     24  C   UNL     1       4.613  -2.393  -4.566  0.00  0.00    +0.005 A 
ENDBRANCH  14  22
ENDBRANCH  13  15
ENDBRANCH   1  13
BRANCH  11  25
ATOM     25  C   UNL     1       4.769   3.295   1.498  0.00  0.00    +0.132 C 
BRANCH  25  26
ATOM     26  C   UNL     1       4.390   4.126   0.299  0.00  0.00    -0.016 C 
ATOM     27  C   UNL     1       3.221   3.962  -0.268  0.00  0.00    +0.005 C 
ENDBRANCH  25  26
ENDBRANCH  11  25
TORSDOF 5
