REMARK  Name = ZINC29936314
REMARK  10 active torsions:
REMARK  status: ('A' for Active; 'I' for Inactive)
REMARK    1  A    between atoms: C_1  and  C_2
REMARK    2  A    between atoms: C_5  and  N_8
REMARK    3  A    between atoms: C_9  and  C_11
REMARK    4  A    between atoms: C_11  and  N_12
REMARK    5  A    between atoms: N_12  and  C_13
REMARK    6  A    between atoms: C_14  and  C_16
REMARK    7  A    between atoms: C_16  and  N_17
REMARK    8  A    between atoms: N_17  and  C_18
REMARK    9  A    between atoms: C_18  and  C_20
REMARK   10  A    between atoms: C_18  and  C_27
REMARK                            x       y       z     vdW  Elec       q    Type
REMARK                         _______ _______ _______ _____ _____    ______ ____
ROOT
ATOM      1  C   UNL     1       2.362  -2.305   2.250  0.00  0.00    +0.016 C 
ENDROOT
BRANCH   1   4
ATOM      2  N   UNL     1       1.956  -3.347   4.457  0.00  0.00    -0.297 N 
ATOM      3  C   UNL     1       2.897  -2.382   5.032  0.00  0.00    +0.132 C 
ATOM      4  C   UNL     1       1.691  -3.324   3.136  0.00  0.00    +0.199 C 
ATOM      5  O   UNL     1       0.912  -4.122   2.660  0.00  0.00    -0.278 OA
BRANCH   2   6
ATOM      6  C   UNL     1       1.304  -4.337   5.318  0.00  0.00    +0.203 C 
BRANCH   6   8
ATOM      7  N   UNL     1       1.745  -6.634   6.121  0.00  0.00    -0.284 N 
ATOM      8  C   UNL     1       2.150  -5.582   5.382  0.00  0.00    +0.235 C 
ATOM      9  O   UNL     1       3.195  -5.637   4.769  0.00  0.00    -0.274 OA
ATOM     10  H   UNL     1       0.837  -6.557   6.737  0.00  0.00    +0.155 HD
BRANCH   7  15
ATOM     11  C   UNL     1       4.726 -11.461   6.052  0.00  0.00    +0.044 C 
ATOM     12  C   UNL     1       3.934 -10.179   6.071  0.00  0.00    -0.050 A 
ATOM     13  C   UNL     1       4.587  -8.963   5.981  0.00  0.00    +0.005 A 
ATOM     14  C   UNL     1       3.865  -7.787   5.997  0.00  0.00    +0.023 A 
ATOM     15  C   UNL     1       2.480  -7.825   6.104  0.00  0.00    +0.033 A 
ATOM     16  C   UNL     1       1.828  -9.047   6.199  0.00  0.00    +0.023 A 
ATOM     17  C   UNL     1       2.556 -10.220   6.176  0.00  0.00    +0.005 A 
ENDBRANCH   7  15
ENDBRANCH   6   8
ENDBRANCH   2   6
ENDBRANCH   1   4
BRANCH   1  18
ATOM     18  N   UNL     1       1.909  -2.487   0.865  0.00  0.00    +0.392 N 
ATOM     19  H   UNL     1       2.170  -3.499   0.523  0.00  0.00    -0.084 HD
ATOM     20  H   UNL     1       0.818  -2.354   0.815  0.00  0.00    -0.084 HD
BRANCH  18  21
ATOM     21  C   UNL     1       2.543  -1.510  -0.029  0.00  0.00    -0.003 C 
BRANCH  21  22
ATOM     22  C   UNL     1       2.574  -2.058  -1.433  0.00  0.00    -0.056 A 
ATOM     23  C   UNL     1       1.489  -2.761  -1.923  0.00  0.00    +0.005 A 
ATOM     24  C   UNL     1       1.514  -3.260  -3.212  0.00  0.00    +0.038 A 
ATOM     25  C   UNL     1       2.629  -3.064  -4.008  0.00  0.00    +0.123 A 
ATOM     26  C   UNL     1       3.717  -2.365  -3.514  0.00  0.00    +0.038 A 
ATOM     27  C   UNL     1       3.688  -1.862  -2.227  0.00  0.00    +0.005 A 
ATOM     28  F   UNL     1       2.656  -3.556  -5.266  0.00  0.00    -0.205 F 
ENDBRANCH  21  22
BRANCH  21  29
ATOM     29  C   UNL     1       1.756  -0.225  -0.009  0.00  0.00    -0.020 A 
ATOM     30  C   UNL     1       2.208   1.053  -0.007  0.00  0.00    +0.010 A 
ATOM     31  C   UNL     1       1.292   2.088   0.014  0.00  0.00    +0.008 A 
ATOM     32  C   UNL     1      -0.031   1.795   0.033  0.00  0.00    +0.045 A 
ATOM     33  S   UNL     1      -0.013   0.009   0.021  0.00  0.00    -0.103 S 
ENDBRANCH  21  29
ENDBRANCH  18  21
ENDBRANCH   1  18
TORSDOF 8
