REMARK  Name = ZINC37266221
REMARK  5 active torsions:
REMARK  status: ('A' for Active; 'I' for Inactive)
REMARK    1  A    between atoms: C_1  and  O_2
REMARK    2  A    between atoms: O_2  and  C_3
REMARK    3  A    between atoms: N_6  and  S_9
REMARK    4  A    between atoms: S_9  and  C_12
REMARK    5  A    between atoms: C_13  and  N_20
REMARK                            x       y       z     vdW  Elec       q    Type
REMARK                         _______ _______ _______ _____ _____    ______ ____
ROOT
ATOM      1  S   UNL     1      -3.807  -4.796   1.587  0.00  0.00    +0.064 S 
ATOM      2  O   UNL     1      -3.358  -5.950   0.892  0.00  0.00    -0.153 OA
ATOM      3  O   UNL     1      -3.815  -4.716   3.006  0.00  0.00    -0.153 OA
ENDROOT
BRANCH   1   4
ATOM      4  C   UNL     1      -5.462  -4.501   1.058  0.00  0.00    +0.140 A 
ATOM      5  C   UNL     1      -6.332  -3.779   1.865  0.00  0.00    +0.053 A 
ATOM      6  C   UNL     1      -7.635  -3.547   1.443  0.00  0.00    +0.040 A 
ATOM      7  C   UNL     1      -8.062  -4.037   0.223  0.00  0.00    +0.021 A 
ATOM      8  C   UNL     1      -7.194  -4.756  -0.578  0.00  0.00    +0.032 A 
ATOM      9  C   UNL     1      -5.893  -4.983  -0.163  0.00  0.00    +0.047 A 
ATOM     10 BR   UNL     1      -4.707  -5.959  -1.266  0.00  0.00    -0.048 Br
ATOM     11 BR   UNL     1      -9.836  -3.723  -0.351  0.00  0.00    -0.050 Br
BRANCH   5  12
ATOM     12  N   UNL     1      -5.897  -3.286   3.097  0.00  0.00    -0.356 N 
ATOM     13  H   UNL     1      -4.949  -3.163   3.263  0.00  0.00    +0.142 HD
ATOM     14  H   UNL     1      -6.543  -3.067   3.787  0.00  0.00    +0.142 HD
ENDBRANCH   5  12
ENDBRANCH   1   4
BRANCH   1  18
ATOM     15  C   UNL     1      -0.563  -1.969   0.640  0.00  0.00    +0.120 C 
ATOM     16  C   UNL     1      -1.203  -2.061   2.027  0.00  0.00    +0.048 C 
ATOM     17  C   UNL     1      -2.703  -2.331   1.877  0.00  0.00    +0.112 C 
ATOM     18  N   UNL     1      -2.887  -3.530   1.048  0.00  0.00    -0.176 NA
ATOM     19  C   UNL     1      -2.238  -3.584  -0.270  0.00  0.00    +0.112 C 
ATOM     20  C   UNL     1      -0.743  -3.300  -0.095  0.00  0.00    +0.048 C 
BRANCH  15  22
ATOM     21  C   UNL     1       1.140  -0.291   0.798  0.00  0.00    +0.194 C 
ATOM     22  O   UNL     1       0.831  -1.685   0.776  0.00  0.00    -0.380 OA
ENDBRANCH  15  22
ENDBRANCH   1  18
TORSDOF 4
