REMARK  Name = ZINC17155953
REMARK  5 active torsions:
REMARK  status: ('A' for Active; 'I' for Inactive)
REMARK    1  A    between atoms: C_3  and  N_32
REMARK    2  A    between atoms: C_6  and  C_7
REMARK    3  A    between atoms: C_7  and  S_8
REMARK    4  A    between atoms: S_8  and  C_9
REMARK    5  A    between atoms: C_19  and  C_21
REMARK                            x       y       z     vdW  Elec       q    Type
REMARK                         _______ _______ _______ _____ _____    ______ ____
ROOT
ATOM      1  C   UNL     1      -3.334  -1.974  -1.519  0.00  0.00    +0.172 A 
ATOM      2  N   UNL     1      -3.784  -2.249  -0.313  0.00  0.00    -0.185 NA
ATOM      3  C   UNL     1      -4.928  -2.930  -0.141  0.00  0.00    +0.280 A 
ATOM      4  O   UNL     1      -5.332  -3.179   0.985  0.00  0.00    -0.265 OA
ATOM      5  C   UNL     1      -5.662  -3.356  -1.270  0.00  0.00    +0.069 A 
ATOM      6  C   UNL     1      -5.184  -3.069  -2.510  0.00  0.00    +0.111 A 
ATOM      7  N   UNL     1      -4.014  -2.367  -2.632  0.00  0.00    -0.322 N 
ATOM      8  N   UNL     1      -5.871  -3.479  -3.629  0.00  0.00    -0.304 N 
ATOM      9  C   UNL     1      -6.801  -4.481  -3.548  0.00  0.00    +0.017 C 
ATOM     10  C   UNL     1      -7.346  -4.820  -2.361  0.00  0.00    +0.024 C 
ATOM     11  C   UNL     1      -6.948  -4.108  -1.093  0.00  0.00    +0.092 C 
ATOM     12  C   UNL     1      -8.305  -5.843  -2.271  0.00  0.00    +0.162 C 
ATOM     13  O   UNL     1      -8.763  -6.137  -1.184  0.00  0.00    -0.292 OA
ATOM     14  C   UNL     1      -8.777  -6.581  -3.493  0.00  0.00    +0.080 C 
ATOM     15  C   UNL     1      -8.650  -5.660  -4.712  0.00  0.00    +0.014 C 
ATOM     16  C   UNL     1      -7.197  -5.195  -4.817  0.00  0.00    +0.051 C 
ATOM     17  H   UNL     1      -5.695  -3.055  -4.483  0.00  0.00    +0.153 HD
ATOM     18  H   UNL     1      -3.667  -2.152  -3.513  0.00  0.00    +0.169 HD
ENDROOT
BRANCH  11  19
ATOM     19  C   UNL     1      -8.037  -3.139  -0.709  0.00  0.00    -0.032 A 
ATOM     20  C   UNL     1      -8.384  -2.092  -1.550  0.00  0.00    +0.024 A 
ATOM     21  C   UNL     1      -9.388  -1.224  -1.164  0.00  0.00    +0.111 A 
ATOM     22  N   UNL     1     -10.011  -1.382  -0.013  0.00  0.00    -0.263 NA
ATOM     23  C   UNL     1      -9.708  -2.366   0.811  0.00  0.00    +0.111 A 
ATOM     24  C   UNL     1      -8.719  -3.277   0.490  0.00  0.00    +0.024 A 
ENDBRANCH  11  19
BRANCH   1  25
ATOM     25  S   UNL     1      -1.828  -1.075  -1.697  0.00  0.00    -0.083 S 
BRANCH  25  26
ATOM     26  C   UNL     1      -1.293  -0.775   0.010  0.00  0.00    +0.112 C 
BRANCH  26  32
ATOM     27  C   UNL     1      -0.017   1.378   0.010  0.00  0.00    +0.007 A 
ATOM     28  C   UNL     1       1.171   2.086   0.002  0.00  0.00    +0.033 A 
ATOM     29  C   UNL     1       2.377   1.411  -0.013  0.00  0.00    +0.126 A 
ATOM     30  C   UNL     1       2.396   0.029  -0.020  0.00  0.00    +0.033 A 
ATOM     31  C   UNL     1       1.208  -0.679  -0.012  0.00  0.00    +0.007 A 
ATOM     32  C   UNL     1       0.002  -0.004   0.002  0.00  0.00    -0.037 A 
BRANCH  29  33
ATOM     33  N   UNL     1       3.649   2.168  -0.022  0.00  0.00    +0.056 N 
ATOM     34  O   UNL     1       3.633   3.377  -0.016  0.00  0.00    -0.126 OA
ATOM     35  O   UNL     1       4.704   1.578  -0.035  0.00  0.00    -0.126 OA
ENDBRANCH  29  33
ENDBRANCH  26  32
ENDBRANCH  25  26
ENDBRANCH   1  25
TORSDOF 5
