REMARK  Name = ZINC09236902
REMARK  6 active torsions:
REMARK  status: ('A' for Active; 'I' for Inactive)
REMARK    1  A    between atoms: C_1  and  C_2
REMARK    2  A    between atoms: C_2  and  C_32
REMARK    3  A    between atoms: C_6  and  N_24
REMARK    4  A    between atoms: C_12  and  N_16
REMARK    5  A    between atoms: N_16  and  C_17
REMARK    6  A    between atoms: C_17  and  C_18
REMARK                            x       y       z     vdW  Elec       q    Type
REMARK                         _______ _______ _______ _____ _____    ______ ____
ROOT
ATOM      1  C   UNL     1     -11.919  -2.048  -3.901  0.00  0.00    +0.023 C 
ATOM      2  C   UNL     1     -11.966  -1.230  -2.609  0.00  0.00    +0.015 C 
ATOM      3  C   UNL     1     -10.697  -0.400  -2.476  0.00  0.00    +0.053 C 
ATOM      4  C   UNL     1     -10.738   0.586  -1.346  0.00  0.00    -0.027 A 
ATOM      5  C   UNL     1     -11.829   1.087  -0.728  0.00  0.00    +0.004 A 
ATOM      6  C   UNL     1     -11.674   2.035   0.302  0.00  0.00    +0.104 A 
ATOM      7  C   UNL     1      -9.395   1.964   0.125  0.00  0.00    +0.089 A 
ATOM      8  C   UNL     1      -9.447   1.029  -0.916  0.00  0.00    +0.037 A 
ATOM      9  C   UNL     1      -8.148   0.596  -1.461  0.00  0.00    +0.115 A 
ATOM     10  C   UNL     1      -7.014   1.169  -0.866  0.00  0.00    +0.083 A 
ATOM     11  S   UNL     1      -7.660   2.252   0.377  0.00  0.00    -0.065 S 
ATOM     12  C   UNL     1      -5.743   0.826  -1.307  0.00  0.00    +0.159 A 
ATOM     13  N   UNL     1      -5.651  -0.052  -2.307  0.00  0.00    -0.113 NA
ATOM     14  N   UNL     1      -6.709  -0.561  -2.825  0.00  0.00    -0.041 NA
ATOM     15  N   UNL     1      -7.903  -0.281  -2.458  0.00  0.00    -0.128 NA
ATOM     16  C   UNL     1     -13.261   0.713  -1.030  0.00  0.00    +0.108 C 
ATOM     17  S   UNL     1     -13.373  -0.074  -2.660  0.00  0.00    -0.149 S 
ATOM     18  C   UNL     1     -12.105  -2.164  -1.406  0.00  0.00    +0.023 C 
ATOM     19  N   UNL     1     -10.476   2.487   0.747  0.00  0.00    -0.337 N 
ATOM     20  H   UNL     1     -10.396   3.179   1.502  0.00  0.00    +0.168 HD
ENDROOT
BRANCH   6  21
ATOM     21  N   UNL     1     -12.803   2.557   0.918  0.00  0.00    -0.312 N 
ATOM     22  C   UNL     1     -12.884   4.012   0.724  0.00  0.00    +0.134 C 
ATOM     23  C   UNL     1     -14.171   4.536   1.367  0.00  0.00    +0.178 C 
ATOM     24  O   UNL     1     -14.191   4.172   2.749  0.00  0.00    -0.377 OA
ATOM     25  C   UNL     1     -14.114   2.761   2.975  0.00  0.00    +0.178 C 
ATOM     26  C   UNL     1     -12.826   2.220   2.349  0.00  0.00    +0.134 C 
ENDBRANCH   6  21
BRANCH  12  27
ATOM     27  N   UNL     1      -4.609   1.380  -0.731  0.00  0.00    -0.324 N 
ATOM     28  H   UNL     1      -4.696   2.020  -0.008  0.00  0.00    +0.148 HD
BRANCH  27  29
ATOM     29  C   UNL     1      -3.281   0.999  -1.217  0.00  0.00    +0.134 C 
BRANCH  29  30
ATOM     30  C   UNL     1      -2.212   1.748  -0.419  0.00  0.00    +0.135 C 
ATOM     31  C   UNL     1      -0.817   1.451  -1.003  0.00  0.00    +0.035 C 
ATOM     32  C   UNL     1      -0.033   0.838   0.182  0.00  0.00    +0.031 C 
ATOM     33  C   UNL     1      -0.842   1.342   1.404  0.00  0.00    +0.160 C 
ATOM     34  O   UNL     1      -2.210   1.293   0.944  0.00  0.00    -0.375 OA
ENDBRANCH  29  30
ENDBRANCH  27  29
ENDBRANCH  12  27
TORSDOF 4
