REMARK  Name = ZINC28048985
REMARK  9 active torsions:
REMARK  status: ('A' for Active; 'I' for Inactive)
REMARK    1  A    between atoms: C_1  and  C_2
REMARK    2  A    between atoms: C_2  and  N_3
REMARK    3  A    between atoms: C_12  and  O_13
REMARK    4  A    between atoms: C_14  and  N_15
REMARK    5  A    between atoms: N_15  and  S_16
REMARK    6  A    between atoms: S_16  and  C_19
REMARK    7  A    between atoms: C_22  and  C_25
REMARK    8  A    between atoms: C_25  and  C_26
REMARK    9  A    between atoms: C_25  and  C_27
REMARK                            x       y       z     vdW  Elec       q    Type
REMARK                         _______ _______ _______ _____ _____    ______ ____
ROOT
ATOM      1  N   UNL     1       0.308  -1.370   3.161  0.00  0.00    -0.382 N 
ATOM      2  C   UNL     1       0.440  -2.320   2.164  0.00  0.00    +0.076 A 
ATOM      3  C   UNL     1       1.657  -3.139   2.052  0.00  0.00    +0.042 A 
ATOM      4  C   UNL     1       2.716  -2.980   2.949  0.00  0.00    +0.013 A 
ATOM      5  C   UNL     1       3.842  -3.762   2.818  0.00  0.00    +0.001 A 
ATOM      6  C   UNL     1       3.927  -4.702   1.802  0.00  0.00    +0.004 A 
ATOM      7  C   UNL     1       2.889  -4.869   0.910  0.00  0.00    +0.047 A 
ATOM      8  C   UNL     1       1.744  -4.091   1.024  0.00  0.00    +0.141 A 
ATOM      9  O   UNL     1       0.721  -4.243   0.156  0.00  0.00    -0.424 OA
ATOM     10  C   UNL     1      -0.398  -3.506   0.241  0.00  0.00    +0.310 A 
ATOM     11  C   UNL     1      -0.570  -2.535   1.244  0.00  0.00    +0.152 A 
ATOM     12  H   UNL     1      -0.010  -1.672   4.170  0.00  0.00    +0.160 HD
ENDROOT
BRANCH   1  14
ATOM     13  C   UNL     1       0.435   0.998   3.774  0.00  0.00    +0.026 C 
ATOM     14  C   UNL     1       0.639  -0.030   2.659  0.00  0.00    +0.109 C 
ENDBRANCH   1  14
BRANCH  10  15
ATOM     15  O   UNL     1      -1.290  -3.687  -0.570  0.00  0.00    -0.479 OA
ATOM     16  H   UNL     1      -2.213  -3.091  -0.513  0.00  0.00    +0.295 HD
ENDBRANCH  10  15
BRANCH  11  17
ATOM     17  N   UNL     1      -1.758  -1.784   1.307  0.00  0.00    -0.208 N 
ATOM     18  H   UNL     1      -1.720  -0.687   1.231  0.00  0.00    +0.174 HD
BRANCH  17  19
ATOM     19  S   UNL     1      -3.213  -2.551   1.497  0.00  0.00    +0.073 S 
ATOM     20  O   UNL     1      -4.195  -1.533   1.634  0.00  0.00    -0.150 OA
ATOM     21  O   UNL     1      -3.283  -3.546   0.484  0.00  0.00    -0.150 OA
BRANCH  19  22
ATOM     22  C   UNL     1      -3.155  -3.405   3.038  0.00  0.00    +0.109 A 
ATOM     23  C   UNL     1      -2.614  -4.675   3.104  0.00  0.00    +0.029 A 
ATOM     24  C   UNL     1      -2.564  -5.343   4.313  0.00  0.00    +0.006 A 
ATOM     25  C   UNL     1      -3.064  -4.744   5.454  0.00  0.00    -0.045 A 
ATOM     26  C   UNL     1      -3.610  -3.476   5.387  0.00  0.00    +0.006 A 
ATOM     27  C   UNL     1      -3.655  -2.807   4.179  0.00  0.00    +0.029 A 
BRANCH  25  28
ATOM     28  C   UNL     1      -3.013  -5.474   6.772  0.00  0.00    +0.013 C 
ATOM     29  C   UNL     1      -3.804  -6.779   6.663  0.00  0.00    +0.012 C 
ATOM     30  C   UNL     1      -1.558  -5.787   7.126  0.00  0.00    +0.012 C 
ENDBRANCH  25  28
ENDBRANCH  19  22
ENDBRANCH  17  19
ENDBRANCH  11  17
TORSDOF 6
