REMARK  Name = ZINC39592798
REMARK  7 active torsions:
REMARK  status: ('A' for Active; 'I' for Inactive)
REMARK    1  A    between atoms: C_1  and  O_2
REMARK    2  A    between atoms: O_2  and  C_3
REMARK    3  A    between atoms: C_6  and  C_11
REMARK    4  A    between atoms: C_8  and  O_9
REMARK    5  A    between atoms: O_9  and  C_10
REMARK    6  A    between atoms: C_14  and  C_20
REMARK    7  A    between atoms: C_23  and  C_26
REMARK                            x       y       z     vdW  Elec       q    Type
REMARK                         _______ _______ _______ _____ _____    ______ ____
ROOT
ATOM      1  C   UNL     1      -4.965  -2.615   0.035  0.00  0.00    +0.130 C 
ATOM      2  N   UNL     1      -6.159  -2.093   0.040  0.00  0.00    -0.168 NA
ATOM      3  N   UNL     1      -7.299  -2.890   0.048  0.00  0.00    -0.175 N 
ATOM      4  C   UNL     1      -8.775  -2.725   0.055  0.00  0.00    +0.230 C 
ATOM      5  N   UNL     1      -9.300  -4.098   0.062  0.00  0.00    -0.242 N 
ATOM      6  N   UNL     1      -8.181  -4.941   0.058  0.00  0.00    -0.161 NA
ATOM      7  C   UNL     1      -7.089  -4.263   0.051  0.00  0.00    +0.201 C 
ATOM      8  S   UNL     1      -5.310  -4.367   0.035  0.00  0.00    -0.029 S 
ATOM      9  H   UNL     1     -10.232  -4.367   0.067  0.00  0.00    +0.170 HD
ENDROOT
BRANCH   1  13
ATOM     10  C   UNL     1      -1.201  -0.638   0.010  0.00  0.00    +0.162 A 
ATOM     11  C   UNL     1      -2.373   0.103   0.019  0.00  0.00    +0.050 A 
ATOM     12  C   UNL     1      -3.596  -0.535   0.028  0.00  0.00    +0.014 A 
ATOM     13  C   UNL     1      -3.655  -1.929   0.026  0.00  0.00    +0.012 A 
ATOM     14  C   UNL     1      -2.476  -2.675   0.016  0.00  0.00    +0.060 A 
ATOM     15  C   UNL     1      -1.253  -2.030   0.003  0.00  0.00    +0.162 A 
BRANCH  10  17
ATOM     16  C   UNL     1      -0.017   1.425   0.010  0.00  0.00    +0.277 C 
ATOM     17  O   UNL     1       0.002  -0.004   0.002  0.00  0.00    -0.491 OA
ENDBRANCH  10  17
BRANCH  15  18
ATOM     18  O   UNL     1      -0.102  -2.753  -0.012  0.00  0.00    -0.491 OA
ATOM     19  C   UNL     1      -0.230  -4.176  -0.018  0.00  0.00    +0.277 C 
ENDBRANCH  15  18
ENDBRANCH   1  13
BRANCH   4  20
ATOM     20  C   UNL     1      -9.222  -1.974   1.311  0.00  0.00    +0.194 C 
ATOM     21  C   UNL     1     -10.735  -1.852   1.353  0.00  0.00    +0.035 C 
ATOM     22  C   UNL     1     -11.082  -2.514   2.474  0.00  0.00    +0.091 C 
ATOM     23  N   UNL     1      -9.977  -3.007   3.094  0.00  0.00    -0.154 NA
ATOM     24  N   UNL     1      -8.911  -2.753   2.521  0.00  0.00    -0.176 NA
BRANCH  22  25
ATOM     25  C   UNL     1     -12.472  -2.681   2.962  0.00  0.00    +0.002 A 
ATOM     26  C   UNL     1     -13.536  -2.137   2.244  0.00  0.00    +0.011 A 
ATOM     27  C   UNL     1     -14.828  -2.295   2.703  0.00  0.00    +0.020 A 
ATOM     28  C   UNL     1     -15.068  -2.992   3.875  0.00  0.00    +0.041 A 
ATOM     29  C   UNL     1     -14.015  -3.534   4.592  0.00  0.00    +0.020 A 
ATOM     30  C   UNL     1     -12.720  -3.387   4.138  0.00  0.00    +0.011 A 
ATOM     31 CL   UNL     1     -16.695  -3.186   4.447  0.00  0.00    -0.084 Cl
ENDBRANCH  22  25
ENDBRANCH   4  20
TORSDOF 5
