REMARK  Name = ZINC58775550
REMARK  12 active torsions:
REMARK  status: ('A' for Active; 'I' for Inactive)
REMARK    1  A    between atoms: C_1  and  C_2
REMARK    2  A    between atoms: N_5  and  C_8
REMARK    3  A    between atoms: C_8  and  C_10
REMARK    4  A    between atoms: C_8  and  C_32
REMARK    5  A    between atoms: C_10  and  N_11
REMARK    6  A    between atoms: C_12  and  C_14
REMARK    7  A    between atoms: C_18  and  C_19
REMARK    8  A    between atoms: C_19  and  C_20
REMARK    9  A    between atoms: C_19  and  C_21
REMARK   10  A    between atoms: C_25  and  C_28
REMARK   11  A    between atoms: C_32  and  C_33
REMARK   12  A    between atoms: C_32  and  C_34
REMARK                            x       y       z     vdW  Elec       q    Type
REMARK                         _______ _______ _______ _____ _____    ______ ____
ROOT
ATOM      1  C   UNL     1      -4.958  -3.869  -0.733  0.00  0.00    +0.078 A 
ATOM      2  C   UNL     1      -4.325  -3.395  -1.904  0.00  0.00    +0.148 A 
ATOM      3  N   UNL     1      -5.216  -3.346  -2.856  0.00  0.00    -0.172 NA
ATOM      4  N   UNL     1      -6.446  -3.780  -2.348  0.00  0.00    -0.218 N 
ATOM      5  C   UNL     1      -6.281  -4.104  -1.052  0.00  0.00    +0.061 A 
ATOM      6  C   UNL     1      -7.641  -3.868  -3.066  0.00  0.00    +0.154 A 
ATOM      7  C   UNL     1      -7.851  -3.035  -4.158  0.00  0.00    +0.049 A 
ATOM      8  C   UNL     1      -9.039  -3.132  -4.862  0.00  0.00    +0.017 A 
ATOM      9  C   UNL     1      -9.980  -4.064  -4.446  0.00  0.00    +0.073 A 
ATOM     10  C   UNL     1      -9.705  -4.860  -3.351  0.00  0.00    +0.125 A 
ATOM     11  N   UNL     1      -8.561  -4.747  -2.704  0.00  0.00    -0.236 NA
ENDROOT
BRANCH   1  13
ATOM     12  N   UNL     1      -3.046  -3.702   0.780  0.00  0.00    -0.313 N 
ATOM     13  C   UNL     1      -4.324  -4.079   0.581  0.00  0.00    +0.247 C 
ATOM     14  O   UNL     1      -4.955  -4.593   1.485  0.00  0.00    -0.270 OA
ATOM     15  H   UNL     1      -2.543  -3.293   0.059  0.00  0.00    +0.149 HD
BRANCH  12  16
ATOM     16  C   UNL     1      -2.416  -3.911   2.087  0.00  0.00    +0.089 C 
BRANCH  16  17
ATOM     17  C   UNL     1      -1.040  -3.241   2.102  0.00  0.00    -0.049 C 
BRANCH  17  22
ATOM     18  C   UNL     1      -2.832   2.170   2.282  0.00  0.00    +0.007 C 
ATOM     19  C   UNL     1      -2.792   0.642   2.226  0.00  0.00    -0.018 C 
ATOM     20  C   UNL     1      -2.066   0.103   3.462  0.00  0.00    -0.016 C 
ATOM     21  C   UNL     1      -1.959  -1.420   3.361  0.00  0.00    -0.078 C 
ATOM     22  N   UNL     1      -1.207  -1.782   2.154  0.00  0.00    +0.383 N 
ATOM     23  C   UNL     1      -1.934  -1.332   0.961  0.00  0.00    -0.078 C 
ATOM     24  C   UNL     1      -2.039   0.195   0.970  0.00  0.00    -0.016 C 
ATOM     25  H   UNL     1      -0.299  -1.343   2.180  0.00  0.00    -0.081 HD
ENDBRANCH  17  22
BRANCH  17  26
ATOM     26  C   UNL     1      -0.259  -3.709   3.331  0.00  0.00    -0.029 C 
ATOM     27  C   UNL     1       0.027  -5.207   3.214  0.00  0.00    +0.005 C 
ATOM     28  C   UNL     1       1.063  -2.943   3.418  0.00  0.00    +0.005 C 
ENDBRANCH  17  26
ENDBRANCH  16  17
ENDBRANCH  12  16
ENDBRANCH   1  13
BRANCH   9  29
ATOM     29  C   UNL     1     -11.288  -4.205  -5.180  0.00  0.00    +0.419 C 
ATOM     30  F   UNL     1     -11.150  -5.151  -6.201  0.00  0.00    -0.166 F 
ATOM     31  F   UNL     1     -12.281  -4.623  -4.288  0.00  0.00    -0.166 F 
ATOM     32  F   UNL     1     -11.648  -2.971  -5.734  0.00  0.00    -0.166 F 
ENDBRANCH   9  29
BRANCH   5  33
ATOM     33  C   UNL     1      -7.344  -4.625  -0.119  0.00  0.00    +0.032 C 
ATOM     34  C   UNL     1      -6.957  -6.023   0.366  0.00  0.00    +0.014 C 
ATOM     35  C   UNL     1      -7.474  -3.686   1.081  0.00  0.00    +0.014 C 
ENDBRANCH   5  33
TORSDOF 7
