REMARK  Name = ZINC40042388
REMARK  9 active torsions:
REMARK  status: ('A' for Active; 'I' for Inactive)
REMARK    1  A    between atoms: C_1  and  C_2
REMARK    2  A    between atoms: C_2  and  C_3
REMARK    3  A    between atoms: N_16  and  C_29
REMARK    4  A    between atoms: C_17  and  C_19
REMARK    5  A    between atoms: C_21  and  O_27
REMARK    6  A    between atoms: C_22  and  O_26
REMARK    7  A    between atoms: O_27  and  C_28
REMARK    8  A    between atoms: C_29  and  C_30
REMARK    9  A    between atoms: C_30  and  O_31
REMARK                            x       y       z     vdW  Elec       q    Type
REMARK                         _______ _______ _______ _____ _____    ______ ____
ROOT
ATOM      1  C   UNL     1      -1.585  -0.793   0.601  0.00  0.00    -0.047 A 
ATOM      2  C   UNL     1      -2.327  -0.994   1.756  0.00  0.00    +0.007 A 
ATOM      3  C   UNL     1      -3.636  -1.416   1.689  0.00  0.00    +0.047 A 
ATOM      4  C   UNL     1      -4.234  -1.646   0.450  0.00  0.00    +0.139 A 
ATOM      5  C   UNL     1      -3.475  -1.433  -0.713  0.00  0.00    +0.065 A 
ATOM      6  C   UNL     1      -2.150  -1.005  -0.626  0.00  0.00    +0.019 A 
ATOM      7  C   UNL     1      -4.107  -1.659  -2.037  0.00  0.00    +0.199 A 
ATOM      8  O   UNL     1      -3.482  -1.663  -3.083  0.00  0.00    -0.287 OA
ATOM      9  C   UNL     1      -5.556  -1.879  -1.966  0.00  0.00    +0.072 A 
ATOM     10  C   UNL     1      -6.181  -2.065  -0.766  0.00  0.00    +0.199 A 
ATOM     11  O   UNL     1      -5.518  -2.067   0.407  0.00  0.00    -0.450 OA
ATOM     12  C   UNL     1      -7.621  -2.249  -1.019  0.00  0.00    +0.283 C 
ATOM     13  O   UNL     1      -8.461  -2.434  -0.161  0.00  0.00    -0.267 OA
ATOM     14  N   UNL     1      -7.871  -2.182  -2.343  0.00  0.00    -0.281 N 
ATOM     15  C   UNL     1      -6.594  -1.947  -3.037  0.00  0.00    +0.145 C 
ENDROOT
BRANCH  15  16
ATOM     16  C   UNL     1      -6.646  -0.645  -3.794  0.00  0.00    -0.018 A 
ATOM     17  C   UNL     1      -6.128  -0.571  -5.074  0.00  0.00    +0.055 A 
ATOM     18  C   UNL     1      -6.175   0.624  -5.773  0.00  0.00    +0.163 A 
ATOM     19  C   UNL     1      -6.744   1.749  -5.183  0.00  0.00    +0.173 A 
ATOM     20  C   UNL     1      -7.261   1.669  -3.900  0.00  0.00    +0.063 A 
ATOM     21  C   UNL     1      -7.216   0.470  -3.210  0.00  0.00    +0.025 A 
ATOM     22 BR   UNL     1      -8.035   3.194  -3.095  0.00  0.00    -0.046 Br
BRANCH  19  23
ATOM     23  O   UNL     1      -6.791   2.925  -5.865  0.00  0.00    -0.503 OA
ATOM     24  H   UNL     1      -7.592   3.041  -6.394  0.00  0.00    +0.292 HD
ENDBRANCH  19  23
BRANCH  18  25
ATOM     25  O   UNL     1      -5.665   0.699  -7.031  0.00  0.00    -0.491 OA
ATOM     26  C   UNL     1      -5.096  -0.495  -7.572  0.00  0.00    +0.277 C 
ENDBRANCH  18  25
ENDBRANCH  15  16
BRANCH   1  28
ATOM     27  C   UNL     1      -0.105   1.194   0.697  0.00  0.00    +0.009 C 
ATOM     28  C   UNL     1      -0.153  -0.335   0.698  0.00  0.00    +0.032 C 
ENDBRANCH   1  28
BRANCH  14  29
ATOM     29  C   UNL     1      -9.184  -2.320  -2.979  0.00  0.00    +0.137 C 
BRANCH  29  30
ATOM     30  C   UNL     1      -9.383  -3.769  -3.429  0.00  0.00    +0.175 C 
BRANCH  30  31
ATOM     31  O   UNL     1      -9.437  -4.620  -2.282  0.00  0.00    -0.393 OA
ATOM     32  H   UNL     1      -9.562  -5.556  -2.492  0.00  0.00    +0.209 HD
ENDBRANCH  30  31
ENDBRANCH  29  30
ENDBRANCH  14  29
TORSDOF 7
