REMARK  Name = ZINC03298300
REMARK  10 active torsions:
REMARK  status: ('A' for Active; 'I' for Inactive)
REMARK    1  A    between atoms: C_1  and  C_2
REMARK    2  A    between atoms: C_2  and  C_4
REMARK    3  A    between atoms: C_2  and  O_17
REMARK    4  A    between atoms: N_6  and  C_7
REMARK    5  A    between atoms: C_7  and  C_8
REMARK    6  A    between atoms: O_17  and  C_18
REMARK    7  A    between atoms: C_18  and  C_20
REMARK    8  A    between atoms: C_21  and  C_22
REMARK    9  A    between atoms: N_24  and  C_32
REMARK   10  A    between atoms: C_26  and  C_27
REMARK                            x       y       z     vdW  Elec       q    Type
REMARK                         _______ _______ _______ _____ _____    ______ ____
ROOT
ATOM      1  C   UNL     1      -2.204   4.507   0.037  0.00  0.00    +0.333 C 
ATOM      2  O   UNL     1      -3.316   4.013   0.040  0.00  0.00    -0.246 OA
ENDROOT
BRANCH   1   3
ATOM      3  C   UNL     1      -1.060   3.674   0.027  0.00  0.00    +0.092 C 
ATOM      4  C   UNL     1      -1.203   2.328   0.021  0.00  0.00    +0.018 C 
BRANCH   4   5
ATOM      5  C   UNL     1      -0.018   1.465   0.010  0.00  0.00    +0.021 A 
ATOM      6  C   UNL     1       1.304   1.872  -0.000  0.00  0.00    +0.123 A 
ATOM      7  N   UNL     1       2.074   0.769  -0.014  0.00  0.00    -0.239 N 
ATOM      8  N   UNL     1       1.266  -0.371  -0.012  0.00  0.00    -0.165 NA
ATOM      9  C   UNL     1       0.002  -0.004   0.002  0.00  0.00    +0.107 A 
BRANCH   7  10
ATOM     10  C   UNL     1       3.474   0.765  -0.027  0.00  0.00    +0.065 A 
ATOM     11  C   UNL     1       4.174   1.964  -0.033  0.00  0.00    +0.028 A 
ATOM     12  C   UNL     1       5.555   1.956  -0.040  0.00  0.00    +0.002 A 
ATOM     13  C   UNL     1       6.241   0.755  -0.053  0.00  0.00    +0.000 A 
ATOM     14  C   UNL     1       5.547  -0.441  -0.051  0.00  0.00    +0.002 A 
ATOM     15  C   UNL     1       4.166  -0.440  -0.039  0.00  0.00    +0.028 A 
ENDBRANCH   7  10
BRANCH   9  16
ATOM     16  C   UNL     1      -1.172  -0.898   0.009  0.00  0.00    +0.040 A 
ATOM     17  C   UNL     1      -1.337  -2.112  -0.606  0.00  0.00    +0.018 A 
ATOM     18  C   UNL     1      -2.536  -2.772  -0.456  0.00  0.00    +0.008 A 
ATOM     19  C   UNL     1      -3.515  -2.204   0.295  0.00  0.00    +0.046 A 
ATOM     20  S   UNL     1      -2.744  -0.685   0.828  0.00  0.00    -0.095 S 
ENDBRANCH   9  16
ENDBRANCH   4   5
ENDBRANCH   1   3
BRANCH   1  21
ATOM     21  O   UNL     1      -2.061   5.849   0.044  0.00  0.00    -0.449 OA
BRANCH  21  23
ATOM     22  C   UNL     1      -3.679   6.899   1.500  0.00  0.00    +0.062 C 
ATOM     23  C   UNL     1      -3.259   6.628   0.054  0.00  0.00    +0.259 C 
BRANCH  23  24
ATOM     24  C   UNL     1      -3.012   7.938  -0.650  0.00  0.00    +0.254 C 
ATOM     25  O   UNL     1      -1.918   8.179  -1.115  0.00  0.00    -0.272 OA
ATOM     26  N   UNL     1      -4.007   8.840  -0.763  0.00  0.00    -0.308 N 
ATOM     27  H   UNL     1      -4.881   8.647  -0.392  0.00  0.00    +0.149 HD
BRANCH  26  28
ATOM     28  C   UNL     1      -3.767  10.112  -1.448  0.00  0.00    +0.139 C 
BRANCH  28  29
ATOM     29  C   UNL     1      -5.030  10.935  -1.438  0.00  0.00    -0.027 A 
ATOM     30  C   UNL     1      -5.937  10.819  -2.474  0.00  0.00    +0.009 A 
ATOM     31  C   UNL     1      -7.100  11.566  -2.466  0.00  0.00    +0.050 A 
ATOM     32  C   UNL     1      -7.353  12.444  -1.424  0.00  0.00    +0.166 A 
ATOM     33  C   UNL     1      -6.436  12.564  -0.382  0.00  0.00    +0.167 A 
ATOM     34  C   UNL     1      -5.276  11.807  -0.394  0.00  0.00    +0.054 A 
ATOM     35  O   UNL     1      -6.909  13.482   0.511  0.00  0.00    -0.453 OA
ATOM     36  C   UNL     1      -7.924  14.219  -0.196  0.00  0.00    +0.466 C 
ATOM     37  O   UNL     1      -8.400  13.285  -1.183  0.00  0.00    -0.453 OA
ENDBRANCH  28  29
ENDBRANCH  26  28
ENDBRANCH  23  24
ENDBRANCH  21  23
ENDBRANCH   1  21
TORSDOF 9
