REMARK  Name = ZINC64889680
REMARK  5 active torsions:
REMARK  status: ('A' for Active; 'I' for Inactive)
REMARK    1  A    between atoms: C_1  and  C_2
REMARK    2  A    between atoms: C_7  and  S_8
REMARK    3  A    between atoms: S_8  and  N_11
REMARK    4  A    between atoms: C_17  and  C_19
REMARK    5  A    between atoms: C_28  and  C_33
REMARK                            x       y       z     vdW  Elec       q    Type
REMARK                         _______ _______ _______ _____ _____    ______ ____
ROOT
ATOM      1  S   UNL     1       0.243   0.828   3.512  0.00  0.00    +0.061 S 
ATOM      2  O   UNL     1      -0.800   1.792   3.543  0.00  0.00    -0.153 OA
ATOM      3  O   UNL     1       0.546  -0.004   4.623  0.00  0.00    -0.153 OA
ENDROOT
BRANCH   1  10
ATOM      4  C   UNL     1      -0.704   1.769   0.804  0.00  0.00    +0.046 C 
ATOM      5  C   UNL     1      -0.534   0.280   0.955  0.00  0.00    -0.022 A 
ATOM      6  C   UNL     1      -0.802  -0.557  -0.114  0.00  0.00    +0.032 A 
ATOM      7  C   UNL     1      -0.645  -1.925   0.027  0.00  0.00    +0.076 A 
ATOM      8  C   UNL     1      -0.218  -2.456   1.244  0.00  0.00    +0.145 A 
ATOM      9  C   UNL     1       0.050  -1.613   2.307  0.00  0.00    +0.076 A 
ATOM     10  C   UNL     1      -0.104  -0.246   2.159  0.00  0.00    +0.112 A 
ATOM     11  O   UNL     1      -0.069  -3.802   1.371  0.00  0.00    -0.478 OA
ATOM     12  C   UNL     1      -0.969  -4.622   0.619  0.00  0.00    +0.256 C 
ATOM     13  C   UNL     1      -1.056  -4.112  -0.796  0.00  0.00    +0.258 C 
ATOM     14  O   UNL     1      -1.257  -4.883  -1.710  0.00  0.00    -0.271 OA
ATOM     15  N   UNL     1      -0.911  -2.791  -1.043  0.00  0.00    -0.280 N 
ATOM     16  C   UNL     1      -2.356  -4.578   1.263  0.00  0.00    +0.062 C 
ATOM     17  H   UNL     1      -0.990  -2.448  -1.947  0.00  0.00    +0.155 HD
ENDBRANCH   1  10
BRANCH   1  18
ATOM     18  N   UNL     1       1.634   1.648   3.142  0.00  0.00    -0.174 NA
ATOM     19  C   UNL     1       2.948   1.085   3.485  0.00  0.00    +0.128 C 
ATOM     20  C   UNL     1       3.798   1.012   2.211  0.00  0.00    +0.125 C 
ATOM     21  N   UNL     1       3.740   2.315   1.533  0.00  0.00    -0.295 N 
ATOM     22  C   UNL     1       2.427   2.877   1.189  0.00  0.00    +0.125 C 
ATOM     23  C   UNL     1       1.577   2.947   2.458  0.00  0.00    +0.128 C 
ATOM     24  C   UNL     1       4.872   2.982   1.231  0.00  0.00    +0.247 C 
ATOM     25  O   UNL     1       4.817   4.019   0.600  0.00  0.00    -0.270 OA
BRANCH  24  26
ATOM     26  C   UNL     1       6.180   2.452   1.669  0.00  0.00    +0.040 A 
ATOM     27  C   UNL     1       6.492   1.105   1.471  0.00  0.00    +0.016 A 
ATOM     28  C   UNL     1       7.714   0.615   1.880  0.00  0.00    +0.042 A 
ATOM     29  C   UNL     1       8.633   1.456   2.488  0.00  0.00    +0.158 A 
ATOM     30  C   UNL     1       8.329   2.796   2.688  0.00  0.00    +0.159 A 
ATOM     31  C   UNL     1       7.111   3.298   2.276  0.00  0.00    +0.054 A 
ATOM     32  F   UNL     1       9.229   3.611   3.281  0.00  0.00    -0.202 F 
ATOM     33  F   UNL     1       9.829   0.970   2.887  0.00  0.00    -0.202 F 
ENDBRANCH  24  26
ENDBRANCH   1  18
TORSDOF 3
