REMARK  Name = ZINC63456238
REMARK  10 active torsions:
REMARK  status: ('A' for Active; 'I' for Inactive)
REMARK    1  A    between atoms: C_1  and  C_2
REMARK    2  A    between atoms: C_2  and  C_3
REMARK    3  A    between atoms: C_2  and  C_4
REMARK    4  A    between atoms: C_2  and  C_5
REMARK    5  A    between atoms: C_7  and  C_10
REMARK    6  A    between atoms: C_10  and  O_11
REMARK    7  A    between atoms: O_11  and  N_12
REMARK    8  A    between atoms: C_13  and  C_14
REMARK    9  A    between atoms: C_15  and  N_25
REMARK   10  A    between atoms: N_21  and  C_24
REMARK                            x       y       z     vdW  Elec       q    Type
REMARK                         _______ _______ _______ _____ _____    ______ ____
ROOT
ATOM      1  N   UNL     1       5.377  -0.987  -4.913  0.00  0.00    -0.068 NA
ATOM      2  C   UNL     1       5.736  -1.527  -6.043  0.00  0.00    +0.169 C 
ATOM      3  N   UNL     1       4.831  -2.287  -6.766  0.00  0.00    -0.340 N 
ATOM      4  H   UNL     1       3.911  -2.357  -6.469  0.00  0.00    +0.144 HD
ATOM      5  H   UNL     1       5.119  -2.748  -7.569  0.00  0.00    +0.144 HD
ENDROOT
BRANCH   2   6
ATOM      6  C   UNL     1       7.106  -1.329  -6.553  0.00  0.00    +0.098 C 
ATOM      7  C   UNL     1       8.055  -0.521  -5.986  0.00  0.00    +0.041 C 
ATOM      8  C   UNL     1       9.275  -0.646  -6.852  0.00  0.00    +0.076 C 
ATOM      9  C   UNL     1      10.490  -1.133  -6.043  0.00  0.00    +0.032 C 
ATOM     10  C   UNL     1      11.707  -0.644  -6.859  0.00  0.00    +0.003 C 
ATOM     11  C   UNL     1      11.216   0.534  -7.719  0.00  0.00    +0.003 C 
ATOM     12  C   UNL     1       9.717   0.723  -7.397  0.00  0.00    +0.032 C 
ATOM     13  N   UNL     1       8.944  -1.570  -7.929  0.00  0.00    -0.289 N 
ATOM     14  C   UNL     1       7.670  -1.970  -7.742  0.00  0.00    +0.252 C 
ATOM     15  O   UNL     1       7.073  -2.750  -8.461  0.00  0.00    -0.270 OA
ATOM     16  C   UNL     1       9.835  -1.991  -9.013  0.00  0.00    +0.133 C 
BRANCH   7  17
ATOM     17  N   UNL     1       7.919   0.239  -4.867  0.00  0.00    -0.359 N 
ATOM     18  H   UNL     1       7.106   0.188  -4.341  0.00  0.00    +0.142 HD
ATOM     19  H   UNL     1       8.636   0.833  -4.594  0.00  0.00    +0.142 HD
ENDBRANCH   7  17
ENDBRANCH   2   6
BRANCH   1  20
ATOM     20  O   UNL     1       4.062  -1.177  -4.424  0.00  0.00    -0.386 OA
BRANCH  20  21
ATOM     21  C   UNL     1       3.807  -0.529  -3.176  0.00  0.00    +0.318 C 
BRANCH  21  24
ATOM     22  C   UNL     1       0.661  -0.543  -1.265  0.00  0.00    +0.084 A 
ATOM     23  N   UNL     1       1.897  -0.309  -1.629  0.00  0.00    -0.245 NA
ATOM     24  C   UNL     1       2.385  -0.797  -2.752  0.00  0.00    +0.089 A 
ATOM     25  C   UNL     1       1.549  -1.552  -3.510  0.00  0.00    +0.073 A 
ATOM     26  S   UNL     1       0.070  -1.507  -2.511  0.00  0.00    -0.080 S 
BRANCH  22  28
ATOM     27  C   UNL     1      -0.082   1.460  -0.006  0.00  0.00    +0.017 C 
ATOM     28  C   UNL     1      -0.055  -0.069  -0.026  0.00  0.00    +0.011 C 
ATOM     29  C   UNL     1       0.677  -0.584   1.215  0.00  0.00    +0.017 C 
ATOM     30  C   UNL     1      -1.489  -0.604  -0.031  0.00  0.00    +0.017 C 
ENDBRANCH  22  28
ENDBRANCH  21  24
ENDBRANCH  20  21
ENDBRANCH   1  20
TORSDOF 6
