REMARK  Name = ZINC06829198
REMARK  4 active torsions:
REMARK  status: ('A' for Active; 'I' for Inactive)
REMARK    1  A    between atoms: C_3  and  C_6
REMARK    2  A    between atoms: C_16  and  N_23
REMARK    3  A    between atoms: C_17  and  C_21
REMARK    4  A    between atoms: C_24  and  N_25
REMARK                            x       y       z     vdW  Elec       q    Type
REMARK                         _______ _______ _______ _____ _____    ______ ____
ROOT
ATOM      1  C   UNL     1       3.239   0.279   0.053  0.00  0.00    +0.098 C 
ATOM      2  C   UNL     1       3.607  -0.529   1.297  0.00  0.00    +0.112 C 
ATOM      3  C   UNL     1       5.033  -1.004   1.197  0.00  0.00    +0.219 C 
ATOM      4  O   UNL     1       5.717  -1.075   2.202  0.00  0.00    -0.275 OA
ATOM      5  N   UNL     1       5.549  -1.341   0.032  0.00  0.00    -0.280 N 
ATOM      6  C   UNL     1       4.855  -1.219  -1.101  0.00  0.00    +0.079 C 
ATOM      7  C   UNL     1       3.699  -0.465  -1.182  0.00  0.00    +0.018 C 
ATOM      8  C   UNL     1       2.931  -0.358  -2.352  0.00  0.00    +0.083 A 
ATOM      9  C   UNL     1       3.231  -0.957  -3.643  0.00  0.00    +0.050 A 
ATOM     10  C   UNL     1       2.334  -0.747  -4.726  0.00  0.00    +0.057 A 
ATOM     11  C   UNL     1       1.194   0.037  -4.506  0.00  0.00    +0.112 A 
ATOM     12  C   UNL     1       0.975   0.589  -3.227  0.00  0.00    +0.136 A 
ATOM     13  N   UNL     1       1.807   0.388  -2.234  0.00  0.00    -0.231 NA
ATOM     14  N   UNL     1      -0.147   1.364  -3.015  0.00  0.00    -0.342 N 
ATOM     15  C   UNL     1       4.371  -1.747  -3.901  0.00  0.00    +0.076 C 
ATOM     16  S   UNL     1       5.401  -1.995  -2.600  0.00  0.00    -0.058 S 
ATOM     17  H   UNL     1       6.455  -1.686  -0.003  0.00  0.00    +0.155 HD
ATOM     18  H   UNL     1      -0.772   1.521  -3.740  0.00  0.00    +0.144 HD
ATOM     19  H   UNL     1      -0.312   1.750  -2.141  0.00  0.00    +0.144 HD
ENDROOT
BRANCH   1  22
ATOM     20  C   UNL     1      -0.283   1.359  -0.058  0.00  0.00    +0.041 A 
ATOM     21  C   UNL     1       1.099   1.648   0.002  0.00  0.00    +0.045 A 
ATOM     22  C   UNL     1       1.744   0.467   0.000  0.00  0.00    +0.113 A 
ATOM     23  O   UNL     1       0.831  -0.515  -0.058  0.00  0.00    -0.467 OA
ATOM     24  C   UNL     1      -0.401   0.020  -0.093  0.00  0.00    +0.195 A 
ENDBRANCH   1  22
BRANCH  10  25
ATOM     25  N   UNL     1       2.581  -1.300  -5.962  0.00  0.00    -0.356 N 
ATOM     26  H   UNL     1       2.905  -2.212  -6.030  0.00  0.00    +0.142 HD
ATOM     27  H   UNL     1       2.430  -0.778  -6.766  0.00  0.00    +0.142 HD
ENDBRANCH  10  25
BRANCH  15  28
ATOM     28  N   UNL     1       4.619  -2.280  -5.135  0.00  0.00    -0.352 N 
ATOM     29  H   UNL     1       4.464  -1.749  -5.932  0.00  0.00    +0.143 HD
ATOM     30  H   UNL     1       4.951  -3.188  -5.214  0.00  0.00    +0.143 HD
ENDBRANCH  15  28
BRANCH  11  31
ATOM     31  C   UNL     1       0.263   0.276  -5.568  0.00  0.00    +0.104 C 
ATOM     32  N   UNL     1      -0.475   0.465  -6.410  0.00  0.00    -0.191 NA
ENDBRANCH  11  31
TORSDOF 4
