REMARK  Name = ZINC67296933
REMARK  4 active torsions:
REMARK  status: ('A' for Active; 'I' for Inactive)
REMARK    1  A    between atoms: C_1  and  C_2
REMARK    2  A    between atoms: C_7  and  N_8
REMARK    3  A    between atoms: C_9  and  C_11
REMARK    4  A    between atoms: N_21  and  C_22
REMARK                            x       y       z     vdW  Elec       q    Type
REMARK                         _______ _______ _______ _____ _____    ______ ____
ROOT
ATOM      1  C   UNL     1      -0.226   0.032   4.820  0.00  0.00    +0.098 A 
ATOM      2  C   UNL     1      -0.193  -0.657   6.025  0.00  0.00    +0.030 A 
ATOM      3  C   UNL     1      -0.237   0.136   7.255  0.00  0.00    +0.018 A 
ATOM      4  C   UNL     1       0.059  -0.445   8.494  0.00  0.00    +0.011 A 
ATOM      5  C   UNL     1       0.014   0.317   9.628  0.00  0.00    +0.001 A 
ATOM      6  C   UNL     1      -0.322   1.661   9.561  0.00  0.00    +0.004 A 
ATOM      7  C   UNL     1      -0.618   2.253   8.349  0.00  0.00    +0.047 A 
ATOM      8  C   UNL     1      -0.580   1.499   7.186  0.00  0.00    +0.137 A 
ATOM      9  O   UNL     1      -0.874   2.061   5.988  0.00  0.00    -0.439 OA
ATOM     10  C   UNL     1      -0.298   1.505   4.889  0.00  0.00    +0.212 A 
ATOM     11  N   UNL     1       0.177   2.253   3.917  0.00  0.00    -0.325 N 
ATOM     12  H   UNL     1       0.685   1.847   3.197  0.00  0.00    +0.169 HD
ENDROOT
BRANCH  11  13
ATOM     13  C   UNL     1      -0.046   3.603   3.921  0.00  0.00    +0.046 A 
ATOM     14  C   UNL     1      -1.317   4.102   4.217  0.00  0.00    +0.029 A 
ATOM     15  C   UNL     1      -1.539   5.463   4.221  0.00  0.00    +0.051 A 
ATOM     16  C   UNL     1      -0.504   6.341   3.931  0.00  0.00    +0.166 A 
ATOM     17  C   UNL     1       0.766   5.849   3.635  0.00  0.00    +0.168 A 
ATOM     18  C   UNL     1       0.997   4.486   3.636  0.00  0.00    +0.075 A 
ATOM     19  O   UNL     1       1.596   6.906   3.390  0.00  0.00    -0.453 OA
ATOM     20  C   UNL     1       0.727   8.026   3.136  0.00  0.00    +0.466 C 
ATOM     21  O   UNL     1      -0.469   7.705   3.870  0.00  0.00    -0.453 OA
ENDBRANCH  11  13
BRANCH   1  23
ATOM     22  N   UNL     1      -0.329   0.012   2.379  0.00  0.00    -0.281 N 
ATOM     23  C   UNL     1      -0.186  -0.676   3.529  0.00  0.00    +0.253 C 
ATOM     24  O   UNL     1      -0.024  -1.881   3.501  0.00  0.00    -0.270 OA
ATOM     25  H   UNL     1      -0.410   0.978   2.398  0.00  0.00    +0.155 HD
BRANCH  22  32
ATOM     26  C   UNL     1      -1.514   1.318   0.146  0.00  0.00    +0.045 C 
ATOM     27  C   UNL     1      -0.929  -0.067   0.041  0.00  0.00    -0.029 A 
ATOM     28  C   UNL     1      -0.954  -0.739  -1.165  0.00  0.00    +0.005 A 
ATOM     29  C   UNL     1      -0.418  -2.010  -1.262  0.00  0.00    +0.000 A 
ATOM     30  C   UNL     1       0.144  -2.612  -0.152  0.00  0.00    +0.002 A 
ATOM     31  C   UNL     1       0.173  -1.946   1.058  0.00  0.00    +0.023 A 
ATOM     32  C   UNL     1      -0.360  -0.667   1.157  0.00  0.00    +0.037 A 
ENDBRANCH  22  32
ENDBRANCH   1  23
TORSDOF 3
