REMARK  Name = ZINC02111758
REMARK  11 active torsions:
REMARK  status: ('A' for Active; 'I' for Inactive)
REMARK    1  A    between atoms: C_1  and  C_2
REMARK    2  A    between atoms: C_2  and  C_3
REMARK    3  A    between atoms: C_3  and  C_4
REMARK    4  A    between atoms: C_4  and  C_5
REMARK    5  A    between atoms: C_5  and  C_7
REMARK    6  A    between atoms: C_5  and  C_9
REMARK    7  A    between atoms: C_7  and  C_8
REMARK    8  A    between atoms: C_9  and  N_10
REMARK    9  A    between atoms: C_11  and  C_13
REMARK   10  A    between atoms: C_18  and  N_19
REMARK   11  A    between atoms: C_22  and  C_38
REMARK                            x       y       z     vdW  Elec       q    Type
REMARK                         _______ _______ _______ _____ _____    ______ ____
ROOT
ATOM      1  N   UNL     1       6.268   1.069   2.321  0.00  0.00    -0.191 N 
ATOM      2  C   UNL     1       5.348   0.321   1.672  0.00  0.00    +0.257 C 
ATOM      3  O   UNL     1       4.864  -0.728   2.040  0.00  0.00    -0.272 OA
ATOM      4  C   UNL     1       5.052   1.066   0.393  0.00  0.00    +0.153 C 
ATOM      5  C   UNL     1       3.582   1.385   0.264  0.00  0.00    +0.053 A 
ATOM      6  C   UNL     1       3.115   2.641   0.081  0.00  0.00    -0.015 A 
ATOM      7  C   UNL     1       1.671   2.533  -0.034  0.00  0.00    +0.003 A 
ATOM      8  C   UNL     1       0.667   3.485  -0.240  0.00  0.00    +0.010 A 
ATOM      9  C   UNL     1      -0.624   3.021  -0.295  0.00  0.00    +0.001 A 
ATOM     10  C   UNL     1      -0.930   1.677  -0.160  0.00  0.00    +0.002 A 
ATOM     11  C   UNL     1       0.043   0.715   0.048  0.00  0.00    +0.026 A 
ATOM     12  C   UNL     1       1.364   1.156   0.108  0.00  0.00    +0.047 A 
ATOM     13  N   UNL     1       2.543   0.494   0.290  0.00  0.00    -0.356 N 
ATOM     14  H   UNL     1       2.632  -0.463   0.418  0.00  0.00    +0.166 HD
ATOM     15  C   UNL     1       3.940   3.901   0.015  0.00  0.00    +0.056 C 
ATOM     16  C   UNL     1       5.423   3.556  -0.191  0.00  0.00    +0.115 C 
ATOM     17  N   UNL     1       5.721   2.372   0.615  0.00  0.00    -0.265 N 
ATOM     18  C   UNL     1       6.531   2.209   1.661  0.00  0.00    +0.317 C 
ATOM     19  O   UNL     1       7.402   2.995   1.978  0.00  0.00    -0.252 OA
ATOM     20  C   UNL     1       5.590   0.343  -0.844  0.00  0.00    +0.048 C 
ENDROOT
BRANCH   1  26
ATOM     21  C   UNL     1       6.290   1.081   4.746  0.00  0.00    +0.059 A 
ATOM     22  C   UNL     1       6.899   0.705   5.946  0.00  0.00    +0.015 A 
ATOM     23  C   UNL     1       8.068  -0.025   5.924  0.00  0.00    +0.001 A 
ATOM     24  C   UNL     1       8.640  -0.393   4.717  0.00  0.00    +0.002 A 
ATOM     25  C   UNL     1       8.046  -0.032   3.524  0.00  0.00    +0.025 A 
ATOM     26  C   UNL     1       6.869   0.703   3.527  0.00  0.00    +0.058 A 
BRANCH  21  28
ATOM     27  N   UNL     1       4.489   2.230   5.937  0.00  0.00    -0.311 N 
ATOM     28  C   UNL     1       5.042   1.868   4.762  0.00  0.00    +0.246 C 
ATOM     29  O   UNL     1       4.512   2.190   3.716  0.00  0.00    -0.270 OA
ATOM     30  H   UNL     1       4.911   1.973   6.771  0.00  0.00    +0.149 HD
BRANCH  27  31
ATOM     31  C   UNL     1       3.249   3.011   5.953  0.00  0.00    +0.108 C 
BRANCH  31  32
ATOM     32  C   UNL     1       2.838   3.286   7.401  0.00  0.00    +0.006 C 
BRANCH  32  33
ATOM     33  C   UNL     1       3.888   4.178   8.068  0.00  0.00    +0.002 C 
ATOM     34  C   UNL     1       3.922   5.537   7.367  0.00  0.00    +0.004 C 
ENDBRANCH  32  33
BRANCH  32  35
ATOM     35  C   UNL     1       1.482   3.993   7.421  0.00  0.00    +0.005 C 
BRANCH  35  36
ATOM     36  C   UNL     1       1.013   4.157   8.868  0.00  0.00    +0.000 C 
BRANCH  36  38
ATOM     37  C   UNL     1      -0.867   4.910  10.331  0.00  0.00    +0.004 C 
ATOM     38  C   UNL     1      -0.399   4.746   8.883  0.00  0.00    -0.003 C 
ENDBRANCH  36  38
ENDBRANCH  35  36
ENDBRANCH  32  35
ENDBRANCH  31  32
ENDBRANCH  27  31
ENDBRANCH  21  28
ENDBRANCH   1  26
TORSDOF 8
