REMARK  Name = ZINC67020731
REMARK  3 active torsions:
REMARK  status: ('A' for Active; 'I' for Inactive)
REMARK    1  A    between atoms: C_8  and  C_24
REMARK    2  A    between atoms: C_9  and  N_10
REMARK    3  A    between atoms: C_11  and  C_13
REMARK                            x       y       z     vdW  Elec       q    Type
REMARK                         _______ _______ _______ _____ _____    ______ ____
ROOT
ATOM      1  N   UNL     1       4.805  -0.543  -0.049  0.00  0.00    -0.266 N 
ATOM      2  C   UNL     1       5.208   0.739  -0.148  0.00  0.00    +0.253 C 
ATOM      3  O   UNL     1       4.388   1.637  -0.136  0.00  0.00    -0.270 OA
ATOM      4  H   UNL     1       5.462  -1.254   0.013  0.00  0.00    +0.157 HD
ENDROOT
BRANCH   2   5
ATOM      5  C   UNL     1       6.644   1.054  -0.273  0.00  0.00    +0.080 A 
ATOM      6  C   UNL     1       7.591   0.025  -0.294  0.00  0.00    +0.017 A 
ATOM      7  C   UNL     1       8.931   0.322  -0.411  0.00  0.00    +0.003 A 
ATOM      8  C   UNL     1       9.352   1.638  -0.509  0.00  0.00    +0.027 A 
ATOM      9  C   UNL     1       8.427   2.667  -0.489  0.00  0.00    +0.076 A 
ATOM     10  C   UNL     1       7.067   2.382  -0.377  0.00  0.00    +0.154 A 
ATOM     11  O   UNL     1       6.169   3.399  -0.361  0.00  0.00    -0.480 OA
ATOM     12  C   UNL     1       6.596   4.626   0.236  0.00  0.00    +0.325 C 
ATOM     13  C   UNL     1       7.970   4.984  -0.270  0.00  0.00    +0.255 C 
ATOM     14  O   UNL     1       8.294   6.148  -0.381  0.00  0.00    -0.272 OA
ATOM     15  N   UNL     1       8.840   4.004  -0.588  0.00  0.00    -0.280 N 
ATOM     16  H   UNL     1       9.735   4.222  -0.892  0.00  0.00    +0.155 HD
ENDBRANCH   2   5
BRANCH   1  25
ATOM     17  C   UNL     1       0.386  -0.322   2.649  0.00  0.00    +0.005 A 
ATOM     18  C   UNL     1       1.656   0.141   3.032  0.00  0.00    +0.018 A 
ATOM     19  C   UNL     1       2.710   0.003   2.202  0.00  0.00    +0.094 A 
ATOM     20  N   UNL     1       2.560  -0.588   0.977  0.00  0.00    -0.287 N 
ATOM     21  C   UNL     1       1.329  -1.051   0.575  0.00  0.00    +0.140 A 
ATOM     22  C   UNL     1       0.220  -0.912   1.435  0.00  0.00    +0.047 A 
ATOM     23  N   UNL     1       1.450  -1.574  -0.636  0.00  0.00    -0.225 NA
ATOM     24  C   UNL     1       2.728  -1.467  -1.041  0.00  0.00    +0.118 A 
ATOM     25  C   UNL     1       3.444  -0.847  -0.035  0.00  0.00    +0.138 A 
BRANCH  24  26
ATOM     26  C   UNL     1       3.271  -1.932  -2.334  0.00  0.00    +0.041 A 
ATOM     27  C   UNL     1       2.917  -3.029  -3.074  0.00  0.00    +0.018 A 
ATOM     28  C   UNL     1       3.571  -3.263  -4.265  0.00  0.00    +0.008 A 
ATOM     29  C   UNL     1       4.542  -2.404  -4.665  0.00  0.00    +0.046 A 
ATOM     30  S   UNL     1       4.553  -1.207  -3.341  0.00  0.00    -0.095 S 
ENDBRANCH  24  26
ENDBRANCH   1  25
TORSDOF 3
