REMARK  Name = ZINC63372142
REMARK  7 active torsions:
REMARK  status: ('A' for Active; 'I' for Inactive)
REMARK    1  A    between atoms: C_1  and  C_2
REMARK    2  A    between atoms: C_2  and  C_3
REMARK    3  A    between atoms: C_2  and  C_4
REMARK    4  A    between atoms: C_4  and  C_5
REMARK    5  A    between atoms: C_5  and  N_6
REMARK    6  A    between atoms: C_12  and  C_28
REMARK    7  A    between atoms: C_24  and  C_27
REMARK                            x       y       z     vdW  Elec       q    Type
REMARK                         _______ _______ _______ _____ _____    ______ ____
ROOT
ATOM      1  N   UNL     1       0.746  -0.096   3.759  0.00  0.00    -0.291 N 
ATOM      2  C   UNL     1       0.393  -1.364   4.424  0.00  0.00    +0.203 C 
ATOM      3  C   UNL     1       1.670  -2.103   4.767  0.00  0.00    +0.234 C 
ATOM      4  O   UNL     1       1.780  -3.298   4.590  0.00  0.00    -0.274 OA
ATOM      5  N   UNL     1       2.698  -1.354   5.289  0.00  0.00    -0.283 N 
ATOM      6  C   UNL     1       3.989  -2.007   5.422  0.00  0.00    +0.121 C 
ATOM      7  C   UNL     1       4.958  -1.256   6.339  0.00  0.00    +0.065 C 
ATOM      8  C   UNL     1       4.776   0.209   6.031  0.00  0.00    -0.027 C 
ATOM      9  C   UNL     1       5.602   1.145   5.588  0.00  0.00    -0.000 A 
ATOM     10  C   UNL     1       7.054   1.142   5.347  0.00  0.00    +0.010 A 
ATOM     11  C   UNL     1       7.583   2.295   4.857  0.00  0.00    +0.001 A 
ATOM     12  C   UNL     1       6.822   3.436   4.586  0.00  0.00    +0.002 A 
ATOM     13  C   UNL     1       5.484   3.532   4.790  0.00  0.00    +0.026 A 
ATOM     14  C   UNL     1       4.816   2.387   5.313  0.00  0.00    +0.043 A 
ATOM     15  N   UNL     1       3.566   2.215   5.629  0.00  0.00    -0.375 N 
ATOM     16  C   UNL     1       3.421   0.877   6.202  0.00  0.00    +0.139 C 
ATOM     17  C   UNL     1       2.364   0.032   5.566  0.00  0.00    +0.135 C 
ATOM     18  C   UNL     1       1.737   0.645   4.341  0.00  0.00    +0.242 C 
ATOM     19  O   UNL     1       2.084   1.722   3.904  0.00  0.00    -0.273 OA
ATOM     20  C   UNL     1       1.224  -0.028   6.585  0.00  0.00    +0.044 C 
ATOM     21  H   UNL     1       2.853   2.861   5.506  0.00  0.00    +0.160 HD
ENDROOT
BRANCH   7  22
ATOM     22  C   UNL     1       4.624  -1.530   7.783  0.00  0.00    -0.039 A 
ATOM     23  C   UNL     1       3.346  -1.924   8.133  0.00  0.00    +0.005 A 
ATOM     24  C   UNL     1       3.040  -2.176   9.457  0.00  0.00    +0.015 A 
ATOM     25  C   UNL     1       4.012  -2.035  10.431  0.00  0.00    +0.018 A 
ATOM     26  C   UNL     1       5.291  -1.641  10.080  0.00  0.00    +0.015 A 
ATOM     27  C   UNL     1       5.598  -1.394   8.755  0.00  0.00    +0.005 A 
ATOM     28 BR   UNL     1       3.593  -2.379  12.243  0.00  0.00    -0.050 Br
ENDBRANCH   7  22
BRANCH   1  29
ATOM     29  C   UNL     1       0.074   0.344   2.534  0.00  0.00    +0.108 C 
BRANCH  29  30
ATOM     30  C   UNL     1       0.825  -0.200   1.317  0.00  0.00    +0.022 C 
BRANCH  30  32
ATOM     31  C   UNL     1       0.215   1.783  -0.076  0.00  0.00    +0.007 C 
ATOM     32  C   UNL     1       0.122   0.260   0.037  0.00  0.00    -0.016 C 
ATOM     33  C   UNL     1       0.798  -0.384  -1.175  0.00  0.00    +0.007 C 
ENDBRANCH  30  32
ENDBRANCH  29  30
ENDBRANCH   1  29
TORSDOF 4
