REMARK  Name = ZINC49871940
REMARK  7 active torsions:
REMARK  status: ('A' for Active; 'I' for Inactive)
REMARK    1  A    between atoms: C_1  and  C_2
REMARK    2  A    between atoms: C_5  and  N_8
REMARK    3  A    between atoms: C_11  and  C_12
REMARK    4  A    between atoms: C_12  and  C_13
REMARK    5  A    between atoms: C_12  and  N_14
REMARK    6  A    between atoms: N_14  and  C_15
REMARK    7  A    between atoms: C_16  and  C_17
REMARK                            x       y       z     vdW  Elec       q    Type
REMARK                         _______ _______ _______ _____ _____    ______ ____
ROOT
ATOM      1  N   UNL     1       0.059  -4.172  -0.021  0.00  0.00    -0.229 N 
ATOM      2  C   UNL     1       0.170  -4.846   1.141  0.00  0.00    +0.270 A 
ATOM      3  O   UNL     1       0.254  -4.240   2.196  0.00  0.00    -0.267 OA
ATOM      4  C   UNL     1       0.188  -6.251   1.128  0.00  0.00    +0.100 A 
ATOM      5  C   UNL     1       0.091  -6.904  -0.065  0.00  0.00    +0.263 A 
ATOM      6  N   UNL     1      -0.021  -6.179  -1.224  0.00  0.00    -0.274 N 
ATOM      7  C   UNL     1      -0.041  -4.834  -1.188  0.00  0.00    +0.337 A 
ATOM      8  O   UNL     1      -0.145  -4.209  -2.225  0.00  0.00    -0.246 OA
ATOM      9  O   UNL     1       0.106  -8.254  -0.105  0.00  0.00    -0.267 OA
ATOM     10  H   UNL     1      -0.089  -6.639  -2.075  0.00  0.00    +0.173 HD
ENDROOT
BRANCH   1  15
ATOM     11  C   UNL     1      -0.016   1.503   0.012  0.00  0.00    +0.044 C 
ATOM     12  C   UNL     1       0.004  -0.004   0.003  0.00  0.00    -0.050 A 
ATOM     13  C   UNL     1      -1.181  -0.710   0.107  0.00  0.00    +0.005 A 
ATOM     14  C   UNL     1      -1.166  -2.091   0.099  0.00  0.00    +0.026 A 
ATOM     15  C   UNL     1       0.040  -2.771  -0.013  0.00  0.00    +0.054 A 
ATOM     16  C   UNL     1       1.228  -2.059  -0.117  0.00  0.00    +0.026 A 
ATOM     17  C   UNL     1       1.206  -0.678  -0.114  0.00  0.00    +0.005 A 
ENDBRANCH   1  15
BRANCH   4  18
ATOM     18  C   UNL     1       0.311  -7.025   2.415  0.00  0.00    +0.091 C 
ATOM     19  C   UNL     1       1.675  -6.747   3.049  0.00  0.00    +0.031 C 
BRANCH  18  20
ATOM     20  N   UNL     1      -0.752  -6.611   3.340  0.00  0.00    -0.405 NA
ATOM     21  H   UNL     1      -0.617  -5.644   3.596  0.00  0.00    +0.123 HD
ATOM     22  H   UNL     1      -1.649  -6.717   2.891  0.00  0.00    +0.123 HD
BRANCH  20  23
ATOM     23  C   UNL     1      -0.709  -7.407   4.488  0.00  0.00    +0.050 C 
ATOM     24  C   UNL     1      -0.611  -6.841   5.686  0.00  0.00    +0.016 C 
BRANCH  24  25
ATOM     25  C   UNL     1      -0.565  -7.679   6.894  0.00  0.00    -0.050 C 
ATOM     26  C   UNL     1      -0.474  -7.080   8.060  0.00  0.00    -0.023 C 
ATOM     27  C   UNL     1      -0.409  -7.808   9.371  0.00  0.00    +0.027 C 
ATOM     28  C   UNL     1      -0.884  -9.252   9.195  0.00  0.00    +0.004 C 
ATOM     29  C   UNL     1      -0.146  -9.865   7.999  0.00  0.00    +0.005 C 
ATOM     30  C   UNL     1      -0.631  -9.169   6.724  0.00  0.00    +0.035 C 
ENDBRANCH  24  25
ENDBRANCH  20  23
ENDBRANCH  18  20
ENDBRANCH   4  18
TORSDOF 5
