REMARK  Name = ZINC20764909
REMARK  6 active torsions:
REMARK  status: ('A' for Active; 'I' for Inactive)
REMARK    1  A    between atoms: C_1  and  C_2
REMARK    2  A    between atoms: C_5  and  C_8
REMARK    3  A    between atoms: C_10  and  C_24
REMARK    4  A    between atoms: C_13  and  C_16
REMARK    5  A    between atoms: C_21  and  O_22
REMARK    6  A    between atoms: C_28  and  N_30
REMARK                            x       y       z     vdW  Elec       q    Type
REMARK                         _______ _______ _______ _____ _____    ______ ____
ROOT
ATOM      1  C   UNL     1      -3.096   3.008   1.513  0.00  0.00    +0.040 C 
ATOM      2  N   UNL     1      -3.956   2.731   0.607  0.00  0.00    -0.299 NA
ATOM      3  C   UNL     1      -3.659   1.967  -0.598  0.00  0.00    +0.081 C 
ATOM      4  N   UNL     1      -2.406   1.218  -0.440  0.00  0.00    +0.401 N 
ATOM      5  C   UNL     1      -1.332   2.114   0.020  0.00  0.00    -0.028 C 
ATOM      6  C   UNL     1      -1.661   2.564   1.447  0.00  0.00    +0.044 C 
ATOM      7  H   UNL     1      -2.549   0.417   0.300  0.00  0.00    -0.081 HD
ATOM      8  H   UNL     1      -2.119   0.777  -1.406  0.00  0.00    -0.081 HD
ENDROOT
BRANCH   1  13
ATOM      9  C   UNL     1      -4.799   6.095   6.059  0.00  0.00    +0.044 C 
ATOM     10  C   UNL     1      -4.353   5.287   4.868  0.00  0.00    -0.050 A 
ATOM     11  C   UNL     1      -5.259   4.971   3.871  0.00  0.00    +0.004 A 
ATOM     12  C   UNL     1      -4.857   4.232   2.778  0.00  0.00    +0.010 A 
ATOM     13  C   UNL     1      -3.533   3.800   2.680  0.00  0.00    -0.004 A 
ATOM     14  C   UNL     1      -2.625   4.117   3.692  0.00  0.00    +0.010 A 
ATOM     15  C   UNL     1      -3.039   4.863   4.777  0.00  0.00    +0.004 A 
ENDBRANCH   1  13
BRANCH   5  16
ATOM     16  C   UNL     1      -0.017   1.377   0.010  0.00  0.00    -0.018 A 
ATOM     17  C   UNL     1       0.002  -0.004   0.002  0.00  0.00    +0.020 A 
ATOM     18  C   UNL     1       1.209  -0.680  -0.013  0.00  0.00    +0.018 A 
ATOM     19  C   UNL     1       2.399   0.025  -0.021  0.00  0.00    +0.019 A 
ATOM     20  C   UNL     1       2.385   1.406  -0.013  0.00  0.00    +0.047 A 
ATOM     21  C   UNL     1       1.176   2.086   0.002  0.00  0.00    +0.119 A 
ATOM     22 BR   UNL     1       1.231  -2.571  -0.024  0.00  0.00    -0.050 Br
BRANCH  21  23
ATOM     23  O   UNL     1       1.159   3.445   0.009  0.00  0.00    -0.507 OA
ATOM     24  H   UNL     1       2.105   4.007   0.003  0.00  0.00    +0.292 HD
ENDBRANCH  21  23
ENDBRANCH   5  16
BRANCH   3  25
ATOM     25  C   UNL     1      -4.785   1.002  -0.865  0.00  0.00    -0.038 A 
ATOM     26  C   UNL     1      -4.534  -0.188  -1.522  0.00  0.00    +0.005 A 
ATOM     27  C   UNL     1      -5.566  -1.073  -1.767  0.00  0.00    +0.022 A 
ATOM     28  C   UNL     1      -6.851  -0.768  -1.355  0.00  0.00    +0.071 A 
ATOM     29  C   UNL     1      -7.102   0.423  -0.697  0.00  0.00    +0.145 A 
ATOM     30  C   UNL     1      -6.067   1.305  -0.448  0.00  0.00    +0.038 A 
ATOM     31 CL   UNL     1      -8.149  -1.880  -1.663  0.00  0.00    -0.081 Cl
BRANCH  29  32
ATOM     32  N   UNL     1      -8.476   0.750  -0.255  0.00  0.00    +0.058 N 
ATOM     33  O   UNL     1      -8.697   1.798   0.324  0.00  0.00    -0.126 OA
ATOM     34  O   UNL     1      -9.386  -0.030  -0.470  0.00  0.00    -0.126 OA
ENDBRANCH  29  32
ENDBRANCH   3  25
TORSDOF 5
