REMARK  Name = ZINC06442596
REMARK  8 active torsions:
REMARK  status: ('A' for Active; 'I' for Inactive)
REMARK    1  A    between atoms: C_1  and  C_2
REMARK    2  A    between atoms: C_7  and  C_15
REMARK    3  A    between atoms: C_13  and  C_14
REMARK    4  A    between atoms: C_15  and  C_17
REMARK    5  A    between atoms: C_15  and  N_63
REMARK    6  A    between atoms: N_21  and  C_22
REMARK    7  A    between atoms: C_22  and  C_23
REMARK    8  A    between atoms: C_32  and  C_35
REMARK                            x       y       z     vdW  Elec       q    Type
REMARK                         _______ _______ _______ _____ _____    ______ ____
ROOT
ATOM      1  C   UNL     1      -0.018   1.503   0.010  0.00  0.00    +0.039 C 
ENDROOT
BRANCH   1   8
ATOM      2  C   UNL     1       1.194  -6.376  -0.272  0.00  0.00    +0.044 C 
ATOM      3  C   UNL     1       1.195  -4.869  -0.254  0.00  0.00    -0.046 A 
ATOM      4  C   UNL     1       2.388  -4.181  -0.432  0.00  0.00    +0.004 A 
ATOM      5  C   UNL     1       2.410  -2.815  -0.419  0.00  0.00    +0.010 A 
ATOM      6  C   UNL     1       1.222  -2.103  -0.226  0.00  0.00    -0.001 A 
ATOM      7  C   UNL     1       1.210  -0.639  -0.207  0.00  0.00    +0.017 A 
ATOM      8  C   UNL     1       0.028  -0.003  -0.015  0.00  0.00    +0.011 A 
ATOM      9  C   UNL     1      -1.157  -0.747   0.167  0.00  0.00    +0.251 A 
ATOM     10  O   UNL     1      -2.208  -0.155   0.342  0.00  0.00    -0.268 OA
ATOM     11  N   UNL     1      -1.158  -2.091   0.145  0.00  0.00    -0.322 N 
ATOM     12  H   UNL     1      -1.992  -2.571   0.269  0.00  0.00    +0.169 HD
ATOM     13  C   UNL     1       0.011  -2.797  -0.046  0.00  0.00    +0.052 A 
ATOM     14  C   UNL     1       0.012  -4.188  -0.063  0.00  0.00    -0.024 A 
ATOM     15  C   UNL     1      -1.276  -4.948   0.127  0.00  0.00    +0.046 C 
ENDBRANCH   1   8
BRANCH   1  22
ATOM     16  C   UNL     1      -0.618   1.597  -2.333  0.00  0.00    -0.077 C 
ATOM     17  C   UNL     1      -1.734   1.980  -3.307  0.00  0.00    -0.018 C 
ATOM     18  C   UNL     1      -1.978   3.490  -3.229  0.00  0.00    -0.001 C 
ATOM     19  C   UNL     1      -2.332   3.867  -1.788  0.00  0.00    -0.031 C 
ATOM     20  C   UNL     1      -1.198   3.430  -0.858  0.00  0.00    -0.074 C 
ATOM     21  C   UNL     1      -2.519   5.382  -1.688  0.00  0.00    +0.005 C 
ATOM     22  N   UNL     1      -1.030   1.965  -0.962  0.00  0.00    +0.389 N 
ATOM     23  H   UNL     1      -1.927   1.511  -0.751  0.00  0.00    -0.080 HD
ENDBRANCH   1  22
BRANCH   1  24
ATOM     24  C   UNL     1      -0.412   1.970   1.388  0.00  0.00    +0.143 A 
ATOM     25  N   UNL     1      -1.613   1.933   1.913  0.00  0.00    -0.115 NA
ATOM     26  N   UNL     1      -1.541   2.419   3.104  0.00  0.00    -0.023 NA
ATOM     27  N   UNL     1      -0.328   2.772   3.349  0.00  0.00    -0.044 NA
ATOM     28  N   UNL     1       0.399   2.512   2.315  0.00  0.00    -0.226 N 
BRANCH  28  29
ATOM     29  C   UNL     1       1.836   2.759   2.177  0.00  0.00    +0.182 C 
BRANCH  29  30
ATOM     30  C   UNL     1       2.057   4.138   1.611  0.00  0.00    -0.026 A 
ATOM     31  C   UNL     1       2.134   4.319   0.243  0.00  0.00    +0.005 A 
ATOM     32  C   UNL     1       2.332   5.585  -0.276  0.00  0.00    +0.000 A 
ATOM     33  C   UNL     1       2.462   6.668   0.574  0.00  0.00    +0.000 A 
ATOM     34  C   UNL     1       2.390   6.486   1.942  0.00  0.00    +0.000 A 
ATOM     35  C   UNL     1       2.187   5.221   2.461  0.00  0.00    +0.005 A 
ENDBRANCH  29  30
ENDBRANCH  28  29
ENDBRANCH   1  24
TORSDOF 5
