REMARK  Name = ZINC40247714
REMARK  4 active torsions:
REMARK  status: ('A' for Active; 'I' for Inactive)
REMARK    1  A    between atoms: C_1  and  C_2
REMARK    2  A    between atoms: C_6  and  C_8
REMARK    3  A    between atoms: C_8  and  C_10
REMARK    4  A    between atoms: C_8  and  O_22
REMARK                            x       y       z     vdW  Elec       q    Type
REMARK                         _______ _______ _______ _____ _____    ______ ____
ROOT
ATOM      1  C   UNL     1       1.476  -3.187   2.852  0.00  0.00    -0.013 A 
ATOM      2  C   UNL     1       2.102  -4.263   2.248  0.00  0.00    +0.008 A 
ATOM      3  C   UNL     1       3.405  -4.584   2.574  0.00  0.00    +0.028 A 
ATOM      4  C   UNL     1       4.088  -3.825   3.513  0.00  0.00    +0.067 A 
ATOM      5  C   UNL     1       3.456  -2.740   4.122  0.00  0.00    +0.067 A 
ATOM      6  C   UNL     1       2.150  -2.422   3.784  0.00  0.00    +0.034 A 
ATOM      7  N   UNL     1       4.379  -2.180   5.004  0.00  0.00    -0.306 N 
ATOM      8  H   UNL     1       4.226  -1.409   5.572  0.00  0.00    +0.170 HD
ATOM      9  C   UNL     1       5.519  -2.893   4.933  0.00  0.00    +0.325 A 
ATOM     10  O   UNL     1       6.527  -2.668   5.577  0.00  0.00    -0.247 OA
ATOM     11  N   UNL     1       5.375  -3.892   4.042  0.00  0.00    -0.306 N 
ATOM     12  H   UNL     1       6.052  -4.546   3.808  0.00  0.00    +0.170 HD
ENDROOT
BRANCH   1  13
ATOM     13  C   UNL     1       0.054  -2.845   2.489  0.00  0.00    +0.175 C 
BRANCH  13  19
ATOM     14  C   UNL     1      -0.018   1.503   0.010  0.00  0.00    +0.044 C 
ATOM     15  C   UNL     1       0.002  -0.004   0.002  0.00  0.00    -0.050 A 
ATOM     16  C   UNL     1       0.006  -0.689  -1.199  0.00  0.00    +0.003 A 
ATOM     17  C   UNL     1       0.025  -2.071  -1.207  0.00  0.00    +0.001 A 
ATOM     18  C   UNL     1       0.040  -2.768  -0.013  0.00  0.00    +0.006 A 
ATOM     19  C   UNL     1       0.037  -2.084   1.188  0.00  0.00    -0.015 A 
ATOM     20  C   UNL     1       0.023  -0.702   1.195  0.00  0.00    +0.010 A 
ENDBRANCH  13  19
BRANCH  13  21
ATOM     21  O   UNL     1      -0.704  -4.048   2.346  0.00  0.00    -0.383 OA
ATOM     22  H   UNL     1      -0.370  -4.644   1.663  0.00  0.00    +0.211 HD
ENDBRANCH  13  21
ENDBRANCH   1  13
TORSDOF 3
