REMARK  Name = ZINC09043881
REMARK  9 active torsions:
REMARK  status: ('A' for Active; 'I' for Inactive)
REMARK    1  A    between atoms: C_1  and  C_2
REMARK    2  A    between atoms: C_4  and  C_36
REMARK    3  A    between atoms: C_12  and  C_26
REMARK    4  A    between atoms: C_14  and  C_19
REMARK    5  A    between atoms: C_19  and  C_21
REMARK    6  A    between atoms: C_28  and  O_34
REMARK    7  A    between atoms: C_31  and  O_32
REMARK    8  A    between atoms: O_32  and  C_33
REMARK    9  A    between atoms: O_34  and  C_35
REMARK                            x       y       z     vdW  Elec       q    Type
REMARK                         _______ _______ _______ _____ _____    ______ ____
ROOT
ATOM      1  C   UNL     1       1.864  -0.219  -0.708  0.00  0.00    +0.044 C 
ATOM      2  C   UNL     1       1.549   1.253  -0.623  0.00  0.00    -0.049 A 
ATOM      3  C   UNL     1       0.236   1.681  -0.485  0.00  0.00    +0.009 A 
ATOM      4  C   UNL     1      -0.077   3.012  -0.399  0.00  0.00    -0.024 A 
ATOM      5  C   UNL     1       0.935   3.998  -0.462  0.00  0.00    +0.083 A 
ATOM      6  C   UNL     1       2.259   3.525  -0.609  0.00  0.00    +0.041 A 
ATOM      7  C   UNL     1       2.564   2.189  -0.688  0.00  0.00    +0.020 A 
ATOM      8  S   UNL     1       3.198   5.033  -0.645  0.00  0.00    -0.052 S 
ATOM      9  C   UNL     1       1.821   6.159  -0.469  0.00  0.00    +0.169 A 
ATOM     10  N   UNL     1       0.797   5.340  -0.399  0.00  0.00    -0.224 NA
ATOM     11  N   UNL     1       1.831   7.542  -0.419  0.00  0.00    -0.232 N 
ATOM     12  C   UNL     1       3.019   8.400  -0.498  0.00  0.00    +0.155 C 
ATOM     13  C   UNL     1       2.517   9.822  -0.403  0.00  0.00    +0.077 C 
ATOM     14  C   UNL     1       1.172   9.753  -0.273  0.00  0.00    +0.250 C 
ATOM     15  C   UNL     1       0.755   8.338  -0.284  0.00  0.00    +0.293 C 
ATOM     16  O   UNL     1      -0.392   7.948  -0.187  0.00  0.00    -0.266 OA
ATOM     17  O   UNL     1       0.340  10.814  -0.153  0.00  0.00    -0.282 OA
ATOM     18  C   UNL     1      -1.516   3.431  -0.243  0.00  0.00    +0.046 C 
ENDROOT
BRANCH  12  19
ATOM     19  C   UNL     1       3.725   8.190  -1.812  0.00  0.00    +0.023 A 
ATOM     20  C   UNL     1       3.304   8.870  -2.939  0.00  0.00    +0.055 A 
ATOM     21  C   UNL     1       3.954   8.677  -4.149  0.00  0.00    +0.121 A 
ATOM     22  C   UNL     1       5.026   7.800  -4.228  0.00  0.00    +0.049 A 
ATOM     23  C   UNL     1       5.447   7.121  -3.102  0.00  0.00    +0.049 A 
ATOM     24  C   UNL     1       4.800   7.317  -1.891  0.00  0.00    +0.126 A 
BRANCH  24  25
ATOM     25  O   UNL     1       5.218   6.652  -0.781  0.00  0.00    -0.495 OA
ATOM     26  C   UNL     1       6.336   5.776  -0.932  0.00  0.00    +0.277 C 
ENDBRANCH  24  25
BRANCH  21  27
ATOM     27  O   UNL     1       3.540   9.346  -5.258  0.00  0.00    -0.495 OA
ATOM     28  C   UNL     1       4.255   9.099  -6.470  0.00  0.00    +0.277 C 
ENDBRANCH  21  27
ENDBRANCH  12  19
BRANCH  13  29
ATOM     29  C   UNL     1       3.332  11.042  -0.438  0.00  0.00    +0.202 C 
ATOM     30  O   UNL     1       2.792  12.135  -0.461  0.00  0.00    -0.286 OA
BRANCH  29  31
ATOM     31  C   UNL     1       4.794  10.947  -0.444  0.00  0.00    +0.059 A 
ATOM     32  C   UNL     1       5.736  11.954  -0.614  0.00  0.00    +0.019 A 
ATOM     33  C   UNL     1       7.056  11.586  -0.572  0.00  0.00    +0.008 A 
ATOM     34  C   UNL     1       7.375  10.277  -0.381  0.00  0.00    +0.046 A 
ATOM     35  S   UNL     1       5.828   9.508  -0.244  0.00  0.00    -0.093 S 
ENDBRANCH  29  31
ENDBRANCH  13  29
TORSDOF 5
