REMARK  Name = ZINC18222425
REMARK  4 active torsions:
REMARK  status: ('A' for Active; 'I' for Inactive)
REMARK    1  A    between atoms: C_1  and  O_2
REMARK    2  A    between atoms: O_2  and  C_3
REMARK    3  A    between atoms: C_6  and  C_9
REMARK    4  A    between atoms: C_14  and  C_22
REMARK                            x       y       z     vdW  Elec       q    Type
REMARK                         _______ _______ _______ _____ _____    ______ ____
ROOT
ATOM      1  C   UNL     1       2.505  -2.503  -4.381  0.00  0.00    +0.032 C 
ATOM      2  C   UNL     1       3.655  -3.382  -3.886  0.00  0.00    +0.060 C 
ATOM      3  C   UNL     1       4.299  -4.082  -5.059  0.00  0.00    +0.020 C 
ATOM      4  C   UNL     1       3.574  -4.428  -6.144  0.00  0.00    +0.041 C 
ATOM      5  C   UNL     1       4.187  -5.145  -7.327  0.00  0.00    +0.176 C 
ATOM      6  N   UNL     1       5.641  -5.077  -7.252  0.00  0.00    -0.221 N 
ATOM      7  C   UNL     1       6.313  -4.702  -6.136  0.00  0.00    +0.218 A 
ATOM      8  N   UNL     1       7.590  -4.753  -6.398  0.00  0.00    -0.201 NA
ATOM      9  C   UNL     1       7.771  -5.149  -7.662  0.00  0.00    +0.247 A 
ATOM     10  N   UNL     1       6.604  -5.356  -8.220  0.00  0.00    -0.156 NA
ATOM     11  N   UNL     1       5.646  -4.342  -4.976  0.00  0.00    -0.287 N 
ATOM     12  C   UNL     1       2.202  -4.127  -6.220  0.00  0.00    +0.164 C 
ATOM     13  O   UNL     1       1.572  -4.466  -7.202  0.00  0.00    -0.292 OA
ATOM     14  C   UNL     1       1.496  -3.396  -5.112  0.00  0.00    +0.088 C 
ATOM     15  H   UNL     1       6.116  -4.276  -4.130  0.00  0.00    +0.155 HD
ENDROOT
BRANCH   5  16
ATOM     16  C   UNL     1       3.755  -6.589  -7.316  0.00  0.00    -0.013 A 
ATOM     17  C   UNL     1       4.062  -7.393  -6.234  0.00  0.00    +0.044 A 
ATOM     18  C   UNL     1       3.666  -8.720  -6.223  0.00  0.00    +0.126 A 
ATOM     19  C   UNL     1       2.962  -9.241  -7.295  0.00  0.00    +0.076 A 
ATOM     20  C   UNL     1       2.655  -8.434  -8.377  0.00  0.00    +0.126 A 
ATOM     21  C   UNL     1       3.047  -7.106  -8.384  0.00  0.00    +0.044 A 
ATOM     22  F   UNL     1       1.968  -8.941  -9.424  0.00  0.00    -0.205 F 
ATOM     23  F   UNL     1       3.966  -9.506  -5.166  0.00  0.00    -0.205 F 
ENDBRANCH   5  16
BRANCH   1  27
ATOM     24  C   UNL     1       0.606  -0.607  -1.056  0.00  0.00    +0.120 A 
ATOM     25  C   UNL     1       1.173   0.161  -2.062  0.00  0.00    +0.046 A 
ATOM     26  C   UNL     1       1.786  -0.455  -3.136  0.00  0.00    +0.007 A 
ATOM     27  C   UNL     1       1.835  -1.835  -3.209  0.00  0.00    -0.043 A 
ATOM     28  C   UNL     1       1.270  -2.602  -2.207  0.00  0.00    +0.007 A 
ATOM     29  C   UNL     1       0.661  -1.992  -1.128  0.00  0.00    +0.046 A 
BRANCH  24  31
ATOM     30  C   UNL     1      -0.017   1.425   0.010  0.00  0.00    +0.277 C 
ATOM     31  O   UNL     1       0.002  -0.004   0.002  0.00  0.00    -0.495 OA
ENDBRANCH  24  31
ENDBRANCH   1  27
TORSDOF 3
