REMARK  Name = ZINC34715820
REMARK  10 active torsions:
REMARK  status: ('A' for Active; 'I' for Inactive)
REMARK    1  A    between atoms: C_1  and  C_2
REMARK    2  A    between atoms: C_2  and  O_3
REMARK    3  A    between atoms: O_3  and  C_4
REMARK    4  A    between atoms: C_4  and  C_6
REMARK    5  A    between atoms: C_13  and  C_15
REMARK    6  A    between atoms: C_18  and  C_29
REMARK    7  A    between atoms: N_25  and  C_26
REMARK    8  A    between atoms: C_26  and  C_27
REMARK    9  A    between atoms: C_26  and  C_28
REMARK   10  A    between atoms: C_33  and  C_35
REMARK                            x       y       z     vdW  Elec       q    Type
REMARK                         _______ _______ _______ _____ _____    ______ ____
ROOT
ATOM      1  C   UNL     1      -5.935  -6.073  -0.516  0.00  0.00    +0.093 C 
ATOM      2  C   UNL     1      -6.168  -7.136  -1.593  0.00  0.00    +0.024 C 
ATOM      3  C   UNL     1      -7.515  -7.822  -1.351  0.00  0.00    +0.037 C 
ATOM      4  C   UNL     1      -8.637  -6.783  -1.446  0.00  0.00    +0.117 C 
ATOM      5  N   UNL     1      -8.344  -5.684  -0.516  0.00  0.00    -0.284 N 
ATOM      6  C   UNL     1      -7.039  -5.014  -0.601  0.00  0.00    +0.122 C 
ATOM      7  C   UNL     1      -9.255  -5.298   0.399  0.00  0.00    +0.302 C 
ATOM      8  O   UNL     1      -9.039  -4.329   1.101  0.00  0.00    -0.253 OA
ATOM      9  N   UNL     1     -10.407  -5.984   0.534  0.00  0.00    -0.297 N 
ATOM     10  H   UNL     1     -10.613  -6.711  -0.074  0.00  0.00    +0.150 HD
ENDROOT
BRANCH   1  17
ATOM     11  C   UNL     1      -3.946  -4.760   2.671  0.00  0.00    +0.115 C 
ATOM     12  C   UNL     1      -2.583  -4.069   2.581  0.00  0.00    +0.018 C 
ATOM     13  C   UNL     1      -1.861  -4.524   1.311  0.00  0.00    +0.020 C 
ATOM     14  C   UNL     1      -2.689  -4.122   0.086  0.00  0.00    +0.108 C 
ATOM     15  N   UNL     1      -4.047  -4.662   0.235  0.00  0.00    -0.300 N 
ATOM     16  C   UNL     1      -4.798  -4.361   1.461  0.00  0.00    +0.122 C 
ATOM     17  C   UNL     1      -4.595  -5.420  -0.736  0.00  0.00    +0.220 C 
ATOM     18  O   UNL     1      -4.008  -5.577  -1.786  0.00  0.00    -0.275 OA
BRANCH  11  19
ATOM     19  C   UNL     1      -4.642  -4.335   3.938  0.00  0.00    +0.312 C 
ATOM     20  O   UNL     1      -5.710  -3.773   3.882  0.00  0.00    -0.250 OA
BRANCH  19  21
ATOM     21  O   UNL     1      -4.076  -4.582   5.130  0.00  0.00    -0.465 OA
BRANCH  21  23
ATOM     22  C   UNL     1      -3.996  -4.518   7.545  0.00  0.00    +0.048 C 
ATOM     23  C   UNL     1      -4.792  -4.153   6.290  0.00  0.00    +0.229 C 
ENDBRANCH  21  23
ENDBRANCH  19  21
ENDBRANCH  11  19
ENDBRANCH   1  17
BRANCH   3  24
ATOM     24  C   UNL     1      -7.728  -8.891  -2.392  0.00  0.00    -0.042 A 
ATOM     25  C   UNL     1      -7.755  -8.554  -3.732  0.00  0.00    +0.007 A 
ATOM     26  C   UNL     1      -7.950  -9.533  -4.687  0.00  0.00    +0.039 A 
ATOM     27  C   UNL     1      -8.119 -10.852  -4.301  0.00  0.00    +0.126 A 
ATOM     28  C   UNL     1      -8.092 -11.188  -2.958  0.00  0.00    -0.015 A 
ATOM     29  C   UNL     1      -7.891 -10.208  -2.005  0.00  0.00    +0.010 A 
ATOM     30  C   UNL     1      -8.276 -12.623  -2.537  0.00  0.00    +0.047 C 
ATOM     31  F   UNL     1      -8.311 -11.811  -5.234  0.00  0.00    -0.205 F 
ENDBRANCH   3  24
BRANCH   9  32
ATOM     32  C   UNL     1     -11.348  -5.633   1.601  0.00  0.00    +0.068 C 
ATOM     33  C   UNL     1     -12.759  -6.069   1.200  0.00  0.00    +0.027 C 
ATOM     34  C   UNL     1     -10.943  -6.344   2.893  0.00  0.00    +0.027 C 
ENDBRANCH   9  32
TORSDOF 6
