REMARK  Name = ZINC35887236
REMARK  6 active torsions:
REMARK  status: ('A' for Active; 'I' for Inactive)
REMARK    1  A    between atoms: C_4  and  S_7
REMARK    2  A    between atoms: S_7  and  N_10
REMARK    3  A    between atoms: C_12  and  C_27
REMARK    4  A    between atoms: C_14  and  C_17
REMARK    5  A    between atoms: C_21  and  C_23
REMARK    6  A    between atoms: C_27  and  N_28
REMARK                            x       y       z     vdW  Elec       q    Type
REMARK                         _______ _______ _______ _____ _____    ______ ____
ROOT
ATOM      1  N   UNL     1       4.388  -0.652   1.389  0.00  0.00    -0.176 NA
ATOM      2  C   UNL     1       5.254   0.083   2.321  0.00  0.00    +0.111 C 
ATOM      3  C   UNL     1       5.249  -0.688   3.657  0.00  0.00    -0.003 C 
ATOM      4  C   UNL     1       3.933  -1.506   3.581  0.00  0.00    +0.037 C 
ATOM      5  C   UNL     1       3.863  -1.847   2.073  0.00  0.00    +0.118 C 
ENDROOT
BRANCH   4   6
ATOM      6  C   UNL     1       4.024  -2.756   4.417  0.00  0.00    -0.042 A 
ATOM      7  C   UNL     1       4.998  -3.700   4.146  0.00  0.00    +0.004 A 
ATOM      8  C   UNL     1       5.082  -4.846   4.914  0.00  0.00    +0.001 A 
ATOM      9  C   UNL     1       4.192  -5.050   5.952  0.00  0.00    +0.012 A 
ATOM     10  C   UNL     1       3.219  -4.107   6.223  0.00  0.00    +0.055 A 
ATOM     11  C   UNL     1       3.138  -2.958   5.458  0.00  0.00    +0.016 A 
BRANCH  10  12
ATOM     12  C   UNL     1       2.248  -4.329   7.355  0.00  0.00    +0.417 C 
ATOM     13  F   UNL     1       2.530  -5.549   7.978  0.00  0.00    -0.166 F 
ATOM     14  F   UNL     1       2.371  -3.291   8.285  0.00  0.00    -0.166 F 
ATOM     15  F   UNL     1       0.943  -4.352   6.852  0.00  0.00    -0.166 F 
ENDBRANCH  10  12
ENDBRANCH   4   6
BRANCH   1  16
ATOM     16  S   UNL     1       4.050  -0.207  -0.170  0.00  0.00    +0.061 S 
ATOM     17  O   UNL     1       3.674  -1.392  -0.859  0.00  0.00    -0.153 OA
ATOM     18  O   UNL     1       5.127   0.615  -0.600  0.00  0.00    -0.153 OA
BRANCH  16  22
ATOM     19  C   UNL     1       0.378   2.437  -0.045  0.00  0.00    +0.000 A 
ATOM     20  C   UNL     1       1.637   2.998   0.061  0.00  0.00    +0.002 A 
ATOM     21  C   UNL     1       2.758   2.190   0.023  0.00  0.00    +0.028 A 
ATOM     22  C   UNL     1       2.620   0.822  -0.121  0.00  0.00    +0.105 A 
ATOM     23  C   UNL     1       1.361   0.262  -0.226  0.00  0.00    +0.028 A 
ATOM     24  C   UNL     1       0.240   1.069  -0.189  0.00  0.00    +0.002 A 
ENDBRANCH  16  22
ENDBRANCH   1  16
BRANCH   3  25
ATOM     25  C   UNL     1       5.221   0.280   4.842  0.00  0.00    -0.073 C 
BRANCH  25  26
ATOM     26  N   UNL     1       6.439   1.101   4.832  0.00  0.00    +0.383 N 
ATOM     27  C   UNL     1       7.608   0.250   5.102  0.00  0.00    -0.074 C 
ATOM     28  C   UNL     1       8.874   1.047   4.787  0.00  0.00    +0.017 C 
ATOM     29  C   UNL     1       8.824   2.381   5.485  0.00  0.00    -0.048 A 
ATOM     30  C   UNL     1       9.997   3.107   5.618  0.00  0.00    +0.004 A 
ATOM     31  C   UNL     1       9.989   4.335   6.249  0.00  0.00    +0.000 A 
ATOM     32  C   UNL     1       8.805   4.843   6.750  0.00  0.00    +0.000 A 
ATOM     33  C   UNL     1       7.636   4.120   6.619  0.00  0.00    +0.002 A 
ATOM     34  C   UNL     1       7.643   2.886   5.987  0.00  0.00    -0.061 A 
ATOM     35  C   UNL     1       6.346   2.128   5.873  0.00  0.00    -0.043 C 
ATOM     36  H   UNL     1       6.542   1.542   3.931  0.00  0.00    -0.081 HD
ENDBRANCH  25  26
ENDBRANCH   3  25
TORSDOF 6
