REMARK  Name = ZINC22739649
REMARK  11 active torsions:
REMARK  status: ('A' for Active; 'I' for Inactive)
REMARK    1  A    between atoms: C_1  and  C_2
REMARK    2  A    between atoms: C_2  and  C_3
REMARK    3  A    between atoms: C_3  and  N_4
REMARK    4  A    between atoms: C_7  and  C_9
REMARK    5  A    between atoms: C_10  and  C_21
REMARK    6  A    between atoms: C_12  and  C_14
REMARK    7  A    between atoms: N_17  and  C_20
REMARK    8  A    between atoms: C_18  and  C_19
REMARK    9  A    between atoms: N_27  and  C_29
REMARK   10  A    between atoms: C_29  and  C_30
REMARK   11  A    between atoms: C_33  and  C_36
REMARK                            x       y       z     vdW  Elec       q    Type
REMARK                         _______ _______ _______ _____ _____    ______ ____
ROOT
ATOM      1  N   UNL     1      -5.786  -3.509  -0.069  0.00  0.00    -0.246 N 
ATOM      2  C   UNL     1      -5.806  -2.147  -0.228  0.00  0.00    +0.160 A 
ATOM      3  C   UNL     1      -4.460  -1.740  -0.332  0.00  0.00    +0.054 A 
ATOM      4  C   UNL     1      -3.665  -2.901  -0.221  0.00  0.00    +0.070 A 
ATOM      5  N   UNL     1      -4.451  -3.929  -0.071  0.00  0.00    -0.174 NA
ATOM      6  C   UNL     1      -2.160  -2.944  -0.274  0.00  0.00    +0.068 C 
ATOM      7  C   UNL     1      -4.167  -0.367  -0.499  0.00  0.00    +0.052 A 
ATOM      8  C   UNL     1      -5.232   0.524  -0.562  0.00  0.00    +0.042 A 
ATOM      9  C   UNL     1      -6.538   0.036  -0.455  0.00  0.00    +0.077 A 
ATOM     10  N   UNL     1      -6.782  -1.254  -0.295  0.00  0.00    -0.227 NA
ENDROOT
BRANCH   7  11
ATOM     11  C   UNL     1      -2.771   0.106  -0.608  0.00  0.00    +0.250 C 
ATOM     12  O   UNL     1      -1.861  -0.696  -0.692  0.00  0.00    -0.270 OA
ATOM     13  N   UNL     1      -2.505   1.428  -0.614  0.00  0.00    -0.265 N 
ATOM     14  C   UNL     1      -1.183   1.876  -0.717  0.00  0.00    +0.147 A 
ATOM     15  C   UNL     1      -0.042   1.064  -0.820  0.00  0.00    +0.065 A 
ATOM     16  C   UNL     1       1.038   1.874  -0.905  0.00  0.00    +0.110 A 
ATOM     17  N   UNL     1       0.603   3.150  -0.852  0.00  0.00    -0.265 N 
ATOM     18  N   UNL     1      -0.792   3.129  -0.731  0.00  0.00    -0.156 NA
ATOM     19  H   UNL     1      -3.328   2.154  -0.538  0.00  0.00    +0.157 HD
BRANCH  17  20
ATOM     20  C   UNL     1       1.444   4.349  -0.912  0.00  0.00    +0.178 C 
BRANCH  20  21
ATOM     21  C   UNL     1       0.967   5.242  -2.028  0.00  0.00    -0.026 A 
ATOM     22  C   UNL     1       1.492   5.099  -3.299  0.00  0.00    +0.006 A 
ATOM     23  C   UNL     1       1.052   5.916  -4.324  0.00  0.00    +0.004 A 
ATOM     24  C   UNL     1       0.094   6.880  -4.076  0.00  0.00    -0.050 A 
ATOM     25  C   UNL     1      -0.427   7.027  -2.804  0.00  0.00    +0.004 A 
ATOM     26  C   UNL     1       0.010   6.207  -1.780  0.00  0.00    +0.006 A 
ATOM     27  C   UNL     1      -0.383   7.773  -5.193  0.00  0.00    +0.044 C 
ENDBRANCH  20  21
ENDBRANCH  17  20
ENDBRANCH   7  11
BRANCH   9  28
ATOM     28  C   UNL     1      -7.675   0.986  -0.522  0.00  0.00    +0.041 A 
ATOM     29  C   UNL     1      -7.585   2.383  -0.682  0.00  0.00    +0.144 A 
ATOM     30  N   UNL     1      -8.798   2.868  -0.698  0.00  0.00    -0.179 NA
ATOM     31  N   UNL     1      -9.703   1.811  -0.541  0.00  0.00    -0.271 N 
ATOM     32  C   UNL     1      -9.000   0.667  -0.435  0.00  0.00    +0.045 A 
ATOM     33  C   UNL     1      -9.573  -0.715  -0.253  0.00  0.00    +0.066 C 
ATOM     34  C   UNL     1     -11.162   1.930  -0.498  0.00  0.00    +0.172 C 
ENDBRANCH   9  28
BRANCH   1  35
ATOM     35  C   UNL     1      -6.959  -4.374   0.077  0.00  0.00    +0.145 C 
BRANCH  35  37
ATOM     36  C   UNL     1      -8.647  -5.746  -1.152  0.00  0.00    +0.005 C 
ATOM     37  C   UNL     1      -7.422  -4.843  -1.304  0.00  0.00    +0.020 C 
ENDBRANCH  35  37
ENDBRANCH   1  35
TORSDOF 6
