REMARK  Name = ZINC35747668
REMARK  13 active torsions:
REMARK  status: ('A' for Active; 'I' for Inactive)
REMARK    1  A    between atoms: C_1  and  C_2
REMARK    2  A    between atoms: C_5  and  C_9
REMARK    3  A    between atoms: C_6  and  C_8
REMARK    4  A    between atoms: C_18  and  C_20
REMARK    5  A    between atoms: C_20  and  N_21
REMARK    6  A    between atoms: N_21  and  C_22
REMARK    7  A    between atoms: N_21  and  C_28
REMARK    8  A    between atoms: C_22  and  C_23
REMARK    9  A    between atoms: C_28  and  C_29
REMARK   10  A    between atoms: C_29  and  C_31
REMARK   11  A    between atoms: C_29  and  O_35
REMARK   12  A    between atoms: C_31  and  C_32
REMARK   13  A    between atoms: C_32  and  C_33
REMARK                            x       y       z     vdW  Elec       q    Type
REMARK                         _______ _______ _______ _____ _____    ______ ____
ROOT
ATOM      1  C   UNL     1       1.020  -4.538   0.710  0.00  0.00    +0.004 A 
ATOM      2  C   UNL     1       2.143  -5.294   0.672  0.00  0.00    +0.056 A 
ATOM      3  S   UNL     1       1.526  -6.958   0.842  0.00  0.00    -0.076 S 
ATOM      4  C   UNL     1      -0.208  -6.602   0.959  0.00  0.00    +0.116 A 
ATOM      5  C   UNL     1      -0.268  -5.202   0.870  0.00  0.00    +0.080 A 
ATOM      6  C   UNL     1      -1.579  -4.631   0.943  0.00  0.00    +0.260 A 
ATOM      7  O   UNL     1      -1.733  -3.425   0.870  0.00  0.00    -0.267 OA
ATOM      8  N   UNL     1      -2.638  -5.448   1.093  0.00  0.00    -0.312 N 
ATOM      9  H   UNL     1      -3.529  -5.067   1.144  0.00  0.00    +0.170 HD
ATOM     10  C   UNL     1      -2.485  -6.794   1.176  0.00  0.00    +0.094 A 
ATOM     11  N   UNL     1      -1.303  -7.345   1.102  0.00  0.00    -0.229 NA
ENDROOT
BRANCH   1  16
ATOM     12  C   UNL     1       1.327   1.196   0.274  0.00  0.00    +0.044 C 
ATOM     13  C   UNL     1       1.247  -0.305   0.388  0.00  0.00    -0.050 A 
ATOM     14  C   UNL     1       1.621  -1.099  -0.682  0.00  0.00    +0.004 A 
ATOM     15  C   UNL     1       1.549  -2.473  -0.584  0.00  0.00    +0.009 A 
ATOM     16  C   UNL     1       1.099  -3.062   0.598  0.00  0.00    -0.014 A 
ATOM     17  C   UNL     1       0.724  -2.257   1.673  0.00  0.00    -0.042 A 
ATOM     18  C   UNL     1       0.805  -0.883   1.564  0.00  0.00    +0.007 A 
ATOM     19  C   UNL     1       0.237  -2.886   2.953  0.00  0.00    +0.044 C 
ENDBRANCH   1  16
BRANCH  10  20
ATOM     20  C   UNL     1      -3.701  -7.669   1.343  0.00  0.00    -0.003 C 
BRANCH  20  21
ATOM     21  N   UNL     1      -3.293  -9.081   1.337  0.00  0.00    +0.391 N 
ATOM     22  H   UNL     1      -2.734  -9.266   0.518  0.00  0.00    -0.080 HD
BRANCH  21  23
ATOM     23  C   UNL     1      -4.487  -9.935   1.319  0.00  0.00    -0.002 C 
BRANCH  23  24
ATOM     24  C   UNL     1      -5.272  -9.675   0.059  0.00  0.00    +0.089 A 
ATOM     25  C   UNL     1      -5.177 -10.375  -1.086  0.00  0.00    +0.042 A 
ATOM     26  C   UNL     1      -6.086  -9.791  -1.999  0.00  0.00    +0.041 A 
ATOM     27  C   UNL     1      -6.681  -8.770  -1.358  0.00  0.00    +0.195 A 
ATOM     28  O   UNL     1      -6.189  -8.708  -0.110  0.00  0.00    -0.470 OA
ENDBRANCH  23  24
ENDBRANCH  21  23
BRANCH  21  29
ATOM     29  C   UNL     1      -2.504  -9.367   2.543  0.00  0.00    -0.046 C 
BRANCH  29  30
ATOM     30  C   UNL     1      -1.925 -10.781   2.449  0.00  0.00    +0.098 C 
BRANCH  30  31
ATOM     31  O   UNL     1      -2.983 -11.736   2.549  0.00  0.00    -0.394 OA
ATOM     32  H   UNL     1      -3.482 -11.686   3.376  0.00  0.00    +0.210 HD
ENDBRANCH  30  31
BRANCH  30  33
ATOM     33  C   UNL     1      -0.930 -11.001   3.590  0.00  0.00    +0.033 C 
BRANCH  33  34
ATOM     34  C   UNL     1      -0.259 -12.366   3.426  0.00  0.00    +0.029 C 
BRANCH  34  35
ATOM     35  C   UNL     1       0.721 -12.583   4.550  0.00  0.00    -0.034 C 
ATOM     36  C   UNL     1       0.629 -13.651   5.302  0.00  0.00    +0.004 C 
ENDBRANCH  34  35
ENDBRANCH  33  34
ENDBRANCH  30  33
ENDBRANCH  29  30
ENDBRANCH  21  29
ENDBRANCH  20  21
ENDBRANCH  10  20
TORSDOF 11
