REMARK  Name = ZINC14668682
REMARK  11 active torsions:
REMARK  status: ('A' for Active; 'I' for Inactive)
REMARK    1  A    between atoms: C_1  and  C_2
REMARK    2  A    between atoms: C_2  and  C_3
REMARK    3  A    between atoms: C_2  and  O_4
REMARK    4  A    between atoms: O_4  and  C_5
REMARK    5  A    between atoms: C_10  and  C_11
REMARK    6  A    between atoms: N_13  and  C_14
REMARK    7  A    between atoms: C_14  and  N_16
REMARK    8  A    between atoms: N_16  and  N_17
REMARK    9  A    between atoms: C_18  and  C_20
REMARK   10  A    between atoms: C_20  and  O_21
REMARK   11  A    between atoms: O_21  and  C_22
REMARK                            x       y       z     vdW  Elec       q    Type
REMARK                         _______ _______ _______ _____ _____    ______ ____
ROOT
ATOM      1  N   UNL     1      -5.508  -1.692   0.763  0.00  0.00    -0.245 N 
ATOM      2  H   UNL     1      -6.394  -1.375   1.000  0.00  0.00    +0.172 HD
ENDROOT
BRANCH   1   3
ATOM      3  N   UNL     1      -5.293  -3.055   0.520  0.00  0.00    -0.232 N 
ATOM      4  C   UNL     1      -6.317  -3.926   0.617  0.00  0.00    +0.267 C 
ATOM      5  O   UNL     1      -7.425  -3.530   0.914  0.00  0.00    -0.271 OA
ATOM      6  H   UNL     1      -4.408  -3.372   0.282  0.00  0.00    +0.173 HD
BRANCH   4   7
ATOM      7  C   UNL     1      -6.087  -5.392   0.356  0.00  0.00    +0.326 C 
BRANCH   7   8
ATOM      8  O   UNL     1      -7.315  -6.104   0.519  0.00  0.00    -0.482 OA
BRANCH   8   9
ATOM      9  C   UNL     1      -7.280  -7.447   0.319  0.00  0.00    +0.129 A 
ATOM     10  C   UNL     1      -6.109  -8.062  -0.024  0.00  0.00    +0.046 A 
ATOM     11  C   UNL     1      -6.057  -9.437  -0.233  0.00  0.00    +0.004 A 
ATOM     12  C   UNL     1      -7.170 -10.209  -0.103  0.00  0.00    +0.009 A 
ATOM     13  C   UNL     1      -8.395  -9.616   0.248  0.00  0.00    -0.014 A 
ATOM     14  C   UNL     1      -8.451  -8.217   0.468  0.00  0.00    +0.024 A 
ATOM     15  C   UNL     1      -9.676  -7.623   0.814  0.00  0.00    +0.012 A 
ATOM     16  C   UNL     1     -10.788  -8.397   0.943  0.00  0.00    +0.001 A 
ATOM     17  C   UNL     1     -10.732  -9.774   0.732  0.00  0.00    +0.001 A 
ATOM     18  C   UNL     1      -9.563 -10.383   0.391  0.00  0.00    +0.008 A 
ENDBRANCH   8   9
ENDBRANCH   7   8
ENDBRANCH   4   7
ENDBRANCH   1   3
BRANCH   1  19
ATOM     19  C   UNL     1      -4.484  -0.821   0.666  0.00  0.00    +0.153 C 
ATOM     20  S   UNL     1      -4.746   0.845   0.962  0.00  0.00    -0.017 S 
BRANCH  19  23
ATOM     21  C   UNL     1      -2.230  -0.390   0.239  0.00  0.00    +0.253 C 
ATOM     22  O   UNL     1      -2.416   0.793   0.450  0.00  0.00    -0.270 OA
ATOM     23  N   UNL     1      -3.254  -1.261   0.336  0.00  0.00    -0.263 N 
ATOM     24  H   UNL     1      -3.105  -2.204   0.168  0.00  0.00    +0.157 HD
BRANCH  21  30
ATOM     25  C   UNL     1       0.184   0.031  -0.224  0.00  0.00    +0.133 A 
ATOM     26  C   UNL     1       1.447  -0.433  -0.559  0.00  0.00    +0.047 A 
ATOM     27  C   UNL     1       1.650  -1.778  -0.796  0.00  0.00    +0.019 A 
ATOM     28  C   UNL     1       0.596  -2.674  -0.701  0.00  0.00    +0.019 A 
ATOM     29  C   UNL     1      -0.666  -2.229  -0.369  0.00  0.00    +0.032 A 
ATOM     30  C   UNL     1      -0.884  -0.871  -0.122  0.00  0.00    +0.080 A 
ATOM     31 BR   UNL     1       0.890  -4.513  -1.029  0.00  0.00    -0.050 Br
BRANCH  25  32
ATOM     32  O   UNL     1      -0.016   1.352   0.009  0.00  0.00    -0.489 OA
BRANCH  32  34
ATOM     33  C   UNL     1       1.464   2.616  -1.424  0.00  0.00    +0.051 C 
ATOM     34  C   UNL     1       1.139   2.193   0.011  0.00  0.00    +0.167 C 
ATOM     35  C   UNL     1       0.864   3.437   0.859  0.00  0.00    +0.051 C 
ENDBRANCH  32  34
ENDBRANCH  25  32
ENDBRANCH  21  30
ENDBRANCH  19  23
ENDBRANCH   1  19
TORSDOF 9
