REMARK  Name = ZINC15954867
REMARK  5 active torsions:
REMARK  status: ('A' for Active; 'I' for Inactive)
REMARK    1  A    between atoms: C_1  and  C_2
REMARK    2  A    between atoms: C_7  and  C_8
REMARK    3  A    between atoms: N_27  and  C_30
REMARK    4  A    between atoms: C_35  and  C_36
REMARK    5  A    between atoms: C_35  and  N_73
REMARK                            x       y       z     vdW  Elec       q    Type
REMARK                         _______ _______ _______ _____ _____    ______ ____
ROOT
ATOM      1  C   UNL     1      -2.267   0.642  -0.210  0.00  0.00    +0.154 C 
ATOM      2  C   UNL     1      -2.898   0.433   1.148  0.00  0.00    +0.046 A 
ATOM      3  C   UNL     1      -3.187  -0.784   1.658  0.00  0.00    -0.015 A 
ATOM      4  C   UNL     1      -3.779  -0.568   2.962  0.00  0.00    +0.003 A 
ATOM      5  C   UNL     1      -4.267  -1.442   3.938  0.00  0.00    +0.010 A 
ATOM      6  C   UNL     1      -4.771  -0.876   5.082  0.00  0.00    +0.001 A 
ATOM      7  C   UNL     1      -4.800   0.496   5.274  0.00  0.00    +0.002 A 
ATOM      8  C   UNL     1      -4.322   1.384   4.325  0.00  0.00    +0.026 A 
ATOM      9  C   UNL     1      -3.804   0.838   3.153  0.00  0.00    +0.047 A 
ATOM     10  N   UNL     1      -3.263   1.409   2.037  0.00  0.00    -0.356 N 
ATOM     11  H   UNL     1      -3.153   2.362   1.896  0.00  0.00    +0.166 HD
ATOM     12  C   UNL     1      -2.917  -2.092   0.959  0.00  0.00    +0.069 C 
ATOM     13  C   UNL     1      -2.698  -1.818  -0.536  0.00  0.00    +0.167 C 
ATOM     14  N   UNL     1      -1.797  -0.676  -0.687  0.00  0.00    -0.276 N 
ATOM     15  C   UNL     1      -0.594  -0.747  -1.228  0.00  0.00    +0.234 C 
ATOM     16  O   UNL     1       0.087   0.256  -1.242  0.00  0.00    -0.274 OA
ATOM     17  C   UNL     1      -0.014  -1.992  -1.817  0.00  0.00    +0.204 C 
ATOM     18  N   UNL     1      -0.944  -3.107  -1.763  0.00  0.00    -0.288 N 
ATOM     19  C   UNL     1      -2.147  -3.041  -1.195  0.00  0.00    +0.237 C 
ATOM     20  O   UNL     1      -2.839  -4.037  -1.214  0.00  0.00    -0.274 OA
ENDROOT
BRANCH   1  27
ATOM     21  C   UNL     1      -1.675   2.478  -2.360  0.00  0.00    +0.044 C 
ATOM     22  C   UNL     1      -0.818   2.467  -1.121  0.00  0.00    -0.045 A 
ATOM     23  C   UNL     1       0.256   3.332  -1.016  0.00  0.00    +0.004 A 
ATOM     24  C   UNL     1       1.042   3.323   0.121  0.00  0.00    +0.000 A 
ATOM     25  C   UNL     1       0.755   2.448   1.153  0.00  0.00    +0.000 A 
ATOM     26  C   UNL     1      -0.318   1.583   1.047  0.00  0.00    +0.006 A 
ATOM     27  C   UNL     1      -1.101   1.589  -0.092  0.00  0.00    -0.018 A 
ENDBRANCH   1  27
BRANCH  18  28
ATOM     28  C   UNL     1      -0.535  -4.377  -2.368  0.00  0.00    +0.073 C 
ATOM     29  C   UNL     1       0.736  -4.885  -1.681  0.00  0.00    +0.004 C 
ATOM     30  C   UNL     1       1.193  -6.179  -2.358  0.00  0.00    -0.077 C 
ATOM     31  C   UNL     1       0.232  -5.482  -4.471  0.00  0.00    -0.077 C 
ATOM     32  C   UNL     1      -0.253  -4.167  -3.858  0.00  0.00    +0.004 C 
ATOM     33  N   UNL     1       1.472  -5.903  -3.784  0.00  0.00    +0.382 N 
ATOM     34  H   UNL     1       2.162  -5.146  -3.848  0.00  0.00    -0.081 HD
BRANCH  33  35
ATOM     35  C   UNL     1       2.023  -7.111  -4.433  0.00  0.00    -0.043 C 
BRANCH  35  36
ATOM     36  C   UNL     1       3.118  -7.680  -3.568  0.00  0.00    -0.064 A 
ATOM     37  C   UNL     1       4.422  -7.253  -3.733  0.00  0.00    +0.002 A 
ATOM     38  C   UNL     1       5.425  -7.772  -2.936  0.00  0.00    +0.000 A 
ATOM     39  C   UNL     1       5.126  -8.725  -1.981  0.00  0.00    +0.000 A 
ATOM     40  C   UNL     1       3.822  -9.156  -1.820  0.00  0.00    +0.000 A 
ATOM     41  C   UNL     1       2.818  -8.634  -2.613  0.00  0.00    +0.002 A 
ENDBRANCH  35  36
ENDBRANCH  33  35
ENDBRANCH  18  28
TORSDOF 4
