REMARK  Name = ZINC35681922
REMARK  4 active torsions:
REMARK  status: ('A' for Active; 'I' for Inactive)
REMARK    1  A    between atoms: C_4  and  C_7
REMARK    2  A    between atoms: C_8  and  N_18
REMARK    3  A    between atoms: C_10  and  C_12
REMARK    4  A    between atoms: C_21  and  N_26
REMARK                            x       y       z     vdW  Elec       q    Type
REMARK                         _______ _______ _______ _____ _____    ______ ____
ROOT
ATOM      1  C   UNL     1       3.693  -0.683  -0.048  0.00  0.00    +0.178 A 
ATOM      2  C   UNL     1       3.875  -2.034   0.043  0.00  0.00    +0.180 A 
ATOM      3  N   UNL     1       5.194  -2.268   0.001  0.00  0.00    -0.193 NA
ATOM      4  C   UNL     1       5.826  -1.122  -0.111  0.00  0.00    +0.230 A 
ATOM      5  O   UNL     1       4.923  -0.127  -0.149  0.00  0.00    -0.433 OA
ENDROOT
BRANCH   2   6
ATOM      6  N   UNL     1       2.866  -2.999   0.159  0.00  0.00    -0.209 N 
ATOM      7  C   UNL     1       2.406  -3.616  -1.000  0.00  0.00    +0.123 C 
ATOM      8  C   UNL     1       1.456  -4.535  -0.955  0.00  0.00    +0.150 C 
ATOM      9  C   UNL     1       0.879  -4.898   0.397  0.00  0.00    +0.206 C 
ATOM     10  N   UNL     1       1.423  -4.197   1.572  0.00  0.00    -0.277 N 
ATOM     11  C   UNL     1       2.397  -3.285   1.381  0.00  0.00    +0.313 C 
ATOM     12  O   UNL     1       2.858  -2.702   2.343  0.00  0.00    -0.252 OA
ATOM     13  F   UNL     1       1.012  -5.131  -2.083  0.00  0.00    -0.205 F 
ATOM     14  H   UNL     1       1.091  -4.390   2.463  0.00  0.00    +0.152 HD
BRANCH   9  15
ATOM     15  N   UNL     1       1.079  -6.340   0.600  0.00  0.00    -0.279 NA
ATOM     16  C   UNL     1       2.521  -6.662   0.749  0.00  0.00    +0.086 C 
ATOM     17  C   UNL     1       2.505  -8.040   1.456  0.00  0.00    +0.017 C 
ATOM     18  C   UNL     1       1.314  -7.913   2.434  0.00  0.00    +0.017 C 
ATOM     19  C   UNL     1       0.433  -6.793   1.851  0.00  0.00    +0.086 C 
ENDBRANCH   9  15
ENDBRANCH   2   6
BRANCH   1  23
ATOM     20  C   UNL     1      -0.019   1.377  -0.035  0.00  0.00    +0.000 A 
ATOM     21  C   UNL     1       1.166   2.092  -0.018  0.00  0.00    +0.001 A 
ATOM     22  C   UNL     1       2.375   1.430  -0.022  0.00  0.00    +0.011 A 
ATOM     23  C   UNL     1       2.403   0.033  -0.043  0.00  0.00    +0.021 A 
ATOM     24  C   UNL     1       1.203  -0.683  -0.059  0.00  0.00    +0.011 A 
ATOM     25  C   UNL     1       0.001  -0.007  -0.056  0.00  0.00    +0.001 A 
ENDBRANCH   1  23
BRANCH   4  26
ATOM     26  C   UNL     1       7.291  -0.954  -0.188  0.00  0.00    +0.037 A 
ATOM     27  C   UNL     1       8.128  -2.071  -0.149  0.00  0.00    +0.013 A 
ATOM     28  C   UNL     1       9.496  -1.907  -0.221  0.00  0.00    +0.001 A 
ATOM     29  C   UNL     1      10.039  -0.638  -0.333  0.00  0.00    +0.000 A 
ATOM     30  C   UNL     1       9.215   0.473  -0.372  0.00  0.00    +0.001 A 
ATOM     31  C   UNL     1       7.846   0.322  -0.306  0.00  0.00    +0.013 A 
ENDBRANCH   4  26
TORSDOF 4
