REMARK  Name = ZINC12136468
REMARK  8 active torsions:
REMARK  status: ('A' for Active; 'I' for Inactive)
REMARK    1  A    between atoms: C_1  and  C_2
REMARK    2  A    between atoms: C_8  and  C_10
REMARK    3  A    between atoms: C_10  and  C_12
REMARK    4  A    between atoms: C_10  and  S_13
REMARK    5  A    between atoms: S_13  and  C_14
REMARK    6  A    between atoms: C_17  and  C_26
REMARK    7  A    between atoms: N_18  and  C_19
REMARK    8  A    between atoms: C_26  and  N_56
REMARK                            x       y       z     vdW  Elec       q    Type
REMARK                         _______ _______ _______ _____ _____    ______ ____
ROOT
ATOM      1  C   UNL     1       1.526  -6.728   0.575  0.00  0.00    +0.197 A 
ATOM      2  N   UNL     1       2.793  -6.816   0.241  0.00  0.00    -0.122 NA
ATOM      3  N   UNL     1       3.199  -8.028   0.380  0.00  0.00    -0.135 NA
ATOM      4  C   UNL     1       2.225  -8.781   0.806  0.00  0.00    +0.122 A 
ATOM      5  N   UNL     1       1.124  -7.980   0.952  0.00  0.00    -0.276 N 
ENDROOT
BRANCH   5   6
ATOM      6  C   UNL     1      -0.151  -8.364   1.393  0.00  0.00    +0.050 A 
ATOM      7  C   UNL     1      -0.330  -8.820   2.691  0.00  0.00    +0.028 A 
ATOM      8  C   UNL     1      -1.587  -9.193   3.125  0.00  0.00    +0.022 A 
ATOM      9  C   UNL     1      -2.667  -9.121   2.262  0.00  0.00    +0.041 A 
ATOM     10  C   UNL     1      -2.491  -8.671   0.966  0.00  0.00    +0.022 A 
ATOM     11  C   UNL     1      -1.236  -8.293   0.529  0.00  0.00    +0.028 A 
ATOM     12 CL   UNL     1      -4.245  -9.596   2.808  0.00  0.00    -0.084 Cl
ENDBRANCH   5   6
BRANCH   1  13
ATOM     13  S   UNL     1       0.534  -5.272   0.549  0.00  0.00    -0.073 S 
BRANCH  13  14
ATOM     14  C   UNL     1       1.754  -4.071  -0.039  0.00  0.00    +0.137 C 
ATOM     15  C   UNL     1       2.175  -4.429  -1.466  0.00  0.00    +0.029 C 
BRANCH  14  23
ATOM     16  C   UNL     1      -1.237   2.232   0.020  0.00  0.00    +0.089 C 
ATOM     17  C   UNL     1      -0.016   1.348   0.009  0.00  0.00    +0.136 A 
ATOM     18  C   UNL     1       0.002  -0.004   0.002  0.00  0.00    +0.091 A 
ATOM     19  C   UNL     1       1.385  -0.328  -0.013  0.00  0.00    +0.168 A 
ATOM     20  N   UNL     1       2.026   0.811  -0.013  0.00  0.00    -0.063 NA
ATOM     21  O   UNL     1       1.263   1.749  -0.001  0.00  0.00    -0.358 OA
ATOM     22  N   UNL     1       1.946  -1.605  -0.026  0.00  0.00    -0.267 N 
ATOM     23  C   UNL     1       1.148  -2.691  -0.025  0.00  0.00    +0.231 C 
ATOM     24  O   UNL     1      -0.057  -2.559  -0.013  0.00  0.00    -0.274 OA
ATOM     25  H   UNL     1       2.910  -1.711  -0.035  0.00  0.00    +0.156 HD
ENDBRANCH  14  23
ENDBRANCH  13  14
ENDBRANCH   1  13
BRANCH   4  26
ATOM     26  C   UNL     1       2.299 -10.259   1.092  0.00  0.00    -0.001 C 
BRANCH  26  32
ATOM     27  C   UNL     1       4.053  -9.991   2.738  0.00  0.00    -0.078 C 
ATOM     28  C   UNL     1       4.370 -10.089   4.232  0.00  0.00    -0.019 C 
ATOM     29  C   UNL     1       4.229 -11.545   4.684  0.00  0.00    -0.004 C 
ATOM     30  C   UNL     1       2.811 -12.033   4.374  0.00  0.00    -0.019 C 
ATOM     31  C   UNL     1       2.540 -11.878   2.876  0.00  0.00    -0.078 C 
ATOM     32  N   UNL     1       2.667 -10.451   2.510  0.00  0.00    +0.384 N 
ATOM     33  H   UNL     1       2.032  -9.899   3.098  0.00  0.00    -0.081 HD
ENDBRANCH  26  32
ENDBRANCH   4  26
TORSDOF 6
