REMARK  Name = ZINC12462562
REMARK  6 active torsions:
REMARK  status: ('A' for Active; 'I' for Inactive)
REMARK    1  A    between atoms: C_1  and  C_2
REMARK    2  A    between atoms: C_9  and  C_29
REMARK    3  A    between atoms: C_10  and  N_28
REMARK    4  A    between atoms: C_22  and  S_24
REMARK    5  A    between atoms: S_24  and  C_25
REMARK    6  A    between atoms: C_25  and  C_26
REMARK                            x       y       z     vdW  Elec       q    Type
REMARK                         _______ _______ _______ _____ _____    ______ ____
ROOT
ATOM      1  C   UNL     1       2.556   1.020   0.319  0.00  0.00    +0.044 C 
ATOM      2  C   UNL     1       1.252   1.773   0.264  0.00  0.00    -0.050 A 
ATOM      3  C   UNL     1       0.065   1.069   0.281  0.00  0.00    +0.005 A 
ATOM      4  C   UNL     1      -1.166   1.704   0.228  0.00  0.00    +0.024 A 
ATOM      5  C   UNL     1      -1.162   3.099   0.166  0.00  0.00    +0.038 A 
ATOM      6  C   UNL     1       0.049   3.800   0.149  0.00  0.00    -0.001 A 
ATOM      7  C   UNL     1       1.269   3.162   0.197  0.00  0.00    +0.010 A 
ATOM      8  C   UNL     1      -0.306   5.253   0.073  0.00  0.00    +0.141 C 
ATOM      9  C   UNL     1       0.230   5.869  -1.185  0.00  0.00    +0.089 C 
ATOM     10  C   UNL     1       1.309   6.694  -1.153  0.00  0.00    +0.109 C 
ATOM     11  N   UNL     1       1.922   6.981   0.046  0.00  0.00    -0.237 N 
ATOM     12  C   UNL     1       1.260   6.795   1.232  0.00  0.00    +0.027 C 
ATOM     13  C   UNL     1       0.185   5.980   1.298  0.00  0.00    +0.037 C 
ATOM     14  C   UNL     1      -0.505   5.787   2.507  0.00  0.00    +0.162 C 
ATOM     15  O   UNL     1      -1.479   5.061   2.528  0.00  0.00    -0.292 OA
ATOM     16  C   UNL     1      -0.060   6.463   3.775  0.00  0.00    +0.080 C 
ATOM     17  C   UNL     1       1.453   6.700   3.707  0.00  0.00    +0.014 C 
ATOM     18  C   UNL     1       1.758   7.525   2.455  0.00  0.00    +0.052 C 
ATOM     19  C   UNL     1       3.228   7.466   0.055  0.00  0.00    +0.194 A 
ATOM     20  N   UNL     1       3.674   8.710  -0.026  0.00  0.00    -0.124 NA
ATOM     21  N   UNL     1       4.905   8.981   0.001  0.00  0.00    -0.133 NA
ATOM     22  C   UNL     1       5.829   8.036   0.100  0.00  0.00    +0.160 A 
ATOM     23  S   UNL     1       4.782   6.585   0.170  0.00  0.00    -0.024 S 
ATOM     24  C   UNL     1      -1.822   5.263   0.050  0.00  0.00    +0.238 C 
ATOM     25  O   UNL     1      -2.535   6.243  -0.009  0.00  0.00    -0.274 OA
ATOM     26  N   UNL     1      -2.228   3.979   0.108  0.00  0.00    -0.284 N 
ATOM     27  H   UNL     1      -3.159   3.704   0.109  0.00  0.00    +0.155 HD
ENDROOT
BRANCH  10  28
ATOM     28  N   UNL     1       1.789   7.243  -2.318  0.00  0.00    -0.345 N 
ATOM     29  H   UNL     1       2.609   7.760  -2.308  0.00  0.00    +0.144 HD
ATOM     30  H   UNL     1       1.307   7.112  -3.150  0.00  0.00    +0.144 HD
ENDBRANCH  10  28
BRANCH   9  31
ATOM     31  C   UNL     1      -0.404   5.582  -2.437  0.00  0.00    +0.100 C 
ATOM     32  N   UNL     1      -0.907   5.356  -3.430  0.00  0.00    -0.191 NA
ENDBRANCH   9  31
BRANCH  22  33
ATOM     33  S   UNL     1       7.585   8.169   0.147  0.00  0.00    -0.093 S 
BRANCH  33  34
ATOM     34  C   UNL     1       7.894   9.953   0.029  0.00  0.00    +0.103 C 
BRANCH  34  35
ATOM     35  C   UNL     1       9.379  10.209   0.059  0.00  0.00    -0.023 C 
ATOM     36  C   UNL     1       9.977  10.717  -0.989  0.00  0.00    +0.005 C 
ENDBRANCH  34  35
ENDBRANCH  33  34
ENDBRANCH  22  33
TORSDOF 5
