REMARK  Name = ZINC15859018
REMARK  5 active torsions:
REMARK  status: ('A' for Active; 'I' for Inactive)
REMARK    1  A    between atoms: C_1  and  N_2
REMARK    2  A    between atoms: C_5  and  C_25
REMARK    3  A    between atoms: C_8  and  C_17
REMARK    4  A    between atoms: C_20  and  C_23
REMARK    5  A    between atoms: N_34  and  C_37
REMARK                            x       y       z     vdW  Elec       q    Type
REMARK                         _______ _______ _______ _____ _____    ______ ____
ROOT
ATOM      1  C   UNL     1      -4.278   2.367   1.127  0.00  0.00    +0.154 C 
ATOM      2  N   UNL     1      -3.554   3.503   1.702  0.00  0.00    -0.294 N 
ATOM      3  C   UNL     1      -2.171   3.655   1.521  0.00  0.00    +0.082 A 
ATOM      4  C   UNL     1      -1.494   4.827   2.132  0.00  0.00    +0.089 A 
ATOM      5  C   UNL     1      -0.165   4.726   1.804  0.00  0.00    +0.071 A 
ATOM      6  N   UNL     1      -0.010   3.594   1.066  0.00  0.00    -0.306 N 
ATOM      7  C   UNL     1      -1.234   2.963   0.890  0.00  0.00    +0.073 A 
ATOM      8  C   UNL     1      -1.365   1.699   0.062  0.00  0.00    +0.150 C 
ATOM      9  N   UNL     1      -0.059   1.022   0.067  0.00  0.00    -0.330 N 
ATOM     10  C   UNL     1       1.119   1.773  -0.021  0.00  0.00    +0.052 A 
ATOM     11  C   UNL     1       1.165   3.067   0.509  0.00  0.00    +0.068 A 
ATOM     12  C   UNL     1       2.332   3.803   0.451  0.00  0.00    +0.028 A 
ATOM     13  C   UNL     1       3.456   3.263  -0.150  0.00  0.00    +0.002 A 
ATOM     14  C   UNL     1       3.410   1.991  -0.690  0.00  0.00    +0.002 A 
ATOM     15  C   UNL     1       2.248   1.244  -0.627  0.00  0.00    +0.025 A 
ATOM     16  C   UNL     1      -2.287   5.791   2.902  0.00  0.00    +0.266 A 
ATOM     17  O   UNL     1      -1.790   6.770   3.425  0.00  0.00    -0.267 OA
ATOM     18  N   UNL     1      -3.614   5.515   2.990  0.00  0.00    -0.263 N 
ATOM     19  C   UNL     1      -4.190   4.449   2.428  0.00  0.00    +0.332 A 
ATOM     20  O   UNL     1      -5.389   4.318   2.584  0.00  0.00    -0.246 OA
ATOM     21  C   UNL     1      -4.462   6.441   3.745  0.00  0.00    +0.157 C 
ATOM     22  H   UNL     1      -0.013   0.056   0.128  0.00  0.00    +0.147 HD
ENDROOT
BRANCH   5  23
ATOM     23  C   UNL     1       0.901   5.673   2.182  0.00  0.00    +0.035 A 
ATOM     24  C   UNL     1       1.208   6.754   1.352  0.00  0.00    +0.013 A 
ATOM     25  C   UNL     1       2.205   7.635   1.712  0.00  0.00    +0.001 A 
ATOM     26  C   UNL     1       2.904   7.451   2.893  0.00  0.00    +0.003 A 
ATOM     27  C   UNL     1       2.608   6.384   3.721  0.00  0.00    +0.039 A 
ATOM     28  C   UNL     1       1.607   5.495   3.377  0.00  0.00    +0.133 A 
ATOM     29  F   UNL     1       1.314   4.457   4.190  0.00  0.00    -0.205 F 
ENDBRANCH   5  23
BRANCH   8  30
ATOM     30  C   UNL     1      -1.754   2.047  -1.351  0.00  0.00    -0.021 A 
ATOM     31  C   UNL     1      -2.966   1.614  -1.859  0.00  0.00    +0.007 A 
ATOM     32  C   UNL     1      -3.330   1.933  -3.151  0.00  0.00    +0.019 A 
ATOM     33  C   UNL     1      -2.467   2.686  -3.950  0.00  0.00    +0.052 A 
ATOM     34  C   UNL     1      -1.243   3.115  -3.433  0.00  0.00    +0.019 A 
ATOM     35  C   UNL     1      -0.894   2.793  -2.138  0.00  0.00    +0.007 A 
BRANCH  33  36
ATOM     36  C   UNL     1      -2.836   3.017  -5.293  0.00  0.00    +0.099 C 
ATOM     37  N   UNL     1      -3.129   3.280  -6.359  0.00  0.00    -0.191 NA
ENDBRANCH  33  36
ENDBRANCH   8  30
TORSDOF 3
