REMARK  Name = ZINC16720290
REMARK  4 active torsions:
REMARK  status: ('A' for Active; 'I' for Inactive)
REMARK    1  A    between atoms: C_1  and  C_2
REMARK    2  A    between atoms: C_2  and  C_23
REMARK    3  A    between atoms: N_5  and  N_9
REMARK    4  A    between atoms: N_9  and  C_10
REMARK                            x       y       z     vdW  Elec       q    Type
REMARK                         _______ _______ _______ _____ _____    ______ ____
ROOT
ATOM      1  N   UNL     1      -2.600  -1.951   1.641  0.00  0.00    -0.260 N 
ATOM      2  H   UNL     1      -3.292  -1.458   2.110  0.00  0.00    +0.170 HD
ENDROOT
BRANCH   1   3
ATOM      3  C   UNL     1      -2.587  -3.308   1.683  0.00  0.00    +0.102 C 
ATOM      4  C   UNL     1      -3.633  -3.990   2.266  0.00  0.00    +0.060 C 
ATOM      5  C   UNL     1      -4.990  -3.407   2.309  0.00  0.00    +0.000 A 
ATOM      6  C   UNL     1      -5.267  -2.157   1.768  0.00  0.00    +0.009 A 
ATOM      7  C   UNL     1      -6.551  -1.656   1.833  0.00  0.00    +0.001 A 
ATOM      8  C   UNL     1      -7.565  -2.390   2.434  0.00  0.00    +0.001 A 
ATOM      9  C   UNL     1      -7.309  -3.631   2.975  0.00  0.00    +0.013 A 
ATOM     10  C   UNL     1      -6.017  -4.156   2.920  0.00  0.00    +0.045 A 
ATOM     11  C   UNL     1      -5.702  -5.475   3.484  0.00  0.00    +0.251 C 
ATOM     12  O   UNL     1      -6.584  -6.125   4.012  0.00  0.00    -0.270 OA
ATOM     13  N   UNL     1      -4.457  -5.974   3.427  0.00  0.00    -0.248 N 
ATOM     14  C   UNL     1      -3.434  -5.318   2.857  0.00  0.00    +0.252 C 
ATOM     15  O   UNL     1      -2.329  -5.829   2.833  0.00  0.00    -0.270 OA
ATOM     16  H   UNL     1      -4.290  -6.849   3.812  0.00  0.00    +0.158 HD
ENDBRANCH   1   3
BRANCH   1  21
ATOM     17  C   UNL     1      -0.622   1.458  -0.803  0.00  0.00    +0.047 C 
ATOM     18  C   UNL     1      -0.495  -0.061  -0.667  0.00  0.00    +0.137 C 
ATOM     19  C   UNL     1      -1.825  -0.674  -0.275  0.00  0.00    +0.267 C 
ATOM     20  O   UNL     1      -2.861  -0.641  -0.904  0.00  0.00    -0.271 OA
ATOM     21  N   UNL     1      -1.616  -1.263   0.919  0.00  0.00    -0.139 N 
ATOM     22  C   UNL     1      -0.352  -1.109   1.331  0.00  0.00    +0.326 C 
ATOM     23  O   UNL     1       0.076  -1.553   2.378  0.00  0.00    -0.251 OA
ATOM     24  N   UNL     1       0.392  -0.408   0.456  0.00  0.00    -0.280 N 
ATOM     25  H   UNL     1       1.329  -0.177   0.547  0.00  0.00    +0.152 HD
BRANCH  18  26
ATOM     26  C   UNL     1       0.013  -0.666  -1.951  0.00  0.00    -0.015 A 
ATOM     27  C   UNL     1      -0.881  -1.080  -2.921  0.00  0.00    +0.006 A 
ATOM     28  C   UNL     1      -0.415  -1.635  -4.098  0.00  0.00    +0.000 A 
ATOM     29  C   UNL     1       0.944  -1.776  -4.305  0.00  0.00    +0.000 A 
ATOM     30  C   UNL     1       1.838  -1.361  -3.335  0.00  0.00    +0.000 A 
ATOM     31  C   UNL     1       1.372  -0.802  -2.160  0.00  0.00    +0.006 A 
ENDBRANCH  18  26
ENDBRANCH   1  21
TORSDOF 3
