REMARK  Name = ZINC11817026
REMARK  5 active torsions:
REMARK  status: ('A' for Active; 'I' for Inactive)
REMARK    1  A    between atoms: C_5  and  C_7
REMARK    2  A    between atoms: C_7  and  N_59
REMARK    3  A    between atoms: C_13  and  C_15
REMARK    4  A    between atoms: C_15  and  C_16
REMARK    5  A    between atoms: N_18  and  C_19
REMARK                            x       y       z     vdW  Elec       q    Type
REMARK                         _______ _______ _______ _____ _____    ______ ____
ROOT
ATOM      1  C   UNL     1       5.286   3.661  -1.631  0.00  0.00    -0.058 C 
ATOM      2  C   UNL     1       4.327   2.603  -1.082  0.00  0.00    +0.085 C 
ATOM      3  N   UNL     1       2.969   3.137  -1.032  0.00  0.00    -0.318 N 
ATOM      4  C   UNL     1       2.700   4.446  -1.075  0.00  0.00    +0.200 C 
ATOM      5  O   UNL     1       1.545   4.805  -0.996  0.00  0.00    -0.278 OA
ATOM      6  C   UNL     1       3.771   5.491  -1.218  0.00  0.00    +0.028 C 
ATOM      7  H   UNL     1       2.229   2.514  -0.963  0.00  0.00    +0.149 HD
ATOM      8  N   UNL     1       5.079   4.907  -0.866  0.00  0.00    +0.391 N 
ATOM      9  H   UNL     1       5.091   4.691   0.138  0.00  0.00    -0.080 HD
ENDROOT
BRANCH   8  10
ATOM     10  C   UNL     1       6.161   5.873  -1.164  0.00  0.00    -0.039 C 
BRANCH  10  15
ATOM     11  C   UNL     1       9.605   4.422  -0.631  0.00  0.00    +0.000 A 
ATOM     12  C   UNL     1       9.752   4.550   0.738  0.00  0.00    +0.003 A 
ATOM     13  C   UNL     1       8.741   5.115   1.492  0.00  0.00    +0.038 A 
ATOM     14  C   UNL     1       7.575   5.542   0.877  0.00  0.00    +0.125 A 
ATOM     15  C   UNL     1       7.428   5.408  -0.493  0.00  0.00    -0.029 A 
ATOM     16  C   UNL     1       8.443   4.848  -1.246  0.00  0.00    +0.004 A 
ATOM     17  F   UNL     1       6.584   6.089   1.613  0.00  0.00    -0.205 F 
ENDBRANCH  10  15
ENDBRANCH   8  10
BRANCH   6  18
ATOM     18  C   UNL     1       3.474   6.655  -0.269  0.00  0.00    +0.089 C 
BRANCH  18  19
ATOM     19  C   UNL     1       3.489   6.159   1.154  0.00  0.00    +0.212 C 
ATOM     20  O   UNL     1       3.812   5.015   1.394  0.00  0.00    -0.276 OA
ATOM     21  N   UNL     1       3.143   6.987   2.159  0.00  0.00    -0.312 N 
ATOM     22  H   UNL     1       2.885   7.902   1.967  0.00  0.00    +0.149 HD
BRANCH  21  23
ATOM     23  C   UNL     1       3.158   6.505   3.543  0.00  0.00    +0.079 C 
ATOM     24  C   UNL     1       1.831   5.811   3.855  0.00  0.00    +0.010 C 
ATOM     25  C   UNL     1       1.846   5.307   5.300  0.00  0.00    +0.009 C 
ATOM     26  C   UNL     1       2.038   6.491   6.250  0.00  0.00    -0.010 C 
ATOM     27  C   UNL     1       0.887   7.483   6.067  0.00  0.00    +0.007 C 
ATOM     28  C   UNL     1       0.872   7.986   4.623  0.00  0.00    -0.010 C 
ATOM     29  C   UNL     1       0.681   6.803   3.672  0.00  0.00    +0.009 C 
ATOM     30  C   UNL     1       2.199   8.681   4.311  0.00  0.00    +0.009 C 
ATOM     31  C   UNL     1       3.350   7.689   4.493  0.00  0.00    +0.010 C 
ATOM     32  C   UNL     1       3.365   7.186   5.938  0.00  0.00    +0.009 C 
ENDBRANCH  21  23
ENDBRANCH  18  19
ENDBRANCH   6  18
TORSDOF 5
