REMARK  Name = ZINC58591145
REMARK  9 active torsions:
REMARK  status: ('A' for Active; 'I' for Inactive)
REMARK    1  A    between atoms: C_1  and  N_2
REMARK    2  A    between atoms: N_2  and  C_3
REMARK    3  A    between atoms: N_2  and  C_30
REMARK    4  A    between atoms: C_3  and  C_4
REMARK    5  A    between atoms: C_9  and  N_10
REMARK    6  A    between atoms: C_11  and  C_13
REMARK    7  A    between atoms: C_17  and  O_19
REMARK    8  A    between atoms: O_19  and  C_20
REMARK    9  A    between atoms: C_20  and  C_21
REMARK                            x       y       z     vdW  Elec       q    Type
REMARK                         _______ _______ _______ _____ _____    ______ ____
ROOT
ATOM      1  N   UNL     1      -1.552  -1.973   2.070  0.00  0.00    -0.281 N 
ATOM      2  C   UNL     1      -2.830  -2.399   2.114  0.00  0.00    +0.248 C 
ATOM      3  O   UNL     1      -3.661  -1.764   2.734  0.00  0.00    -0.270 OA
ATOM      4  H   UNL     1      -0.907  -2.433   1.511  0.00  0.00    +0.155 HD
ENDROOT
BRANCH   1  10
ATOM      5  C   UNL     1      -0.056  -0.115   2.443  0.00  0.00    -0.043 A 
ATOM      6  C   UNL     1       0.329   0.980   3.193  0.00  0.00    +0.003 A 
ATOM      7  C   UNL     1      -0.377   1.323   4.331  0.00  0.00    +0.000 A 
ATOM      8  C   UNL     1      -1.471   0.572   4.722  0.00  0.00    +0.002 A 
ATOM      9  C   UNL     1      -1.861  -0.524   3.977  0.00  0.00    +0.023 A 
ATOM     10  C   UNL     1      -1.157  -0.868   2.830  0.00  0.00    +0.035 A 
BRANCH   5  11
ATOM     11  C   UNL     1       0.714  -0.488   1.202  0.00  0.00    -0.041 C 
BRANCH  11  13
ATOM     12  C   UNL     1      -0.014   1.479   0.036  0.00  0.00    -0.095 C 
ATOM     13  N   UNL     1       0.004   0.010   0.017  0.00  0.00    +0.382 N 
ATOM     14  H   UNL     1      -0.944  -0.338   0.022  0.00  0.00    -0.081 HD
BRANCH  13  15
ATOM     15  C   UNL     1       0.690  -0.455  -1.196  0.00  0.00    -0.069 C 
ATOM     16  C   UNL     1      -0.051   0.063  -2.431  0.00  0.00    -0.015 C 
ATOM     17  C   UNL     1       0.663  -0.422  -3.695  0.00  0.00    -0.002 C 
ATOM     18  C   UNL     1       0.682  -1.952  -3.715  0.00  0.00    -0.000 C 
ATOM     19  C   UNL     1       1.422  -2.470  -2.481  0.00  0.00    -0.002 C 
ATOM     20  C   UNL     1       0.708  -1.985  -1.217  0.00  0.00    -0.015 C 
ENDBRANCH  13  15
ENDBRANCH  11  13
ENDBRANCH   5  11
ENDBRANCH   1  10
BRANCH   2  21
ATOM     21  C   UNL     1      -3.221  -3.638   1.409  0.00  0.00    +0.040 A 
ATOM     22  C   UNL     1      -2.268  -4.372   0.701  0.00  0.00    +0.013 A 
ATOM     23  C   UNL     1      -2.636  -5.527   0.043  0.00  0.00    +0.004 A 
ATOM     24  C   UNL     1      -3.948  -5.962   0.083  0.00  0.00    +0.046 A 
ATOM     25  C   UNL     1      -4.903  -5.239   0.785  0.00  0.00    +0.122 A 
ATOM     26  C   UNL     1      -4.543  -4.081   1.453  0.00  0.00    +0.058 A 
BRANCH  25  27
ATOM     27  O   UNL     1      -6.192  -5.671   0.820  0.00  0.00    -0.486 OA
BRANCH  27  28
ATOM     28  C   UNL     1      -6.491  -6.876   0.113  0.00  0.00    +0.286 C 
BRANCH  28  29
ATOM     29  C   UNL     1      -7.956  -7.196   0.264  0.00  0.00    +0.097 A 
ATOM     30  C   UNL     1      -8.857  -6.461   0.953  0.00  0.00    +0.119 A 
ATOM     31  N   UNL     1     -10.065  -7.093   0.840  0.00  0.00    -0.306 N 
ATOM     32  C   UNL     1     -11.307  -6.803   1.327  0.00  0.00    +0.092 A 
ATOM     33  C   UNL     1     -12.354  -7.612   1.061  0.00  0.00    +0.018 A 
ATOM     34  C   UNL     1     -12.179  -8.765   0.280  0.00  0.00    +0.005 A 
ATOM     35  C   UNL     1     -10.946  -9.066  -0.211  0.00  0.00    +0.047 A 
ATOM     36  C   UNL     1      -9.863  -8.211   0.074  0.00  0.00    +0.138 A 
ATOM     37  N   UNL     1      -8.582  -8.249  -0.267  0.00  0.00    -0.229 NA
ENDBRANCH  28  29
ENDBRANCH  27  28
ENDBRANCH  25  27
ENDBRANCH   2  21
TORSDOF 8
