REMARK  Name = ZINC39289834
REMARK  8 active torsions:
REMARK  status: ('A' for Active; 'I' for Inactive)
REMARK    1  A    between atoms: C_1  and  O_2
REMARK    2  A    between atoms: O_2  and  C_3
REMARK    3  A    between atoms: N_15  and  C_17
REMARK    4  A    between atoms: C_17  and  C_18
REMARK    5  A    between atoms: C_18  and  C_19
REMARK    6  A    between atoms: C_19  and  C_20
REMARK    7  A    between atoms: C_20  and  N_21
REMARK    8  A    between atoms: C_35  and  O_38
REMARK                            x       y       z     vdW  Elec       q    Type
REMARK                         _______ _______ _______ _____ _____    ______ ____
ROOT
ATOM      1  C   UNL     1       0.538  -0.594  -1.135  0.00  0.00    +0.162 A 
ATOM      2  C   UNL     1       1.072   0.120  -2.202  0.00  0.00    +0.049 A 
ATOM      3  C   UNL     1       1.724  -0.508  -3.236  0.00  0.00    +0.006 A 
ATOM      4  C   UNL     1       1.874  -1.903  -3.282  0.00  0.00    -0.056 A 
ATOM      5  C   UNL     1       1.317  -2.605  -2.260  0.00  0.00    +0.013 A 
ATOM      6  C   UNL     1       0.668  -1.987  -1.181  0.00  0.00    +0.167 A 
ATOM      7  O   UNL     1       0.176  -2.885  -0.298  0.00  0.00    -0.484 OA
ATOM      8  C   UNL     1       0.784  -4.160  -0.548  0.00  0.00    +0.191 C 
ATOM      9  C   UNL     1       1.168  -4.098  -2.031  0.00  0.00    +0.053 C 
ATOM     10  C   UNL     1       2.484  -4.815  -2.250  0.00  0.00    +0.001 C 
ATOM     11  C   UNL     1       2.958  -4.718  -3.671  0.00  0.00    -0.077 C 
ATOM     12  N   UNL     1       3.608  -3.483  -4.006  0.00  0.00    +0.382 N 
ATOM     13  C   UNL     1       2.710  -2.422  -4.415  0.00  0.00    -0.043 C 
ATOM     14  C   UNL     1       0.104  -4.624  -2.938  0.00  0.00    -0.014 C 
ATOM     15  C   UNL     1      -0.986  -5.199  -2.554  0.00  0.00    +0.001 C 
ATOM     16  C   UNL     1      -1.352  -5.416  -1.121  0.00  0.00    +0.141 C 
ATOM     17  C   UNL     1      -0.138  -5.302  -0.218  0.00  0.00    +0.081 C 
ATOM     18  H   UNL     1       4.130  -3.168  -3.203  0.00  0.00    -0.081 HD
ENDROOT
BRANCH   1  20
ATOM     19  C   UNL     1      -0.153   1.457  -0.149  0.00  0.00    +0.277 C 
ATOM     20  O   UNL     1      -0.075   0.031  -0.095  0.00  0.00    -0.491 OA
ENDBRANCH   1  20
BRANCH  16  21
ATOM     21  O   UNL     1      -2.321  -4.440  -0.735  0.00  0.00    -0.388 OA
ATOM     22  H   UNL     1      -3.139  -4.472  -1.251  0.00  0.00    +0.210 HD
ENDBRANCH  16  21
BRANCH  12  23
ATOM     23  C   UNL     1       4.556  -3.739  -5.100  0.00  0.00    -0.078 C 
BRANCH  23  24
ATOM     24  C   UNL     1       5.685  -4.639  -4.596  0.00  0.00    -0.017 C 
BRANCH  24  25
ATOM     25  C   UNL     1       6.741  -4.794  -5.692  0.00  0.00    +0.019 C 
BRANCH  25  26
ATOM     26  C   UNL     1       7.871  -5.694  -5.188  0.00  0.00    +0.135 C 
BRANCH  26  27
ATOM     27  N   UNL     1       8.882  -5.843  -6.237  0.00  0.00    -0.168 N 
ATOM     28  C   UNL     1       8.876  -6.720  -7.253  0.00  0.00    +0.268 C 
ATOM     29  O   UNL     1       7.965  -7.513  -7.387  0.00  0.00    -0.268 OA
ATOM     30  C   UNL     1      10.000  -6.694  -8.198  0.00  0.00    +0.065 A 
ATOM     31  C   UNL     1      10.245  -7.487  -9.333  0.00  0.00    +0.015 A 
ATOM     32  C   UNL     1      11.379  -7.290 -10.087  0.00  0.00    +0.001 A 
ATOM     33  C   UNL     1      12.299  -6.313  -9.747  0.00  0.00    +0.002 A 
ATOM     34  C   UNL     1      12.074  -5.521  -8.631  0.00  0.00    +0.029 A 
ATOM     35  C   UNL     1      10.949  -5.713  -7.880  0.00  0.00    +0.121 A 
ATOM     36  S   UNL     1      10.284  -4.949  -6.426  0.00  0.00    +0.078 S 
ATOM     37  O   UNL     1       9.908  -3.622  -6.767  0.00  0.00    -0.150 OA
ATOM     38  O   UNL     1      11.147  -5.265  -5.342  0.00  0.00    -0.150 OA
ENDBRANCH  26  27
ENDBRANCH  25  26
ENDBRANCH  24  25
ENDBRANCH  23  24
ENDBRANCH  12  23
TORSDOF 7
