REMARK  Name = ZINC43284171
REMARK  7 active torsions:
REMARK  status: ('A' for Active; 'I' for Inactive)
REMARK    1  A    between atoms: C_1  and  C_2
REMARK    2  A    between atoms: C_2  and  C_3
REMARK    3  A    between atoms: C_3  and  C_5
REMARK    4  A    between atoms: C_3  and  N_19
REMARK    5  A    between atoms: C_5  and  C_7
REMARK    6  A    between atoms: C_5  and  S_13
REMARK    7  A    between atoms: S_13  and  C_14
REMARK                            x       y       z     vdW  Elec       q    Type
REMARK                         _______ _______ _______ _____ _____    ______ ____
ROOT
ATOM      1  C   UNL     1       0.868  -2.026   1.067  0.00  0.00    +0.075 C 
ENDROOT
BRANCH   1   2
ATOM      2  C   UNL     1       1.324  -2.517   2.417  0.00  0.00    +0.003 A 
ATOM      3  C   UNL     1       2.431  -3.230   2.737  0.00  0.00    +0.013 A 
ATOM      4  C   UNL     1       2.649  -3.574   4.058  0.00  0.00    +0.023 A 
ATOM      5  C   UNL     1       1.747  -3.188   4.995  0.00  0.00    +0.055 A 
ATOM      6  S   UNL     1       0.548  -2.304   4.011  0.00  0.00    -0.085 S 
ATOM      7 BR   UNL     1       1.760  -3.499   6.860  0.00  0.00    -0.043 Br
ENDBRANCH   1   2
BRANCH   1   8
ATOM      8  C   UNL     1       0.774  -0.499   1.085  0.00  0.00    -0.057 C 
BRANCH   8   9
ATOM      9  N   UNL     1       0.272  -0.024  -0.211  0.00  0.00    +0.381 N 
ATOM     10  H   UNL     1      -0.642  -0.416  -0.382  0.00  0.00    -0.090 HD
ATOM     11  H   UNL     1       0.210   0.983  -0.200  0.00  0.00    -0.090 HD
ATOM     12  H   UNL     1       0.904  -0.313  -0.943  0.00  0.00    -0.090 HD
ENDBRANCH   8   9
BRANCH   8  14
ATOM     13  C   UNL     1       2.044   1.613   1.495  0.00  0.00    +0.002 C 
ATOM     14  C   UNL     1       2.160   0.095   1.345  0.00  0.00    -0.018 C 
ENDBRANCH   8  14
ENDBRANCH   1   8
BRANCH   1  15
ATOM     15  S   UNL     1      -0.760  -2.728   0.686  0.00  0.00    -0.092 S 
BRANCH  15  16
ATOM     16  C   UNL     1      -0.446  -4.451   0.489  0.00  0.00    +0.135 A 
ATOM     17  N   UNL     1       0.712  -5.077   0.496  0.00  0.00    -0.241 NA
ATOM     18  C   UNL     1       0.779  -6.387   0.334  0.00  0.00    +0.120 A 
ATOM     19  C   UNL     1      -0.391  -7.047   0.160  0.00  0.00    +0.067 A 
ATOM     20  S   UNL     1      -1.554  -5.696   0.253  0.00  0.00    -0.069 S 
ENDBRANCH  15  16
ENDBRANCH   1  15
TORSDOF 6
