REMARK  Name = ZINC13399226
REMARK  7 active torsions:
REMARK  status: ('A' for Active; 'I' for Inactive)
REMARK    1  A    between atoms: C_1  and  C_2
REMARK    2  A    between atoms: C_2  and  C_5
REMARK    3  A    between atoms: N_3  and  O_4
REMARK    4  A    between atoms: C_10  and  C_30
REMARK    5  A    between atoms: C_20  and  C_29
REMARK    6  A    between atoms: C_21  and  O_28
REMARK    7  A    between atoms: C_24  and  O_27
REMARK                            x       y       z     vdW  Elec       q    Type
REMARK                         _______ _______ _______ _____ _____    ______ ____
ROOT
ATOM      1  C   UNL     1       2.726   3.462  -0.005  0.00  0.00    -0.021 C 
ATOM      2  C   UNL     1       2.970   4.774  -0.006  0.00  0.00    -0.021 C 
ATOM      3  C   UNL     1       4.468   5.024  -0.016  0.00  0.00    +0.032 C 
ATOM      4  C   UNL     1       5.040   3.706  -0.629  0.00  0.00    +0.007 C 
ATOM      5  C   UNL     1       4.032   2.711  -0.022  0.00  0.00    -0.002 C 
ATOM      6  C   UNL     1       3.961   1.400  -0.765  0.00  0.00    +0.012 C 
ATOM      7  C   UNL     1       3.724   1.616  -2.259  0.00  0.00    +0.005 C 
ATOM      8  C   UNL     1       4.882   2.454  -2.813  0.00  0.00    +0.005 C 
ATOM      9  C   UNL     1       4.859   3.822  -2.141  0.00  0.00    +0.001 C 
ATOM     10  C   UNL     1       3.518   4.495  -2.454  0.00  0.00    +0.031 C 
ATOM     11  C   UNL     1       3.395   4.620  -3.949  0.00  0.00    -0.027 C 
ATOM     12  C   UNL     1       3.954   3.771  -4.761  0.00  0.00    -0.062 C 
ATOM     13  C   UNL     1       4.748   2.578  -4.318  0.00  0.00    +0.018 C 
ATOM     14  C   UNL     1       6.119   2.607  -4.995  0.00  0.00    +0.127 C 
ATOM     15  C   UNL     1       5.925   2.685  -6.512  0.00  0.00    +0.063 C 
ATOM     16  C   UNL     1       5.203   3.981  -6.881  0.00  0.00    +0.121 C 
ATOM     17  C   UNL     1       3.803   3.991  -6.258  0.00  0.00    +0.062 C 
ATOM     18  C   UNL     1       4.030   1.327  -4.827  0.00  0.00    +0.018 C 
ATOM     19  C   UNL     1       4.452   2.433   1.423  0.00  0.00    +0.016 C 
ENDROOT
BRANCH   1  21
ATOM     20  C   UNL     1       0.161   3.715   0.021  0.00  0.00    +0.069 C 
ATOM     21  C   UNL     1       1.393   2.846   0.004  0.00  0.00    +0.080 C 
ATOM     22  N   UNL     1       1.275   1.556  -0.002  0.00  0.00    -0.092 NA
BRANCH  22  23
ATOM     23  O   UNL     1      -0.011   0.963   0.007  0.00  0.00    -0.409 OA
ATOM     24  H   UNL     1      -0.111  -0.133   0.002  0.00  0.00    +0.328 HD
ENDBRANCH  22  23
ENDBRANCH   1  21
BRANCH  16  25
ATOM     25  O   UNL     1       5.950   5.096  -6.388  0.00  0.00    -0.391 OA
ATOM     26  H   UNL     1       5.585   6.120  -6.558  0.00  0.00    +0.210 HD
ENDBRANCH  16  25
BRANCH  14  27
ATOM     27  O   UNL     1       6.851   3.749  -4.547  0.00  0.00    -0.391 OA
ATOM     28  H   UNL     1       7.866   3.937  -4.929  0.00  0.00    +0.210 HD
ENDBRANCH  14  27
TORSDOF 4
