REMARK  Name = ZINC39529181
REMARK  7 active torsions:
REMARK  status: ('A' for Active; 'I' for Inactive)
REMARK    1  A    between atoms: C_1  and  C_2
REMARK    2  A    between atoms: C_2  and  C_3
REMARK    3  A    between atoms: C_3  and  C_4
REMARK    4  A    between atoms: C_9  and  N_10
REMARK    5  A    between atoms: C_14  and  S_17
REMARK    6  A    between atoms: S_17  and  O_20
REMARK    7  A    between atoms: O_20  and  C_21
REMARK                            x       y       z     vdW  Elec       q    Type
REMARK                         _______ _______ _______ _____ _____    ______ ____
ROOT
ATOM      1  N   UNL     1      -1.180  -2.049   2.407  0.00  0.00    -0.331 N 
ATOM      2  C   UNL     1      -2.377  -1.698   3.186  0.00  0.00    +0.086 C 
ATOM      3  C   UNL     1      -2.165  -2.154   4.634  0.00  0.00    -0.061 C 
ATOM      4  N   UNL     1      -0.916  -1.579   5.149  0.00  0.00    +0.398 N 
ATOM      5  C   UNL     1       0.228  -2.111   4.396  0.00  0.00    +0.133 C 
ATOM      6  C   UNL     1       0.134  -1.657   2.940  0.00  0.00    +0.115 C 
ATOM      7  H   UNL     1      -0.944  -0.575   5.052  0.00  0.00    -0.083 HD
ATOM      8  H   UNL     1      -0.814  -1.817   6.124  0.00  0.00    -0.083 HD
ENDROOT
BRANCH   1  14
ATOM      9  C   UNL     1      -1.413  -2.041   0.005  0.00  0.00    -0.025 A 
ATOM     10  C   UNL     1      -1.513  -2.727  -1.190  0.00  0.00    +0.019 A 
ATOM     11  C   UNL     1      -1.495  -4.110  -1.198  0.00  0.00    +0.014 A 
ATOM     12  C   UNL     1      -1.376  -4.810  -0.011  0.00  0.00    +0.016 A 
ATOM     13  C   UNL     1      -1.275  -4.130   1.186  0.00  0.00    +0.024 A 
ATOM     14  C   UNL     1      -1.287  -2.741   1.198  0.00  0.00    +0.033 A 
ATOM     15  I   UNL     1      -1.647  -5.146  -3.013  0.00  0.00    -0.044 I 
BRANCH   9  16
ATOM     16  C   UNL     1      -1.433  -0.534   0.013  0.00  0.00    +0.037 C 
BRANCH  16  18
ATOM     17  C   UNL     1      -0.019   1.526   0.010  0.00  0.00    +0.004 C 
ATOM     18  C   UNL     1       0.002  -0.004   0.002  0.00  0.00    +0.001 C 
ENDBRANCH  16  18
ENDBRANCH   9  16
ENDBRANCH   1  14
BRANCH   5  19
ATOM     19  S   UNL     1       1.771  -1.496   5.125  0.00  0.00    +0.109 S 
ATOM     20  O   UNL     1       2.886  -2.139   4.524  0.00  0.00    -0.138 OA
ATOM     21  O   UNL     1       1.727  -0.081   5.243  0.00  0.00    -0.138 OA
BRANCH  19  22
ATOM     22  O   UNL     1       1.755  -2.006   6.559  0.00  0.00    -0.347 OA
BRANCH  22  23
ATOM     23  C   UNL     1       2.029  -3.331   6.678  0.00  0.00    +0.156 A 
ATOM     24  C   UNL     1       1.000  -4.260   6.631  0.00  0.00    +0.048 A 
ATOM     25  C   UNL     1       1.281  -5.607   6.752  0.00  0.00    +0.004 A 
ATOM     26  C   UNL     1       2.587  -6.030   6.919  0.00  0.00    +0.000 A 
ATOM     27  C   UNL     1       3.614  -5.106   6.966  0.00  0.00    +0.004 A 
ATOM     28  C   UNL     1       3.339  -3.759   6.840  0.00  0.00    +0.048 A 
ENDBRANCH  22  23
ENDBRANCH  19  22
ENDBRANCH   5  19
TORSDOF 6
