REMARK  Name = ZINC20207824
REMARK  4 active torsions:
REMARK  status: ('A' for Active; 'I' for Inactive)
REMARK    1  A    between atoms: C_1  and  S_2
REMARK    2  A    between atoms: S_2  and  C_5
REMARK    3  A    between atoms: C_11  and  C_12
REMARK    4  A    between atoms: C_15  and  C_17
REMARK                            x       y       z     vdW  Elec       q    Type
REMARK                         _______ _______ _______ _____ _____    ______ ____
ROOT
ATOM      1  C   UNL     1       1.010   1.209  -1.904  0.00  0.00    +0.235 C 
ATOM      2  N   UNL     1       2.169   0.616  -1.952  0.00  0.00    -0.145 NA
ATOM      3  N   UNL     1       2.605  -0.010  -3.099  0.00  0.00    -0.150 N 
ATOM      4  C   UNL     1       3.797  -0.755  -3.232  0.00  0.00    +0.153 C 
ATOM      5  N   UNL     1       4.422  -1.296  -2.218  0.00  0.00    -0.283 NA
ATOM      6  C   UNL     1       4.271  -0.864  -4.637  0.00  0.00    +0.084 C 
ATOM      7  C   UNL     1       5.622  -0.916  -4.949  0.00  0.00    +0.063 C 
ATOM      8  C   UNL     1       3.226  -0.914  -5.685  0.00  0.00    +0.273 C 
ATOM      9  O   UNL     1       3.445  -1.442  -6.764  0.00  0.00    -0.268 OA
ATOM     10  N   UNL     1       2.027  -0.362  -5.413  0.00  0.00    -0.152 NA
ATOM     11  C   UNL     1       1.785   0.079  -4.204  0.00  0.00    +0.182 C 
ATOM     12  S   UNL     1       0.376   0.936  -3.553  0.00  0.00    -0.015 S 
ATOM     13  H   UNL     1       4.069  -1.195  -1.320  0.00  0.00    +0.188 HD
ENDROOT
BRANCH   7  14
ATOM     14  C   UNL     1       6.583  -0.684  -3.952  0.00  0.00    +0.129 A 
ATOM     15  C   UNL     1       7.955  -0.836  -4.093  0.00  0.00    +0.050 A 
ATOM     16  C   UNL     1       8.525  -0.502  -2.865  0.00  0.00    +0.050 A 
ATOM     17  C   UNL     1       7.491  -0.160  -2.019  0.00  0.00    +0.136 A 
ATOM     18  O   UNL     1       6.332  -0.270  -2.691  0.00  0.00    -0.455 OA
BRANCH  17  19
ATOM     19  C   UNL     1       7.633   0.262  -0.612  0.00  0.00    +0.017 A 
ATOM     20  C   UNL     1       8.900   0.347  -0.030  0.00  0.00    +0.012 A 
ATOM     21  C   UNL     1       9.026   0.742   1.285  0.00  0.00    +0.016 A 
ATOM     22  C   UNL     1       7.900   1.054   2.029  0.00  0.00    +0.018 A 
ATOM     23  C   UNL     1       6.641   0.971   1.458  0.00  0.00    +0.016 A 
ATOM     24  C   UNL     1       6.501   0.583   0.142  0.00  0.00    +0.012 A 
ATOM     25 BR   UNL     1       8.082   1.593   3.832  0.00  0.00    -0.050 Br
ENDBRANCH  17  19
ENDBRANCH   7  14
BRANCH   1  27
ATOM     26  C   UNL     1       0.669   3.804  -0.815  0.00  0.00    +0.202 C 
ATOM     27  S   UNL     1       0.256   2.057  -0.556  0.00  0.00    +0.019 S 
ATOM     28  O   UNL     1       0.920   1.564   0.600  0.00  0.00    -0.168 OA
ATOM     29  O   UNL     1      -1.139   1.852  -0.733  0.00  0.00    -0.168 OA
ENDBRANCH   1  27
TORSDOF 3
