REMARK  Name = ZINC13782333
REMARK  5 active torsions:
REMARK  status: ('A' for Active; 'I' for Inactive)
REMARK    1  A    between atoms: C_3  and  C_12
REMARK    2  A    between atoms: C_12  and  N_52
REMARK    3  A    between atoms: C_13  and  C_14
REMARK    4  A    between atoms: C_13  and  N_52
REMARK    5  A    between atoms: C_20  and  C_22
REMARK                            x       y       z     vdW  Elec       q    Type
REMARK                         _______ _______ _______ _____ _____    ______ ____
ROOT
ATOM      1  C   UNL     1       1.651   1.794   4.664  0.00  0.00    -0.079 C 
ENDROOT
BRANCH   1   2
ATOM      2  C   UNL     1       1.306   1.451   3.213  0.00  0.00    -0.025 C 
ATOM      3  C   UNL     1      -0.117   0.890   3.146  0.00  0.00    +0.021 C 
ATOM      4  C   UNL     1      -0.446   0.515   1.698  0.00  0.00    +0.108 C 
ATOM      5  N   UNL     1      -0.218   1.688   0.842  0.00  0.00    -0.297 N 
ATOM      6  C   UNL     1       1.088   2.359   0.897  0.00  0.00    +0.108 C 
ATOM      7  C   UNL     1       1.400   2.714   2.354  0.00  0.00    +0.021 C 
ATOM      8  C   UNL     1      -1.187   2.136   0.019  0.00  0.00    +0.248 C 
ATOM      9  O   UNL     1      -1.011   3.147  -0.633  0.00  0.00    -0.270 OA
BRANCH   8  10
ATOM     10  C   UNL     1      -2.463   1.399  -0.090  0.00  0.00    +0.057 A 
ATOM     11  C   UNL     1      -2.467   0.002  -0.098  0.00  0.00    +0.014 A 
ATOM     12  C   UNL     1      -3.661  -0.680  -0.201  0.00  0.00    +0.002 A 
ATOM     13  C   UNL     1      -4.854   0.014  -0.296  0.00  0.00    +0.021 A 
ATOM     14  C   UNL     1      -4.859   1.398  -0.289  0.00  0.00    +0.060 A 
ATOM     15  C   UNL     1      -3.670   2.095  -0.180  0.00  0.00    +0.071 A 
ATOM     16 CL   UNL     1      -3.677   3.831  -0.163  0.00  0.00    -0.081 Cl
ATOM     17 CL   UNL     1      -6.361   2.260  -0.409  0.00  0.00    -0.082 Cl
ENDBRANCH   8  10
ENDBRANCH   1   2
BRANCH   1  18
ATOM     18  N   UNL     1       3.061   2.219   4.738  0.00  0.00    +0.383 N 
ATOM     19  H   UNL     1       3.663   1.455   4.408  0.00  0.00    -0.085 HD
ATOM     20  H   UNL     1       3.198   3.044   4.142  0.00  0.00    -0.085 HD
BRANCH  18  21
ATOM     21  C   UNL     1       3.422   2.557   6.127  0.00  0.00    -0.026 C 
BRANCH  21  24
ATOM     22  C   UNL     1       6.511   4.720   6.148  0.00  0.00    +0.005 A 
ATOM     23  C   UNL     1       5.179   4.331   6.106  0.00  0.00    +0.021 A 
ATOM     24  C   UNL     1       4.866   2.987   6.172  0.00  0.00    +0.027 A 
ATOM     25  N   UNL     1       5.814   2.076   6.279  0.00  0.00    -0.235 NA
ATOM     26  C   UNL     1       7.094   2.407   6.316  0.00  0.00    +0.154 A 
ATOM     27  C   UNL     1       7.482   3.740   6.255  0.00  0.00    +0.048 A 
ATOM     28  N   UNL     1       8.065   1.407   6.425  0.00  0.00    -0.222 N 
ATOM     29  C   UNL     1       7.833   0.071   6.500  0.00  0.00    +0.116 A 
ATOM     30  C   UNL     1       9.032  -0.548   6.591  0.00  0.00    +0.041 A 
ATOM     31  C   UNL     1      10.028   0.435   6.580  0.00  0.00    +0.135 A 
ATOM     32  N   UNL     1       9.451   1.605   6.481  0.00  0.00    -0.173 NA
ENDBRANCH  21  24
ENDBRANCH  18  21
ENDBRANCH   1  18
TORSDOF 5
