REMARK  Name = ZINC23888088
REMARK  8 active torsions:
REMARK  status: ('A' for Active; 'I' for Inactive)
REMARK    1  A    between atoms: C_1  and  C_2
REMARK    2  A    between atoms: C_2  and  C_3
REMARK    3  A    between atoms: C_9  and  C_11
REMARK    4  A    between atoms: C_11  and  C_13
REMARK    5  A    between atoms: C_11  and  N_22
REMARK    6  A    between atoms: C_16  and  N_19
REMARK    7  A    between atoms: C_25  and  C_28
REMARK    8  A    between atoms: C_28  and  C_29
REMARK                            x       y       z     vdW  Elec       q    Type
REMARK                         _______ _______ _______ _____ _____    ______ ____
ROOT
ATOM      1  C   UNL     1       3.450   2.156  -1.314  0.00  0.00    +0.006 C 
ENDROOT
BRANCH   1   8
ATOM      2  C   UNL     1       6.247   1.007  -6.453  0.00  0.00    +0.152 A 
ATOM      3  N   UNL     1       4.980   1.410  -6.516  0.00  0.00    -0.205 NA
ATOM      4  C   UNL     1       4.531   1.613  -5.308  0.00  0.00    +0.199 A 
ATOM      5  N   UNL     1       5.513   1.343  -4.404  0.00  0.00    -0.170 N 
ATOM      6  N   UNL     1       6.618   0.949  -5.202  0.00  0.00    -0.146 NA
ATOM      7  C   UNL     1       5.208   1.512  -3.075  0.00  0.00    +0.282 A 
ATOM      8  C   UNL     1       3.988   1.915  -2.701  0.00  0.00    +0.050 A 
ATOM      9  S   UNL     1       3.169   2.101  -4.277  0.00  0.00    -0.050 S 
ATOM     10  O   UNL     1       6.154   1.262  -2.130  0.00  0.00    -0.265 OA
BRANCH   2  12
ATOM     11  C   UNL     1       6.970  -0.816  -7.971  0.00  0.00    +0.012 C 
ATOM     12  C   UNL     1       7.116   0.670  -7.637  0.00  0.00    +0.075 C 
ENDBRANCH   2  12
ENDBRANCH   1   8
BRANCH   1  13
ATOM     13  N   UNL     1       2.112   1.560  -1.198  0.00  0.00    +0.387 N 
ATOM     14  C   UNL     1       1.419   2.052  -0.001  0.00  0.00    -0.077 C 
ATOM     15  C   UNL     1      -0.019   1.527   0.010  0.00  0.00    -0.015 C 
ATOM     16  C   UNL     1       0.002  -0.004   0.002  0.00  0.00    -0.010 C 
ATOM     17  C   UNL     1       0.771  -0.489  -1.230  0.00  0.00    -0.015 C 
ATOM     18  C   UNL     1       2.186   0.094  -1.205  0.00  0.00    -0.077 C 
ATOM     19  H   UNL     1       1.525   1.870  -2.076  0.00  0.00    -0.080 HD
BRANCH  16  20
ATOM     20  C   UNL     1      -1.432  -0.535  -0.049  0.00  0.00    +0.038 C 
BRANCH  20  21
ATOM     21  C   UNL     1      -1.416  -2.037   0.067  0.00  0.00    -0.047 A 
ATOM     22  C   UNL     1      -1.339  -2.817  -1.072  0.00  0.00    +0.003 A 
ATOM     23  C   UNL     1      -1.320  -4.195  -0.966  0.00  0.00    +0.000 A 
ATOM     24  C   UNL     1      -1.388  -4.793   0.279  0.00  0.00    +0.000 A 
ATOM     25  C   UNL     1      -1.470  -4.014   1.417  0.00  0.00    +0.000 A 
ATOM     26  C   UNL     1      -1.485  -2.635   1.311  0.00  0.00    +0.003 A 
ENDBRANCH  20  21
ENDBRANCH  16  20
ENDBRANCH   1  13
BRANCH   1  27
ATOM     27  C   UNL     1       3.364   3.638  -1.059  0.00  0.00    -0.056 A 
ATOM     28  C   UNL     1       2.304   4.367  -1.565  0.00  0.00    +0.004 A 
ATOM     29  C   UNL     1       2.222   5.726  -1.327  0.00  0.00    +0.033 A 
ATOM     30  C   UNL     1       3.206   6.359  -0.591  0.00  0.00    +0.126 A 
ATOM     31  C   UNL     1       4.269   5.631  -0.089  0.00  0.00    +0.033 A 
ATOM     32  C   UNL     1       4.348   4.271  -0.323  0.00  0.00    +0.004 A 
BRANCH  30  33
ATOM     33  N   UNL     1       3.122   7.815  -0.340  0.00  0.00    +0.056 N 
ATOM     34  O   UNL     1       3.989   8.373   0.308  0.00  0.00    -0.126 OA
ATOM     35  O   UNL     1       2.185   8.456  -0.782  0.00  0.00    -0.126 OA
ENDBRANCH  30  33
ENDBRANCH   1  27
TORSDOF 7
