REMARK  Name = ZINC30983114
REMARK  8 active torsions:
REMARK  status: ('A' for Active; 'I' for Inactive)
REMARK    1  A    between atoms: C_1  and  C_2
REMARK    2  A    between atoms: C_5  and  C_8
REMARK    3  A    between atoms: C_8  and  C_10
REMARK    4  A    between atoms: C_8  and  N_11
REMARK    5  A    between atoms: C_12  and  C_14
REMARK    6  A    between atoms: N_17  and  C_20
REMARK    7  A    between atoms: C_20  and  C_21
REMARK    8  A    between atoms: C_23  and  C_26
REMARK                            x       y       z     vdW  Elec       q    Type
REMARK                         _______ _______ _______ _____ _____    ______ ____
ROOT
ATOM      1  C   UNL     1       2.783  -1.099   2.395  0.00  0.00    +0.071 C 
ATOM      2  C   UNL     1       2.509  -0.161   3.573  0.00  0.00    -0.006 C 
ATOM      3  C   UNL     1       3.300  -0.638   4.793  0.00  0.00    -0.077 C 
ATOM      4  N   UNL     1       4.733  -0.649   4.476  0.00  0.00    +0.386 N 
ATOM      5  C   UNL     1       5.027  -1.579   3.378  0.00  0.00    -0.077 C 
ATOM      6  C   UNL     1       4.288  -1.129   2.115  0.00  0.00    -0.006 C 
ATOM      7  H   UNL     1       5.010   0.362   4.142  0.00  0.00    -0.081 HD
ENDROOT
BRANCH   1   9
ATOM      8  N   UNL     1       0.711  -0.489   1.189  0.00  0.00    -0.309 N 
ATOM      9  C   UNL     1       2.054  -0.600   1.174  0.00  0.00    +0.216 C 
ATOM     10  O   UNL     1       2.676  -0.297   0.177  0.00  0.00    -0.276 OA
ATOM     11  H   UNL     1       0.146  -0.764   2.092  0.00  0.00    +0.149 HD
BRANCH   8  12
ATOM     12  C   UNL     1       0.002  -0.004   0.002  0.00  0.00    +0.100 C 
ATOM     13  C   UNL     1      -0.019   1.526   0.010  0.00  0.00    +0.033 C 
BRANCH  12  18
ATOM     14  C   UNL     1      -5.419  -2.005   0.043  0.00  0.00    +0.044 C 
ATOM     15  C   UNL     1      -4.005  -1.483   0.032  0.00  0.00    -0.050 A 
ATOM     16  C   UNL     1      -3.296  -1.433  -1.153  0.00  0.00    +0.004 A 
ATOM     17  C   UNL     1      -2.000  -0.954  -1.163  0.00  0.00    +0.006 A 
ATOM     18  C   UNL     1      -1.412  -0.526   0.013  0.00  0.00    -0.027 A 
ATOM     19  C   UNL     1      -2.119  -0.582   1.199  0.00  0.00    +0.006 A 
ATOM     20  C   UNL     1      -3.417  -1.056   1.208  0.00  0.00    +0.004 A 
ENDBRANCH  12  18
ENDBRANCH   8  12
ENDBRANCH   1   9
BRANCH   4  21
ATOM     21  C   UNL     1       5.534  -0.969   5.665  0.00  0.00    +0.022 C 
BRANCH  21  22
ATOM     22  C   UNL     1       5.394   0.138   6.678  0.00  0.00    +0.211 A 
ATOM     23  N   UNL     1       4.493   0.216   7.625  0.00  0.00    -0.193 NA
ATOM     24  C   UNL     1       4.754   1.369   8.281  0.00  0.00    +0.202 A 
ATOM     25  N   UNL     1       5.788   1.919   7.699  0.00  0.00    -0.056 NA
ATOM     26  O   UNL     1       6.169   1.222   6.782  0.00  0.00    -0.340 OA
BRANCH  24  27
ATOM     27  C   UNL     1       4.007   1.911   9.443  0.00  0.00    +0.023 A 
ATOM     28  C   UNL     1       2.914   1.215   9.957  0.00  0.00    +0.014 A 
ATOM     29  C   UNL     1       2.225   1.720  11.040  0.00  0.00    +0.039 A 
ATOM     30  C   UNL     1       2.612   2.922  11.611  0.00  0.00    +0.123 A 
ATOM     31  C   UNL     1       3.695   3.619  11.100  0.00  0.00    +0.039 A 
ATOM     32  C   UNL     1       4.393   3.119  10.020  0.00  0.00    +0.014 A 
ATOM     33  F   UNL     1       1.932   3.415  12.669  0.00  0.00    -0.205 F 
ENDBRANCH  24  27
ENDBRANCH  21  22
ENDBRANCH   4  21
TORSDOF 6
