REMARK  Name = ZINC09794530
REMARK  9 active torsions:
REMARK  status: ('A' for Active; 'I' for Inactive)
REMARK    1  A    between atoms: C_1  and  C_2
REMARK    2  A    between atoms: C_9  and  C_11
REMARK    3  A    between atoms: N_13  and  N_14
REMARK    4  A    between atoms: N_17  and  C_18
REMARK    5  A    between atoms: C_18  and  C_19
REMARK    6  A    between atoms: C_19  and  C_21
REMARK    7  A    between atoms: C_19  and  N_26
REMARK    8  A    between atoms: N_26  and  C_27
REMARK    9  A    between atoms: N_26  and  C_28
REMARK                            x       y       z     vdW  Elec       q    Type
REMARK                         _______ _______ _______ _____ _____    ______ ____
ROOT
ATOM      1  N   UNL     1       1.960  -7.395   3.250  0.00  0.00    -0.218 N 
ATOM      2  C   UNL     1       1.957  -8.693   2.887  0.00  0.00    +0.316 C 
ATOM      3  O   UNL     1       2.058  -9.560   3.732  0.00  0.00    -0.251 OA
ATOM      4  N   UNL     1       1.842  -9.029   1.587  0.00  0.00    -0.299 N 
ATOM      5  H   UNL     1       2.043  -7.153   4.185  0.00  0.00    +0.174 HD
ATOM      6  H   UNL     1       1.761  -8.336   0.912  0.00  0.00    +0.150 HD
ENDROOT
BRANCH   1   9
ATOM      7  C   UNL     1       1.847  -5.097   2.638  0.00  0.00    +0.267 C 
ATOM      8  O   UNL     1       1.950  -4.793   3.812  0.00  0.00    -0.268 OA
ATOM      9  N   UNL     1       1.844  -6.395   2.275  0.00  0.00    -0.229 N 
ATOM     10  H   UNL     1       1.761  -6.637   1.339  0.00  0.00    +0.173 HD
BRANCH   7  18
ATOM     11  C   UNL     1       1.071   1.633  -0.737  0.00  0.00    +0.008 C 
ATOM     12  C   UNL     1       0.948   0.110  -0.669  0.00  0.00    -0.009 C 
ATOM     13  C   UNL     1       1.699  -0.514  -1.849  0.00  0.00    +0.009 C 
ATOM     14  C   UNL     1       1.346  -2.006  -1.925  0.00  0.00    +0.043 C 
ATOM     15  C   UNL     1       1.487  -2.598  -0.554  0.00  0.00    -0.006 A 
ATOM     16  C   UNL     1       1.580  -1.916   0.624  0.00  0.00    -0.036 A 
ATOM     17  C   UNL     1       1.707  -2.677   1.776  0.00  0.00    +0.024 A 
ATOM     18  C   UNL     1       1.725  -4.051   1.619  0.00  0.00    +0.076 A 
ATOM     19  S   UNL     1       1.562  -4.216  -0.149  0.00  0.00    -0.088 S 
ATOM     20  C   UNL     1       1.546  -0.390   0.647  0.00  0.00    +0.039 C 
ENDBRANCH   7  18
ENDBRANCH   1   9
BRANCH   4  21
ATOM     21  C   UNL     1       1.839 -10.440   1.192  0.00  0.00    +0.095 C 
BRANCH  21  22
ATOM     22  C   UNL     1       1.584 -10.548  -0.312  0.00  0.00    -0.014 C 
BRANCH  22  23
ATOM     23  C   UNL     1       2.727  -9.915  -1.062  0.00  0.00    -0.022 A 
ATOM     24  C   UNL     1       2.802  -8.683  -1.623  0.00  0.00    +0.009 A 
ATOM     25  C   UNL     1       3.966  -8.310  -2.269  0.00  0.00    +0.008 A 
ATOM     26  C   UNL     1       4.998  -9.188  -2.322  0.00  0.00    +0.045 A 
ATOM     27  S   UNL     1       4.337 -10.589  -1.436  0.00  0.00    -0.103 S 
ENDBRANCH  22  23
BRANCH  22  28
ATOM     28  N   UNL     1       1.475 -11.964  -0.690  0.00  0.00    +0.382 N 
ATOM     29  C   UNL     1       0.339 -12.572   0.016  0.00  0.00    -0.096 C 
ATOM     30  C   UNL     1       1.264 -12.069  -2.140  0.00  0.00    -0.096 C 
ATOM     31  H   UNL     1       2.325 -12.445  -0.438  0.00  0.00    -0.082 HD
ENDBRANCH  22  28
ENDBRANCH  21  22
ENDBRANCH   4  21
TORSDOF 6
