REMARK  Name = ZINC36498482
REMARK  15 active torsions:
REMARK  status: ('A' for Active; 'I' for Inactive)
REMARK    1  A    between atoms: C_1  and  C_2
REMARK    2  A    between atoms: C_2  and  C_3
REMARK    3  A    between atoms: C_2  and  C_4
REMARK    4  A    between atoms: C_2  and  C_5
REMARK    5  A    between atoms: C_5  and  C_6
REMARK    6  A    between atoms: C_6  and  C_7
REMARK    7  A    between atoms: C_6  and  C_8
REMARK    8  A    between atoms: C_6  and  N_9
REMARK    9  A    between atoms: C_10  and  C_12
REMARK   10  A    between atoms: C_12  and  C_14
REMARK   11  A    between atoms: C_12  and  N_23
REMARK   12  A    between atoms: C_17  and  N_20
REMARK   13  A    between atoms: N_23  and  C_24
REMARK   14  A    between atoms: C_24  and  C_25
REMARK   15  A    between atoms: C_30  and  C_32
REMARK                            x       y       z     vdW  Elec       q    Type
REMARK                         _______ _______ _______ _____ _____    ______ ____
ROOT
ATOM      1  C   UNL     1       5.621  -0.440  -4.597  0.00  0.00    +0.193 C 
ENDROOT
BRANCH   1   2
ATOM      2  C   UNL     1       6.479  -1.677  -4.659  0.00  0.00    -0.018 A 
ATOM      3  C   UNL     1       7.691  -1.711  -3.995  0.00  0.00    +0.008 A 
ATOM      4  C   UNL     1       8.479  -2.846  -4.053  0.00  0.00    +0.033 A 
ATOM      5  C   UNL     1       8.054  -3.946  -4.774  0.00  0.00    +0.126 A 
ATOM      6  C   UNL     1       6.842  -3.912  -5.437  0.00  0.00    +0.033 A 
ATOM      7  C   UNL     1       6.052  -2.779  -5.376  0.00  0.00    +0.008 A 
BRANCH   5   8
ATOM      8  N   UNL     1       8.898  -5.161  -4.836  0.00  0.00    +0.056 N 
ATOM      9  O   UNL     1       9.959  -5.191  -4.256  0.00  0.00    -0.126 OA
ATOM     10  O   UNL     1       8.527  -6.123  -5.466  0.00  0.00    -0.126 OA
ENDBRANCH   5   8
ENDBRANCH   1   2
BRANCH   1  12
ATOM     11  N   UNL     1       3.618  -0.951  -3.237  0.00  0.00    -0.308 N 
ATOM     12  C   UNL     1       4.857  -0.424  -3.298  0.00  0.00    +0.239 C 
ATOM     13  O   UNL     1       5.357   0.064  -2.306  0.00  0.00    -0.273 OA
ATOM     14  H   UNL     1       3.218  -1.341  -4.030  0.00  0.00    +0.149 HD
BRANCH  11  15
ATOM     15  C   UNL     1       2.876  -0.935  -1.975  0.00  0.00    +0.030 C 
ATOM     16  C   UNL     1       3.005   0.444  -1.325  0.00  0.00    +0.031 C 
ATOM     17  C   UNL     1       3.447  -1.998  -1.034  0.00  0.00    +0.031 C 
BRANCH  15  18
ATOM     18  C   UNL     1       1.400  -1.235  -2.247  0.00  0.00    +0.031 C 
BRANCH  18  20
ATOM     19  C   UNL     1       1.331  -1.156  -4.743  0.00  0.00    +0.010 C 
ATOM     20  C   UNL     1       0.931  -0.427  -3.458  0.00  0.00    -0.036 C 
ATOM     21  C   UNL     1       1.583   0.957  -3.433  0.00  0.00    +0.010 C 
ATOM     22  C   UNL     1      -0.591  -0.275  -3.411  0.00  0.00    +0.010 C 
ENDBRANCH  18  20
ENDBRANCH  15  18
ENDBRANCH  11  15
ENDBRANCH   1  12
BRANCH   1  23
ATOM     23  N   UNL     1       6.472   0.750  -4.678  0.00  0.00    -0.272 N 
ATOM     24  C   UNL     1       7.158   1.011  -5.808  0.00  0.00    +0.283 C 
ATOM     25  O   UNL     1       7.904   1.971  -5.858  0.00  0.00    -0.267 OA
BRANCH  24  26
ATOM     26  C   UNL     1       7.006   0.139  -6.977  0.00  0.00    +0.189 A 
ATOM     27  C   UNL     1       7.763   0.180  -8.113  0.00  0.00    +0.054 A 
ATOM     28  C   UNL     1       7.274  -0.826  -8.960  0.00  0.00    +0.042 A 
ATOM     29  C   UNL     1       6.253  -1.430  -8.313  0.00  0.00    +0.196 A 
ATOM     30  O   UNL     1       6.098  -0.849  -7.116  0.00  0.00    -0.458 OA
ENDBRANCH  24  26
BRANCH  23  31
ATOM     31  C   UNL     1       6.576   1.655  -3.531  0.00  0.00    +0.183 C 
BRANCH  31  32
ATOM     32  C   UNL     1       7.644   1.155  -2.592  0.00  0.00    +0.122 A 
ATOM     33  C   UNL     1       8.947   1.489  -2.633  0.00  0.00    +0.046 A 
ATOM     34  C   UNL     1       9.580   0.795  -1.577  0.00  0.00    +0.041 A 
ATOM     35  C   UNL     1       8.627   0.079  -0.954  0.00  0.00    +0.195 A 
ATOM     36  O   UNL     1       7.455   0.305  -1.569  0.00  0.00    -0.466 OA
ENDBRANCH  31  32
ENDBRANCH  23  31
ENDBRANCH   1  23
TORSDOF 10
