REMARK  Name = ZINC00719230
REMARK  8 active torsions:
REMARK  status: ('A' for Active; 'I' for Inactive)
REMARK    1  A    between atoms: C_1  and  C_2
REMARK    2  A    between atoms: C_4  and  C_30
REMARK    3  A    between atoms: C_5  and  N_9
REMARK    4  A    between atoms: C_6  and  C_8
REMARK    5  A    between atoms: C_10  and  S_14
REMARK    6  A    between atoms: S_14  and  C_15
REMARK    7  A    between atoms: C_15  and  C_16
REMARK    8  A    between atoms: N_18  and  C_19
REMARK                            x       y       z     vdW  Elec       q    Type
REMARK                         _______ _______ _______ _____ _____    ______ ____
ROOT
ATOM      1  C   UNL     1      -0.657   0.227   0.075  0.00  0.00    +0.173 C 
ENDROOT
BRANCH   1   2
ATOM      2  C   UNL     1      -1.623   0.350  -1.075  0.00  0.00    +0.228 C 
ATOM      3  O   UNL     1      -2.635   1.008  -0.950  0.00  0.00    -0.275 OA
ATOM      4  N   UNL     1      -1.363  -0.269  -2.244  0.00  0.00    -0.283 N 
ATOM      5  H   UNL     1      -0.521  -0.735  -2.369  0.00  0.00    +0.155 HD
BRANCH   4   6
ATOM      6  C   UNL     1      -2.306  -0.241  -3.275  0.00  0.00    +0.060 A 
ATOM      7  C   UNL     1      -3.163   0.830  -3.402  0.00  0.00    +0.026 A 
ATOM      8  C   UNL     1      -4.106   0.871  -4.424  0.00  0.00    +0.018 A 
ATOM      9  C   UNL     1      -4.207  -0.146  -5.326  0.00  0.00    +0.027 A 
ATOM     10  C   UNL     1      -3.351  -1.255  -5.229  0.00  0.00    +0.016 A 
ATOM     11  C   UNL     1      -2.383  -1.307  -4.197  0.00  0.00    +0.093 A 
ATOM     12  N   UNL     1      -1.571  -2.363  -4.098  0.00  0.00    -0.253 NA
ATOM     13  C   UNL     1      -1.641  -3.359  -4.949  0.00  0.00    +0.111 A 
ATOM     14  C   UNL     1      -2.565  -3.369  -5.990  0.00  0.00    +0.020 A 
ATOM     15  C   UNL     1      -3.429  -2.322  -6.145  0.00  0.00    +0.012 A 
ATOM     16 BR   UNL     1      -5.498  -0.064  -6.705  0.00  0.00    -0.050 Br
ENDBRANCH   4   6
ENDBRANCH   1   2
BRANCH   1  17
ATOM     17  S   UNL     1      -1.282   1.165   1.491  0.00  0.00    -0.075 S 
BRANCH  17  19
ATOM     18  N   UNL     1       0.072   1.325   3.926  0.00  0.00    -0.187 N 
ATOM     19  C   UNL     1       0.004   0.854   2.655  0.00  0.00    +0.214 A 
ATOM     20  N   UNL     1       1.082   0.128   2.454  0.00  0.00    -0.101 NA
ATOM     21  N   UNL     1       1.814   0.108   3.509  0.00  0.00    -0.022 NA
ATOM     22  N   UNL     1       1.271   0.806   4.447  0.00  0.00    -0.038 NA
BRANCH  18  27
ATOM     23  C   UNL     1      -3.679   4.661   6.574  0.00  0.00    +0.044 C 
ATOM     24  C   UNL     1      -2.683   3.775   5.871  0.00  0.00    -0.050 A 
ATOM     25  C   UNL     1      -2.374   2.534   6.395  0.00  0.00    +0.008 A 
ATOM     26  C   UNL     1      -1.461   1.719   5.753  0.00  0.00    -0.024 A 
ATOM     27  C   UNL     1      -0.854   2.149   4.580  0.00  0.00    +0.076 A 
ATOM     28  C   UNL     1      -1.162   3.399   4.060  0.00  0.00    -0.024 A 
ATOM     29  C   UNL     1      -2.080   4.206   4.703  0.00  0.00    +0.008 A 
ATOM     30  C   UNL     1      -0.501   3.872   2.791  0.00  0.00    +0.046 C 
ATOM     31  C   UNL     1      -1.125   0.366   6.324  0.00  0.00    +0.046 C 
ENDBRANCH  18  27
ENDBRANCH  17  19
ENDBRANCH   1  17
TORSDOF 5
