REMARK  Name = ZINC65601504
REMARK  11 active torsions:
REMARK  status: ('A' for Active; 'I' for Inactive)
REMARK    1  A    between atoms: C_1  and  C_2
REMARK    2  A    between atoms: N_5  and  C_8
REMARK    3  A    between atoms: C_8  and  C_9
REMARK    4  A    between atoms: C_8  and  C_10
REMARK    5  A    between atoms: C_10  and  N_11
REMARK    6  A    between atoms: C_12  and  C_14
REMARK    7  A    between atoms: N_16  and  C_17
REMARK    8  A    between atoms: C_22  and  O_23
REMARK    9  A    between atoms: O_23  and  C_24
REMARK   10  A    between atoms: C_24  and  C_25
REMARK   11  A    between atoms: C_25  and  C_26
REMARK                            x       y       z     vdW  Elec       q    Type
REMARK                         _______ _______ _______ _____ _____    ______ ____
ROOT
ATOM      1  C   UNL     1       1.945  -3.707   4.857  0.00  0.00    +0.303 C 
ATOM      2  O   UNL     1       0.833  -3.221   4.851  0.00  0.00    -0.265 OA
ATOM      3  N   UNL     1       2.607  -3.860   6.022  0.00  0.00    -0.275 N 
ATOM      4  H   UNL     1       3.465  -4.313   6.036  0.00  0.00    +0.155 HD
ENDROOT
BRANCH   3   5
ATOM      5  C   UNL     1       2.057  -3.366   7.209  0.00  0.00    +0.076 A 
ATOM      6  C   UNL     1       0.681  -3.360   7.389  0.00  0.00    +0.027 A 
ATOM      7  C   UNL     1       0.140  -2.871   8.563  0.00  0.00    +0.002 A 
ATOM      8  C   UNL     1       0.967  -2.389   9.561  0.00  0.00    +0.004 A 
ATOM      9  C   UNL     1       2.338  -2.391   9.389  0.00  0.00    +0.047 A 
ATOM     10  C   UNL     1       2.890  -2.884   8.217  0.00  0.00    +0.142 A 
BRANCH  10  11
ATOM     11  O   UNL     1       4.239  -2.893   8.050  0.00  0.00    -0.490 OA
BRANCH  11  12
ATOM     12  C   UNL     1       5.030  -2.384   9.126  0.00  0.00    +0.238 C 
BRANCH  12  13
ATOM     13  C   UNL     1       6.512  -2.475   8.757  0.00  0.00    +0.136 C 
BRANCH  13  14
ATOM     14  C   UNL     1       7.346  -1.938   9.891  0.00  0.00    +0.214 C 
ATOM     15  O   UNL     1       6.808  -1.523  10.896  0.00  0.00    -0.276 OA
ATOM     16  N   UNL     1       8.689  -1.918   9.789  0.00  0.00    -0.329 N 
ATOM     17  H   UNL     1       9.120  -2.249   8.985  0.00  0.00    +0.145 HD
ATOM     18  H   UNL     1       9.226  -1.572  10.519  0.00  0.00    +0.145 HD
ENDBRANCH  13  14
ENDBRANCH  12  13
ENDBRANCH  11  12
ENDBRANCH  10  11
ENDBRANCH   3   5
BRANCH   1  20
ATOM     19  N   UNL     1       1.919  -3.983   2.412  0.00  0.00    -0.309 N 
ATOM     20  C   UNL     1       2.580  -4.136   3.576  0.00  0.00    +0.299 C 
ATOM     21  O   UNL     1       3.692  -4.622   3.582  0.00  0.00    -0.265 OA
ATOM     22  H   UNL     1       1.030  -3.594   2.406  0.00  0.00    +0.149 HD
BRANCH  19  23
ATOM     23  C   UNL     1       2.542  -4.403   1.154  0.00  0.00    +0.089 C 
BRANCH  23  24
ATOM     24  C   UNL     1       1.643  -4.005  -0.018  0.00  0.00    -0.054 C 
ATOM     25  C   UNL     1       2.350  -4.331  -1.336  0.00  0.00    -0.012 C 
BRANCH  24  30
ATOM     26  C   UNL     1       1.015   1.601  -0.852  0.00  0.00    +0.007 C 
ATOM     27  C   UNL     1       1.353   0.121  -1.042  0.00  0.00    -0.018 C 
ATOM     28  C   UNL     1       2.347  -0.319   0.037  0.00  0.00    -0.016 C 
ATOM     29  C   UNL     1       2.619  -1.818  -0.110  0.00  0.00    -0.078 C 
ATOM     30  N   UNL     1       1.365  -2.564   0.045  0.00  0.00    +0.382 N 
ATOM     31  C   UNL     1       0.433  -2.200  -1.028  0.00  0.00    -0.078 C 
ATOM     32  C   UNL     1       0.076  -0.716  -0.917  0.00  0.00    -0.016 C 
ATOM     33  H   UNL     1       0.951  -2.343   0.938  0.00  0.00    -0.081 HD
ENDBRANCH  24  30
ENDBRANCH  23  24
ENDBRANCH  19  23
ENDBRANCH   1  20
TORSDOF 9
