REMARK  Name = ZINC22537903
REMARK  15 active torsions:
REMARK  status: ('A' for Active; 'I' for Inactive)
REMARK    1  A    between atoms: C_1  and  C_2
REMARK    2  A    between atoms: C_2  and  N_3
REMARK    3  A    between atoms: N_3  and  C_4
REMARK    4  A    between atoms: N_3  and  S_6
REMARK    5  A    between atoms: C_4  and  C_5
REMARK    6  A    between atoms: S_6  and  C_9
REMARK    7  A    between atoms: C_11  and  C_17
REMARK    8  A    between atoms: C_14  and  O_15
REMARK    9  A    between atoms: O_15  and  C_16
REMARK   10  A    between atoms: N_19  and  C_20
REMARK   11  A    between atoms: C_20  and  C_22
REMARK   12  A    between atoms: C_20  and  C_23
REMARK   13  A    between atoms: C_25  and  C_31
REMARK   14  A    between atoms: C_26  and  C_30
REMARK   15  A    between atoms: C_28  and  C_29
REMARK                            x       y       z     vdW  Elec       q    Type
REMARK                         _______ _______ _______ _____ _____    ______ ____
ROOT
ATOM      1  C   UNL     1      -2.836   7.235   3.108  0.00  0.00    +0.148 A 
ATOM      2  C   UNL     1      -3.017   5.987   2.555  0.00  0.00    +0.045 A 
ATOM      3  C   UNL     1      -1.968   5.371   1.867  0.00  0.00    +0.039 A 
ATOM      4  C   UNL     1      -0.738   6.023   1.749  0.00  0.00    +0.017 A 
ATOM      5  C   UNL     1      -0.567   7.273   2.300  0.00  0.00    +0.048 A 
ATOM      6  C   UNL     1      -1.613   7.882   2.983  0.00  0.00    +0.146 A 
ENDROOT
BRANCH   3   7
ATOM      7  C   UNL     1      -2.157   4.033   1.273  0.00  0.00    +0.245 C 
ATOM      8  O   UNL     1      -3.227   3.466   1.381  0.00  0.00    -0.270 OA
ATOM      9  N   UNL     1      -1.144   3.441   0.610  0.00  0.00    -0.305 N 
ATOM     10  H   UNL     1      -0.176   3.955   0.512  0.00  0.00    +0.150 HD
BRANCH   9  11
ATOM     11  C   UNL     1      -1.332   2.114   0.020  0.00  0.00    +0.101 C 
ATOM     12  C   UNL     1      -1.861   2.260  -1.408  0.00  0.00    +0.033 C 
BRANCH  11  13
ATOM     13  C   UNL     1      -0.013   1.384  -0.005  0.00  0.00    -0.024 A 
ATOM     14  C   UNL     1       1.170   2.097  -0.055  0.00  0.00    +0.009 A 
ATOM     15  C   UNL     1       2.379   1.428  -0.084  0.00  0.00    -0.047 A 
ATOM     16  C   UNL     1       2.405   0.045  -0.063  0.00  0.00    -0.047 A 
ATOM     17  C   UNL     1       1.222  -0.667  -0.014  0.00  0.00    +0.007 A 
ATOM     18  C   UNL     1       0.012   0.002   0.015  0.00  0.00    -0.045 A 
ATOM     19  C   UNL     1      -1.278  -0.775   0.069  0.00  0.00    +0.044 C 
ATOM     20  C   UNL     1       3.723  -0.684  -0.094  0.00  0.00    +0.044 C 
ATOM     21  C   UNL     1       3.669   2.204  -0.137  0.00  0.00    +0.044 C 
ENDBRANCH  11  13
ENDBRANCH   9  11
ENDBRANCH   3   7
BRANCH   1  22
ATOM     22  S   UNL     1      -4.158   8.012   3.976  0.00  0.00    +0.064 S 
ATOM     23  O   UNL     1      -4.259   9.334   3.464  0.00  0.00    -0.153 OA
ATOM     24  O   UNL     1      -5.249   7.102   3.954  0.00  0.00    -0.153 OA
BRANCH  22  25
ATOM     25  N   UNL     1      -3.690   8.152   5.558  0.00  0.00    -0.177 NA
BRANCH  25  27
ATOM     26  C   UNL     1      -3.979  10.347   6.597  0.00  0.00    +0.022 C 
ATOM     27  C   UNL     1      -2.979   9.351   6.008  0.00  0.00    +0.106 C 
ENDBRANCH  25  27
BRANCH  25  28
ATOM     28  C   UNL     1      -3.988   7.077   6.508  0.00  0.00    +0.106 C 
ATOM     29  C   UNL     1      -2.781   6.142   6.615  0.00  0.00    +0.022 C 
ENDBRANCH  25  28
ENDBRANCH  22  25
ENDBRANCH   1  22
BRANCH   6  30
ATOM     30  O   UNL     1      -1.439   9.113   3.529  0.00  0.00    -0.493 OA
ATOM     31  C   UNL     1      -0.157   9.721   3.363  0.00  0.00    +0.277 C 
ENDBRANCH   6  30
TORSDOF 8
