REMARK  Name = ZINC05686283
REMARK  5 active torsions:
REMARK  status: ('A' for Active; 'I' for Inactive)
REMARK    1  A    between atoms: C_1  and  C_2
REMARK    2  A    between atoms: C_2  and  C_3
REMARK    3  A    between atoms: C_3  and  C_4
REMARK    4  A    between atoms: C_9  and  O_10
REMARK    5  A    between atoms: C_13  and  C_16
REMARK                            x       y       z     vdW  Elec       q    Type
REMARK                         _______ _______ _______ _____ _____    ______ ____
ROOT
ATOM      1  C   UNL     1      -8.156  -1.826   1.707  0.00  0.00    -0.005 A 
ATOM      2  C   UNL     1      -7.028  -1.062   1.803  0.00  0.00    +0.022 A 
ATOM      3  C   UNL     1      -5.968  -1.278   0.921  0.00  0.00    +0.065 A 
ATOM      4  C   UNL     1      -6.056  -2.276  -0.066  0.00  0.00    +0.142 A 
ATOM      5  C   UNL     1      -7.210  -3.043  -0.150  0.00  0.00    +0.092 A 
ATOM      6  C   UNL     1      -8.253  -2.817   0.733  0.00  0.00    +0.124 A 
ATOM      7  O   UNL     1      -5.032  -2.482  -0.917  0.00  0.00    -0.462 OA
ATOM      8  C   UNL     1      -3.898  -1.777  -0.884  0.00  0.00    +0.208 A 
ATOM      9  C   UNL     1      -3.680  -0.785   0.017  0.00  0.00    +0.064 A 
ATOM     10  C   UNL     1      -4.733  -0.478   1.000  0.00  0.00    +0.200 A 
ATOM     11  O   UNL     1      -4.591   0.399   1.835  0.00  0.00    -0.286 OA
ENDROOT
BRANCH   9  12
ATOM     12  C   UNL     1      -2.403  -0.030   0.016  0.00  0.00    -0.008 A 
ATOM     13  C   UNL     1      -2.416   1.364   0.026  0.00  0.00    +0.012 A 
ATOM     14  C   UNL     1      -1.228   2.065   0.019  0.00  0.00    +0.050 A 
ATOM     15  C   UNL     1      -0.017   1.387   0.010  0.00  0.00    +0.162 A 
ATOM     16  C   UNL     1       0.002  -0.004   0.002  0.00  0.00    +0.163 A 
ATOM     17  C   UNL     1      -1.189  -0.712   0.004  0.00  0.00    +0.058 A 
ATOM     18  O   UNL     1       1.181  -0.685  -0.006  0.00  0.00    -0.485 OA
ATOM     19  C   UNL     1       2.347   0.053  -0.387  0.00  0.00    +0.270 C 
ATOM     20  C   UNL     1       2.335   1.391   0.365  0.00  0.00    +0.270 C 
ATOM     21  O   UNL     1       1.144   2.098   0.002  0.00  0.00    -0.485 OA
ENDBRANCH   9  12
BRANCH   6  22
ATOM     22  O   UNL     1      -9.380  -3.569   0.648  0.00  0.00    -0.506 OA
ATOM     23  H   UNL     1      -9.462  -4.353  -0.119  0.00  0.00    +0.292 HD
ENDBRANCH   6  22
BRANCH   1  24
ATOM     24  C   UNL     1      -9.302  -1.595   2.659  0.00  0.00    +0.038 C 
BRANCH  24  26
ATOM     25  C   UNL     1     -11.542  -0.524   2.933  0.00  0.00    +0.004 C 
ATOM     26  C   UNL     1     -10.379  -0.758   1.967  0.00  0.00    +0.001 C 
ENDBRANCH  24  26
ENDBRANCH   1  24
TORSDOF 4
