REMARK  Name = ZINC04780263
REMARK  7 active torsions:
REMARK  status: ('A' for Active; 'I' for Inactive)
REMARK    1  A    between atoms: C_1  and  C_2
REMARK    2  A    between atoms: C_5  and  N_9
REMARK    3  A    between atoms: C_6  and  C_8
REMARK    4  A    between atoms: C_17  and  N_27
REMARK    5  A    between atoms: C_19  and  C_21
REMARK    6  A    between atoms: N_27  and  C_28
REMARK    7  A    between atoms: N_27  and  C_29
REMARK                            x       y       z     vdW  Elec       q    Type
REMARK                         _______ _______ _______ _____ _____    ______ ____
ROOT
ATOM      1  N   UNL     1      -1.982   4.201   6.913  0.00  0.00    -0.269 N 
ATOM      2  C   UNL     1      -2.085   3.256   5.958  0.00  0.00    +0.307 C 
ATOM      3  O   UNL     1      -1.739   2.114   6.193  0.00  0.00    -0.252 OA
ATOM      4  N   UNL     1      -2.573   3.575   4.743  0.00  0.00    -0.281 N 
ATOM      5  C   UNL     1      -2.886   4.969   4.387  0.00  0.00    +0.116 C 
ATOM      6  C   UNL     1      -1.955   5.387   3.249  0.00  0.00    +0.075 C 
ATOM      7  C   UNL     1      -1.922   4.335   2.174  0.00  0.00    +0.053 A 
ATOM      8  C   UNL     1      -2.303   3.033   2.391  0.00  0.00    +0.031 A 
ATOM      9  C   UNL     1      -2.222   2.122   1.331  0.00  0.00    +0.130 A 
ATOM     10  N   UNL     1      -1.779   2.539   0.151  0.00  0.00    -0.212 NA
ATOM     11  C   UNL     1      -1.430   3.806  -0.024  0.00  0.00    +0.162 A 
ATOM     12  N   UNL     1      -1.497   4.686   0.962  0.00  0.00    -0.232 NA
ATOM     13  C   UNL     1      -2.813   2.548   3.722  0.00  0.00    +0.149 C 
ATOM     14  H   UNL     1      -2.152   5.131   6.695  0.00  0.00    +0.156 HD
ENDROOT
BRANCH   1  19
ATOM     15  C   UNL     1      -0.547   2.744  12.205  0.00  0.00    +0.044 C 
ATOM     16  C   UNL     1      -0.928   3.131  10.799  0.00  0.00    -0.050 A 
ATOM     17  C   UNL     1      -0.484   2.374   9.730  0.00  0.00    +0.005 A 
ATOM     18  C   UNL     1      -0.831   2.726   8.441  0.00  0.00    +0.024 A 
ATOM     19  C   UNL     1      -1.628   3.841   8.218  0.00  0.00    +0.038 A 
ATOM     20  C   UNL     1      -2.068   4.602   9.293  0.00  0.00    -0.029 A 
ATOM     21  C   UNL     1      -1.721   4.242  10.580  0.00  0.00    +0.008 A 
ATOM     22  C   UNL     1      -2.928   5.817   9.055  0.00  0.00    +0.045 C 
ENDBRANCH   1  19
BRANCH  11  23
ATOM     23  C   UNL     1      -0.948   4.247  -1.356  0.00  0.00    +0.019 A 
ATOM     24  C   UNL     1      -0.578   5.574  -1.561  0.00  0.00    +0.011 A 
ATOM     25  C   UNL     1      -0.126   5.978  -2.801  0.00  0.00    +0.001 A 
ATOM     26  C   UNL     1      -0.050   5.070  -3.842  0.00  0.00    +0.000 A 
ATOM     27  C   UNL     1      -0.421   3.752  -3.645  0.00  0.00    +0.001 A 
ATOM     28  C   UNL     1      -0.870   3.336  -2.408  0.00  0.00    +0.011 A 
ENDBRANCH  11  23
BRANCH   9  29
ATOM     29  N   UNL     1      -2.595   0.800   1.512  0.00  0.00    -0.321 N 
ATOM     30  C   UNL     1      -3.628   0.406   0.544  0.00  0.00    +0.130 C 
ATOM     31  C   UNL     1      -1.430  -0.092   1.430  0.00  0.00    +0.130 C 
ENDBRANCH   9  29
TORSDOF 3
