REMARK  Name = ZINC03845846
REMARK  8 active torsions:
REMARK  status: ('A' for Active; 'I' for Inactive)
REMARK    1  A    between atoms: C_1  and  C_2
REMARK    2  A    between atoms: C_2  and  C_16
REMARK    3  A    between atoms: C_3  and  C_14
REMARK    4  A    between atoms: C_7  and  C_9
REMARK    5  A    between atoms: C_7  and  C_10
REMARK    6  A    between atoms: C_10  and  C_11
REMARK    7  A    between atoms: C_10  and  C_12
REMARK    8  A    between atoms: C_10  and  O_13
REMARK                            x       y       z     vdW  Elec       q    Type
REMARK                         _______ _______ _______ _____ _____    ______ ____
ROOT
ATOM      1  C   UNL     1       1.394   1.274   0.498  0.00  0.00    +0.042 C 
ATOM      2  C   UNL     1       0.122   1.756   1.205  0.00  0.00    +0.078 C 
ATOM      3  C   UNL     1      -0.065   0.972   2.503  0.00  0.00    +0.133 C 
ATOM      4  C   UNL     1       0.889   1.499   3.577  0.00  0.00    +0.020 C 
ATOM      5  C   UNL     1       0.585   2.980   3.810  0.00  0.00    +0.038 C 
ATOM      6  C   UNL     1       0.774   3.765   2.513  0.00  0.00    +0.095 C 
ATOM      7  O   UNL     1       0.153   3.149   1.409  0.00  0.00    -0.364 OA
ATOM      8  C   UNL     1       2.271   3.974   2.257  0.00  0.00    +0.044 C 
ATOM      9  C   UNL     1      -1.072   1.427   0.283  0.00  0.00    +0.042 C 
ENDROOT
BRANCH   6  10
ATOM     10  C   UNL     1       0.141   5.159   2.712  0.00  0.00    +0.089 C 
ATOM     11  C   UNL     1       0.307   5.981   1.432  0.00  0.00    +0.044 C 
ATOM     12  C   UNL     1      -1.349   5.002   3.027  0.00  0.00    +0.044 C 
BRANCH  10  13
ATOM     13  O   UNL     1       0.789   5.827   3.795  0.00  0.00    -0.386 OA
ATOM     14  H   UNL     1       1.738   5.960   3.664  0.00  0.00    +0.210 HD
ENDBRANCH  10  13
ENDBRANCH   6  10
BRANCH   3  15
ATOM     15  C   UNL     1       0.217  -0.488   2.254  0.00  0.00    +0.362 C 
ATOM     16  O   UNL     1      -0.001  -0.969   1.167  0.00  0.00    -0.246 OA
ATOM     17  O   UNL     1       0.710  -1.255   3.240  0.00  0.00    -0.246 OA
ENDBRANCH   3  15
TORSDOF 3
