REMARK  Name = ZINC22363793
REMARK  14 active torsions:
REMARK  status: ('A' for Active; 'I' for Inactive)
REMARK    1  A    between atoms: C_1  and  C_2
REMARK    2  A    between atoms: C_2  and  O_3
REMARK    3  A    between atoms: O_3  and  C_4
REMARK    4  A    between atoms: C_9  and  N_10
REMARK    5  A    between atoms: N_10  and  C_11
REMARK    6  A    between atoms: N_10  and  S_25
REMARK    7  A    between atoms: C_11  and  C_12
REMARK    8  A    between atoms: N_14  and  C_15
REMARK    9  A    between atoms: C_15  and  C_16
REMARK   10  A    between atoms: C_16  and  C_17
REMARK   11  A    between atoms: C_17  and  S_18
REMARK   12  A    between atoms: S_18  and  C_19
REMARK   13  A    between atoms: C_19  and  C_20
REMARK   14  A    between atoms: S_25  and  C_28
REMARK                            x       y       z     vdW  Elec       q    Type
REMARK                         _______ _______ _______ _____ _____    ______ ____
ROOT
ATOM      1  N   UNL     1      -0.018   1.461   0.010  0.00  0.00    -0.191 N 
ENDROOT
BRANCH   1   7
ATOM      2  C   UNL     1       1.742   2.618   1.200  0.00  0.00    +0.143 A 
ATOM      3  C   UNL     1       2.933   3.327   1.187  0.00  0.00    +0.047 A 
ATOM      4  C   UNL     1       3.565   3.594  -0.014  0.00  0.00    +0.004 A 
ATOM      5  C   UNL     1       3.012   3.156  -1.203  0.00  0.00    +0.002 A 
ATOM      6  C   UNL     1       1.827   2.445  -1.198  0.00  0.00    +0.028 A 
ATOM      7  C   UNL     1       1.185   2.177   0.002  0.00  0.00    +0.093 A 
BRANCH   2   8
ATOM      8  O   UNL     1       1.120   2.354   2.380  0.00  0.00    -0.490 OA
BRANCH   8  10
ATOM      9  C   UNL     1       0.910   2.446   4.786  0.00  0.00    +0.048 C 
ATOM     10  C   UNL     1       1.750   2.837   3.569  0.00  0.00    +0.226 C 
ENDBRANCH   8  10
ENDBRANCH   2   8
ENDBRANCH   1   7
BRANCH   1  11
ATOM     11  S   UNL     1      -1.463   2.269   0.021  0.00  0.00    +0.075 S 
ATOM     12  O   UNL     1      -1.212   3.557  -0.524  0.00  0.00    -0.150 OA
ATOM     13  O   UNL     1      -2.428   1.384  -0.530  0.00  0.00    -0.150 OA
BRANCH  11  14
ATOM     14  C   UNL     1      -1.910   2.514   1.708  0.00  0.00    +0.109 A 
ATOM     15  C   UNL     1      -2.674   1.568   2.365  0.00  0.00    +0.030 A 
ATOM     16  C   UNL     1      -3.020   1.757   3.690  0.00  0.00    +0.022 A 
ATOM     17  C   UNL     1      -2.611   2.899   4.355  0.00  0.00    +0.041 A 
ATOM     18  C   UNL     1      -1.850   3.848   3.695  0.00  0.00    +0.022 A 
ATOM     19  C   UNL     1      -1.500   3.655   2.372  0.00  0.00    +0.030 A 
ATOM     20 CL   UNL     1      -3.050   3.140   6.017  0.00  0.00    -0.084 Cl
ENDBRANCH  11  14
ENDBRANCH   1  11
BRANCH   1  21
ATOM     21  C   UNL     1       0.002  -0.004   0.002  0.00  0.00    +0.227 C 
BRANCH  21  22
ATOM     22  C   UNL     1       0.146  -0.512   1.413  0.00  0.00    +0.232 C 
ATOM     23  O   UNL     1       0.225   0.272   2.335  0.00  0.00    -0.274 OA
ATOM     24  N   UNL     1       0.188  -1.838   1.651  0.00  0.00    -0.314 N 
ATOM     25  H   UNL     1       0.117  -2.550   0.815  0.00  0.00    +0.149 HD
BRANCH  24  26
ATOM     26  C   UNL     1       0.328  -2.332   3.023  0.00  0.00    +0.105 C 
BRANCH  26  27
ATOM     27  C   UNL     1       0.349  -3.862   3.015  0.00  0.00    +0.029 C 
BRANCH  27  28
ATOM     28  C   UNL     1       0.495  -4.378   4.448  0.00  0.00    +0.071 C 
BRANCH  28  29
ATOM     29  S   UNL     1       0.520  -6.192   4.438  0.00  0.00    -0.153 S 
BRANCH  29  30
ATOM     30  C   UNL     1       0.696  -6.638   6.187  0.00  0.00    +0.143 C 
BRANCH  30  31
ATOM     31  C   UNL     1       0.730  -8.139   6.322  0.00  0.00    +0.115 A 
ATOM     32  C   UNL     1       1.834  -8.906   6.287  0.00  0.00    +0.045 A 
ATOM     33  C   UNL     1       1.407 -10.245   6.451  0.00  0.00    +0.041 A 
ATOM     34  C   UNL     1       0.068 -10.214   6.576  0.00  0.00    +0.195 A 
ATOM     35  O   UNL     1      -0.336  -8.935   6.503  0.00  0.00    -0.467 OA
ENDBRANCH  30  31
ENDBRANCH  29  30
ENDBRANCH  28  29
ENDBRANCH  27  28
ENDBRANCH  26  27
ENDBRANCH  24  26
ENDBRANCH  21  22
ENDBRANCH   1  21
TORSDOF 13
