REMARK  Name = ZINC41585620
REMARK  8 active torsions:
REMARK  status: ('A' for Active; 'I' for Inactive)
REMARK    1  A    between atoms: C_1  and  N_2
REMARK    2  A    between atoms: C_4  and  C_13
REMARK    3  A    between atoms: C_9  and  O_11
REMARK    4  A    between atoms: O_11  and  C_12
REMARK    5  A    between atoms: C_20  and  O_38
REMARK    6  A    between atoms: C_21  and  C_24
REMARK    7  A    between atoms: C_24  and  N_25
REMARK    8  A    between atoms: N_28  and  C_31
REMARK                            x       y       z     vdW  Elec       q    Type
REMARK                         _______ _______ _______ _____ _____    ______ ____
ROOT
ATOM      1  C   UNL     1       0.052  -3.235  -1.670  0.00  0.00    +0.060 C 
ATOM      2  C   UNL     1      -0.071  -3.053  -3.015  0.00  0.00    +0.176 C 
ATOM      3  C   UNL     1      -0.112  -1.801  -3.683  0.00  0.00    +0.231 C 
ATOM      4  O   UNL     1      -0.046  -0.691  -3.181  0.00  0.00    -0.283 OA
ATOM      5  C   UNL     1      -0.250  -2.130  -5.112  0.00  0.00    +0.068 A 
ATOM      6  C   UNL     1      -0.345  -1.360  -6.271  0.00  0.00    +0.019 A 
ATOM      7  C   UNL     1      -0.469  -1.971  -7.487  0.00  0.00    +0.046 A 
ATOM      8  C   UNL     1      -0.500  -3.361  -7.572  0.00  0.00    +0.125 A 
ATOM      9  C   UNL     1      -0.407  -4.139  -6.430  0.00  0.00    +0.051 A 
ATOM     10  C   UNL     1      -0.281  -3.533  -5.188  0.00  0.00    +0.147 A 
ATOM     11  O   UNL     1      -0.168  -4.037  -3.940  0.00  0.00    -0.451 OA
ENDROOT
BRANCH   1  15
ATOM     12  C   UNL     1      -1.264   1.169   0.299  0.00  0.00    +0.149 C 
ATOM     13  N   UNL     1      -0.596  -0.123   0.123  0.00  0.00    -0.349 N 
ATOM     14  C   UNL     1      -0.808  -0.966  -0.917  0.00  0.00    +0.094 A 
ATOM     15  C   UNL     1      -0.018  -2.087  -0.769  0.00  0.00    +0.004 A 
ATOM     16  C   UNL     1       0.741  -1.895   0.482  0.00  0.00    +0.011 A 
ATOM     17  C   UNL     1       0.342  -0.649   0.990  0.00  0.00    +0.050 A 
ATOM     18  C   UNL     1       0.899  -0.185   2.177  0.00  0.00    +0.030 A 
ATOM     19  C   UNL     1       1.837  -0.944   2.842  0.00  0.00    +0.047 A 
ATOM     20  C   UNL     1       2.236  -2.178   2.337  0.00  0.00    +0.121 A 
ATOM     21  C   UNL     1       1.686  -2.658   1.163  0.00  0.00    +0.056 A 
BRANCH  20  22
ATOM     22  O   UNL     1       3.162  -2.916   3.004  0.00  0.00    -0.495 OA
ATOM     23  C   UNL     1       3.683  -2.364   4.215  0.00  0.00    +0.277 C 
ENDBRANCH  20  22
ENDBRANCH   1  15
BRANCH   8  24
ATOM     24  O   UNL     1      -0.624  -3.958  -8.785  0.00  0.00    -0.506 OA
ATOM     25  H   UNL     1       0.220  -4.146  -9.219  0.00  0.00    +0.292 HD
ENDBRANCH   8  24
BRANCH   9  26
ATOM     26  C   UNL     1      -0.443  -5.642  -6.536  0.00  0.00    +0.127 C 
BRANCH  26  27
ATOM     27  N   UNL     1       0.924  -6.154  -6.699  0.00  0.00    -0.295 NA
ATOM     28  C   UNL     1       1.500  -5.720  -7.979  0.00  0.00    +0.103 C 
ATOM     29  C   UNL     1       2.978  -6.118  -8.032  0.00  0.00    +0.120 C 
ATOM     30  N   UNL     1       3.084  -7.560  -7.760  0.00  0.00    -0.327 N 
ATOM     31  C   UNL     1       2.414  -8.093  -6.564  0.00  0.00    +0.120 C 
ATOM     32  C   UNL     1       0.957  -7.617  -6.569  0.00  0.00    +0.103 C 
BRANCH  30  33
ATOM     33  C   UNL     1       3.802  -8.401  -8.615  0.00  0.00    +0.030 A 
ATOM     34  C   UNL     1       4.530  -7.864  -9.669  0.00  0.00    +0.026 A 
ATOM     35  C   UNL     1       5.239  -8.697 -10.512  0.00  0.00    +0.040 A 
ATOM     36  C   UNL     1       5.224 -10.066 -10.308  0.00  0.00    +0.124 A 
ATOM     37  C   UNL     1       4.498 -10.604  -9.258  0.00  0.00    +0.040 A 
ATOM     38  C   UNL     1       3.792  -9.774  -8.409  0.00  0.00    +0.026 A 
ATOM     39  F   UNL     1       5.917 -10.879 -11.135  0.00  0.00    -0.205 F 
ENDBRANCH  30  33
ENDBRANCH  26  27
ENDBRANCH   9  26
TORSDOF 6
