REMARK  Name = ZINC04143491
REMARK  9 active torsions:
REMARK  status: ('A' for Active; 'I' for Inactive)
REMARK    1  A    between atoms: C_1  and  C_2
REMARK    2  A    between atoms: C_4  and  C_8
REMARK    3  A    between atoms: C_5  and  C_7
REMARK    4  A    between atoms: C_10  and  C_32
REMARK    5  A    between atoms: C_11  and  N_31
REMARK    6  A    between atoms: N_12  and  C_22
REMARK    7  A    between atoms: C_18  and  C_20
REMARK    8  A    between atoms: C_18  and  C_21
REMARK    9  A    between atoms: C_27  and  N_28
REMARK                            x       y       z     vdW  Elec       q    Type
REMARK                         _______ _______ _______ _____ _____    ______ ____
ROOT
ATOM      1  C   UNL     1      -2.521   1.012   0.019  0.00  0.00    +0.098 C 
ATOM      2  C   UNL     1      -2.601   0.160  -1.213  0.00  0.00    +0.077 C 
ATOM      3  C   UNL     1      -2.378  -1.179  -1.156  0.00  0.00    +0.107 C 
ATOM      4  N   UNL     1      -2.080  -1.778   0.047  0.00  0.00    -0.258 N 
ATOM      5  C   UNL     1      -2.389  -1.157   1.229  0.00  0.00    +0.025 C 
ATOM      6  C   UNL     1      -2.609   0.174   1.269  0.00  0.00    +0.025 C 
ATOM      7  C   UNL     1      -2.924   0.820   2.478  0.00  0.00    +0.162 C 
ATOM      8  O   UNL     1      -3.130   2.018   2.477  0.00  0.00    -0.292 OA
ATOM      9  C   UNL     1      -3.011   0.057   3.771  0.00  0.00    +0.086 C 
ATOM     10  C   UNL     1      -2.083  -1.160   3.694  0.00  0.00    -0.023 C 
ATOM     11  C   UNL     1      -2.481  -1.998   2.478  0.00  0.00    +0.058 C 
ATOM     12  C   UNL     1      -0.634  -0.693   3.542  0.00  0.00    +0.011 C 
ATOM     13  C   UNL     1      -2.223  -1.995   4.968  0.00  0.00    +0.011 C 
ENDROOT
BRANCH   1  17
ATOM     14  C   UNL     1       2.565   1.272  -0.015  0.00  0.00    +0.051 C 
ATOM     15  C   UNL     1       1.146   1.780   0.001  0.00  0.00    -0.013 A 
ATOM     16  C   UNL     1      -0.013   1.076   0.008  0.00  0.00    +0.015 A 
ATOM     17  C   UNL     1      -1.213   1.761   0.017  0.00  0.00    -0.025 A 
ATOM     18  C   UNL     1      -1.196   3.116   0.030  0.00  0.00    -0.009 A 
ATOM     19  S   UNL     1       0.555   3.464   0.015  0.00  0.00    -0.098 S 
ATOM     20  C   UNL     1      -2.355   4.080   0.046  0.00  0.00    +0.052 C 
ENDBRANCH   1  17
BRANCH   4  21
ATOM     21  C   UNL     1      -1.458  -3.032   0.063  0.00  0.00    +0.070 A 
ATOM     22  C   UNL     1      -0.072  -3.121   0.072  0.00  0.00    +0.026 A 
ATOM     23  C   UNL     1       0.539  -4.359   0.088  0.00  0.00    +0.002 A 
ATOM     24  C   UNL     1      -0.228  -5.510   0.096  0.00  0.00    +0.002 A 
ATOM     25  C   UNL     1      -1.608  -5.425   0.087  0.00  0.00    +0.034 A 
ATOM     26  C   UNL     1      -2.225  -4.190   0.077  0.00  0.00    +0.148 A 
BRANCH  26  27
ATOM     27  N   UNL     1      -3.703  -4.099   0.074  0.00  0.00    +0.058 N 
ATOM     28  O   UNL     1      -4.375  -5.115   0.086  0.00  0.00    -0.126 OA
ATOM     29  O   UNL     1      -4.246  -3.010   0.060  0.00  0.00    -0.126 OA
ENDBRANCH  26  27
ENDBRANCH   4  21
BRANCH   3  30
ATOM     30  N   UNL     1      -2.449  -1.936  -2.301  0.00  0.00    -0.345 N 
ATOM     31  H   UNL     1      -2.658  -1.514  -3.149  0.00  0.00    +0.144 HD
ATOM     32  H   UNL     1      -2.289  -2.892  -2.261  0.00  0.00    +0.144 HD
ENDBRANCH   3  30
BRANCH   2  33
ATOM     33  C   UNL     1      -2.917   0.768  -2.470  0.00  0.00    +0.099 C 
ATOM     34  N   UNL     1      -3.168   1.250  -3.468  0.00  0.00    -0.191 NA
ENDBRANCH   2  33
TORSDOF 5
