REMARK  Name = ZINC17962921
REMARK  8 active torsions:
REMARK  status: ('A' for Active; 'I' for Inactive)
REMARK    1  A    between atoms: C_1  and  C_2
REMARK    2  A    between atoms: C_2  and  C_3
REMARK    3  A    between atoms: C_3  and  C_25
REMARK    4  A    between atoms: N_6  and  C_10
REMARK    5  A    between atoms: C_10  and  C_11
REMARK    6  A    between atoms: N_13  and  C_14
REMARK    7  A    between atoms: C_14  and  C_16
REMARK    8  A    between atoms: C_14  and  C_17
REMARK                            x       y       z     vdW  Elec       q    Type
REMARK                         _______ _______ _______ _____ _____    ______ ____
ROOT
ATOM      1  C   UNL     1      -0.727   3.357   0.027  0.00  0.00    +0.138 C 
ATOM      2  C   UNL     1       0.787   3.284   0.012  0.00  0.00    +0.251 C 
ATOM      3  O   UNL     1       1.565   4.213   0.009  0.00  0.00    -0.272 OA
ATOM      4  N   UNL     1       1.087   1.970   0.002  0.00  0.00    -0.215 N 
ATOM      5  C   UNL     1      -0.014   1.211   0.009  0.00  0.00    +0.310 C 
ATOM      6  O   UNL     1       0.002  -0.004   0.002  0.00  0.00    -0.252 OA
ATOM      7  N   UNL     1      -1.143   1.944   0.018  0.00  0.00    -0.281 N 
ATOM      8  H   UNL     1      -2.052   1.607   0.019  0.00  0.00    +0.152 HD
ENDROOT
BRANCH   1   9
ATOM      9  C   UNL     1      -1.212   4.049   1.275  0.00  0.00    -0.015 A 
ATOM     10  C   UNL     1      -1.398   5.419   1.278  0.00  0.00    +0.006 A 
ATOM     11  C   UNL     1      -1.847   6.053   2.421  0.00  0.00    +0.000 A 
ATOM     12  C   UNL     1      -2.101   5.318   3.564  0.00  0.00    +0.000 A 
ATOM     13  C   UNL     1      -1.911   3.949   3.563  0.00  0.00    +0.000 A 
ATOM     14  C   UNL     1      -1.467   3.314   2.418  0.00  0.00    +0.006 A 
ENDBRANCH   1   9
BRANCH   1  16
ATOM     15  C   UNL     1      -0.889   3.259  -2.464  0.00  0.00    +0.007 C 
ATOM     16  C   UNL     1      -1.244   4.076  -1.221  0.00  0.00    +0.037 C 
ENDBRANCH   1  16
BRANCH   4  17
ATOM     17  C   UNL     1       2.453   1.438  -0.013  0.00  0.00    +0.213 C 
BRANCH  17  18
ATOM     18  C   UNL     1       2.908   1.264  -1.439  0.00  0.00    +0.231 C 
ATOM     19  O   UNL     1       2.165   1.554  -2.353  0.00  0.00    -0.274 OA
ATOM     20  N   UNL     1       4.140   0.784  -1.699  0.00  0.00    -0.307 N 
ATOM     21  H   UNL     1       4.734   0.552  -0.968  0.00  0.00    +0.149 HD
BRANCH  20  22
ATOM     22  C   UNL     1       4.583   0.614  -3.085  0.00  0.00    +0.100 C 
ATOM     23  C   UNL     1       5.147   1.938  -3.606  0.00  0.00    +0.033 C 
BRANCH  22  24
ATOM     24  C   UNL     1       5.652  -0.446  -3.145  0.00  0.00    -0.026 A 
ATOM     25  C   UNL     1       6.622  -0.506  -2.161  0.00  0.00    +0.007 A 
ATOM     26  C   UNL     1       7.599  -1.481  -2.211  0.00  0.00    +0.022 A 
ATOM     27  C   UNL     1       7.615  -2.392  -3.253  0.00  0.00    +0.059 A 
ATOM     28  C   UNL     1       6.647  -2.329  -4.241  0.00  0.00    +0.060 A 
ATOM     29  C   UNL     1       5.666  -1.355  -4.186  0.00  0.00    +0.027 A 
ATOM     30 CL   UNL     1       6.665  -3.470  -5.548  0.00  0.00    -0.082 Cl
ATOM     31 CL   UNL     1       8.846  -3.614  -3.320  0.00  0.00    -0.082 Cl
ENDBRANCH  22  24
ENDBRANCH  20  22
ENDBRANCH  17  18
ENDBRANCH   4  17
TORSDOF 6
