REMARK  Name = ZINC38975778
REMARK  4 active torsions:
REMARK  status: ('A' for Active; 'I' for Inactive)
REMARK    1  A    between atoms: N_7  and  S_8
REMARK    2  A    between atoms: S_8  and  C_11
REMARK    3  A    between atoms: C_16  and  N_21
REMARK    4  A    between atoms: N_21  and  C_22
REMARK                            x       y       z     vdW  Elec       q    Type
REMARK                         _______ _______ _______ _____ _____    ______ ____
ROOT
ATOM      1  C   UNL     1       0.522   1.436  -0.623  0.00  0.00    +0.002 A 
ATOM      2  C   UNL     1       1.744   2.116  -0.485  0.00  0.00    +0.002 A 
ATOM      3  C   UNL     1       2.917   1.477  -0.287  0.00  0.00    +0.028 A 
ATOM      4  C   UNL     1       2.959   0.062  -0.210  0.00  0.00    +0.064 A 
ATOM      5  N   UNL     1       4.105  -0.556  -0.016  0.00  0.00    -0.338 N 
ATOM      6  C   UNL     1       4.179  -1.894   0.061  0.00  0.00    +0.170 C 
ATOM      7  N   UNL     1       5.324  -2.482   0.253  0.00  0.00    -0.111 NA
ATOM      8  C   UNL     1       2.913  -2.709  -0.077  0.00  0.00    +0.235 C 
ATOM      9  N   UNL     1       1.651  -1.984  -0.292  0.00  0.00    -0.359 N 
ATOM     10  C   UNL     1       1.683  -0.682  -0.352  0.00  0.00    +0.061 A 
ATOM     11  C   UNL     1       0.449   0.088  -0.566  0.00  0.00    +0.027 A 
ATOM     12  H   UNL     1       0.813  -2.465  -0.386  0.00  0.00    +0.162 HD
ATOM     13  H   UNL     1       4.916  -0.031   0.072  0.00  0.00    +0.167 HD
ENDROOT
BRANCH   7  14
ATOM     14  S   UNL     1       6.703  -1.578   0.403  0.00  0.00    +0.107 S 
ATOM     15  O   UNL     1       6.921  -0.957  -0.856  0.00  0.00    -0.146 OA
ATOM     16  O   UNL     1       6.572  -0.834   1.607  0.00  0.00    -0.146 OA
BRANCH  14  17
ATOM     17  C   UNL     1       8.038  -2.701   0.649  0.00  0.00    +0.150 A 
ATOM     18  C   UNL     1       8.836  -3.294  -0.273  0.00  0.00    +0.037 A 
ATOM     19  C   UNL     1       9.833  -4.150   0.155  0.00  0.00    +0.010 A 
ATOM     20  C   UNL     1       9.983  -4.372   1.484  0.00  0.00    +0.047 A 
ATOM     21  S   UNL     1       8.696  -3.349   2.177  0.00  0.00    -0.076 S 
ENDBRANCH  14  17
ENDBRANCH   7  14
BRANCH   8  22
ATOM     22  N   UNL     1       2.764  -3.514   1.138  0.00  0.00    -0.316 N 
ATOM     23  H   UNL     1       2.928  -3.115   2.007  0.00  0.00    +0.148 HD
BRANCH  22  24
ATOM     24  C   UNL     1       2.387  -4.858   1.045  0.00  0.00    +0.065 A 
ATOM     25  C   UNL     1       2.029  -5.396  -0.184  0.00  0.00    +0.027 A 
ATOM     26  C   UNL     1       1.656  -6.723  -0.273  0.00  0.00    +0.017 A 
ATOM     27  C   UNL     1       1.639  -7.517   0.860  0.00  0.00    +0.021 A 
ATOM     28  C   UNL     1       1.995  -6.985   2.086  0.00  0.00    +0.055 A 
ATOM     29  C   UNL     1       2.375  -5.659   2.182  0.00  0.00    +0.145 A 
ATOM     30  F   UNL     1       2.728  -5.141   3.378  0.00  0.00    -0.204 F 
ATOM     31 BR   UNL     1       1.129  -9.333   0.731  0.00  0.00    -0.050 Br
ENDBRANCH  22  24
ENDBRANCH   8  22
TORSDOF 4
