REMARK  Name = ZINC39665206
REMARK  8 active torsions:
REMARK  status: ('A' for Active; 'I' for Inactive)
REMARK    1  A    between atoms: C_1  and  C_2
REMARK    2  A    between atoms: C_6  and  C_9
REMARK    3  A    between atoms: C_13  and  C_22
REMARK    4  A    between atoms: N_24  and  C_25
REMARK    5  A    between atoms: C_25  and  C_26
REMARK    6  A    between atoms: C_26  and  C_28
REMARK    7  A    between atoms: C_26  and  O_29
REMARK    8  A    between atoms: O_29  and  C_30
REMARK                            x       y       z     vdW  Elec       q    Type
REMARK                         _______ _______ _______ _____ _____    ______ ____
ROOT
ATOM      1  C   UNL     1       0.050  -2.817   2.414  0.00  0.00    +0.251 C 
ATOM      2  O   UNL     1       1.113  -3.116   2.922  0.00  0.00    -0.270 OA
ATOM      3  N   UNL     1      -1.105  -3.184   3.003  0.00  0.00    -0.296 N 
ATOM      4  C   UNL     1      -2.487  -2.921   2.536  0.00  0.00    +0.121 C 
ATOM      5  C   UNL     1      -3.259  -4.222   2.848  0.00  0.00    +0.100 C 
ATOM      6  C   UNL     1      -2.464  -4.888   3.984  0.00  0.00    -0.004 C 
ATOM      7  C   UNL     1      -1.281  -3.949   4.261  0.00  0.00    +0.115 C 
ATOM      8  C   UNL     1      -3.335  -5.024   5.229  0.00  0.00    -0.010 C 
ATOM      9  C   UNL     1      -2.542  -5.740   6.326  0.00  0.00    -0.082 C 
ATOM     10  N   UNL     1      -2.128  -7.064   5.847  0.00  0.00    +0.379 N 
ATOM     11  C   UNL     1      -1.216  -6.921   4.706  0.00  0.00    -0.082 C 
ATOM     12  C   UNL     1      -1.953  -6.255   3.541  0.00  0.00    -0.010 C 
ATOM     13  H   UNL     1      -1.658  -7.558   6.591  0.00  0.00    -0.086 HD
ATOM     14  H   UNL     1      -2.942  -7.587   5.562  0.00  0.00    -0.086 HD
ENDROOT
BRANCH   1  20
ATOM     15  C   UNL     1      -0.046   1.562   0.015  0.00  0.00    +0.047 C 
ATOM     16  C   UNL     1      -0.022   0.055  -0.009  0.00  0.00    -0.014 A 
ATOM     17  C   UNL     1      -0.025  -0.615  -1.218  0.00  0.00    +0.007 A 
ATOM     18  C   UNL     1      -0.003  -1.998  -1.251  0.00  0.00    +0.021 A 
ATOM     19  C   UNL     1       0.021  -2.721  -0.075  0.00  0.00    +0.056 A 
ATOM     20  C   UNL     1       0.025  -2.052   1.152  0.00  0.00    +0.091 A 
ATOM     21  C   UNL     1       0.008  -0.653   1.178  0.00  0.00    +0.140 A 
ATOM     22  F   UNL     1       0.016   0.003   2.359  0.00  0.00    -0.204 F 
ATOM     23 CL   UNL     1       0.048  -4.456  -0.120  0.00  0.00    -0.083 Cl
ENDBRANCH   1  20
BRANCH   5  24
ATOM     24  C   UNL     1      -4.661  -3.905   3.301  0.00  0.00    +0.218 C 
ATOM     25  O   UNL     1      -4.875  -2.908   3.958  0.00  0.00    -0.275 OA
ATOM     26  N   UNL     1      -5.677  -4.729   2.977  0.00  0.00    -0.312 N 
ATOM     27  H   UNL     1      -5.506  -5.526   2.452  0.00  0.00    +0.149 HD
BRANCH  26  28
ATOM     28  C   UNL     1      -7.039  -4.420   3.417  0.00  0.00    +0.148 C 
BRANCH  28  29
ATOM     29  C   UNL     1      -7.995  -5.507   2.919  0.00  0.00    +0.187 C 
ATOM     30  C   UNL     1      -9.418  -5.184   3.379  0.00  0.00    +0.053 C 
BRANCH  29  31
ATOM     31  O   UNL     1      -7.956  -5.558   1.492  0.00  0.00    -0.488 OA
BRANCH  31  32
ATOM     32  C   UNL     1      -8.299  -6.735   0.907  0.00  0.00    +0.121 A 
ATOM     33  C   UNL     1      -8.168  -6.894  -0.465  0.00  0.00    +0.045 A 
ATOM     34  C   UNL     1      -8.517  -8.092  -1.057  0.00  0.00    +0.004 A 
ATOM     35  C   UNL     1      -8.996  -9.133  -0.284  0.00  0.00    +0.000 A 
ATOM     36  C   UNL     1      -9.129  -8.977   1.083  0.00  0.00    +0.004 A 
ATOM     37  C   UNL     1      -8.775  -7.783   1.681  0.00  0.00    +0.045 A 
ENDBRANCH  31  32
ENDBRANCH  29  31
ENDBRANCH  28  29
ENDBRANCH  26  28
ENDBRANCH   5  24
TORSDOF 6
