REMARK  Name = ZINC13124115
REMARK  8 active torsions:
REMARK  status: ('A' for Active; 'I' for Inactive)
REMARK    1  A    between atoms: C_1  and  C_2
REMARK    2  A    between atoms: C_5  and  C_8
REMARK    3  A    between atoms: C_11  and  C_36
REMARK    4  A    between atoms: C_16  and  C_18
REMARK    5  A    between atoms: N_20  and  C_21
REMARK    6  A    between atoms: C_22  and  C_34
REMARK    7  A    between atoms: N_23  and  C_33
REMARK    8  A    between atoms: N_24  and  C_27
REMARK                            x       y       z     vdW  Elec       q    Type
REMARK                         _______ _______ _______ _____ _____    ______ ____
ROOT
ATOM      1  C   UNL     1       0.517  -3.556   0.083  0.00  0.00    +0.104 C 
ATOM      2  C   UNL     1      -0.769  -4.379   0.205  0.00  0.00    +0.063 C 
ATOM      3  C   UNL     1      -1.485  -4.038   1.517  0.00  0.00    +0.215 C 
ATOM      4  N   UNL     1      -0.520  -4.120   2.618  0.00  0.00    -0.238 N 
ATOM      5  C   UNL     1       0.834  -4.072   2.445  0.00  0.00    +0.119 A 
ATOM      6  C   UNL     1       1.416  -4.176   3.655  0.00  0.00    +0.078 A 
ATOM      7  C   UNL     1       0.386  -4.291   4.616  0.00  0.00    +0.149 A 
ATOM      8  N   UNL     1      -0.773  -4.255   3.982  0.00  0.00    -0.164 NA
ATOM      9  N   UNL     1       1.427  -3.933   1.182  0.00  0.00    -0.322 N 
ATOM     10  H   UNL     1       2.376  -4.077   1.038  0.00  0.00    +0.148 HD
ENDROOT
BRANCH   1  15
ATOM     11  C   UNL     1      -0.742   2.072   0.447  0.00  0.00    +0.044 C 
ATOM     12  C   UNL     1      -0.414   0.605   0.352  0.00  0.00    -0.050 A 
ATOM     13  C   UNL     1      -0.193   0.024  -0.883  0.00  0.00    +0.004 A 
ATOM     14  C   UNL     1       0.109  -1.322  -0.970  0.00  0.00    +0.006 A 
ATOM     15  C   UNL     1       0.190  -2.088   0.178  0.00  0.00    -0.027 A 
ATOM     16  C   UNL     1      -0.030  -1.507   1.413  0.00  0.00    +0.006 A 
ATOM     17  C   UNL     1      -0.328  -0.160   1.500  0.00  0.00    +0.004 A 
ENDBRANCH   1  15
BRANCH   7  18
ATOM     18  C   UNL     1       0.572  -4.427   6.075  0.00  0.00    +0.269 C 
ATOM     19  O   UNL     1       1.693  -4.447   6.545  0.00  0.00    -0.268 OA
ATOM     20  N   UNL     1      -0.500  -4.528   6.885  0.00  0.00    -0.274 N 
ATOM     21  H   UNL     1      -1.394  -4.438   6.519  0.00  0.00    +0.155 HD
BRANCH  20  22
ATOM     22  C   UNL     1      -0.323  -4.764   8.262  0.00  0.00    +0.122 A 
ATOM     23  C   UNL     1      -0.769  -3.985   9.273  0.00  0.00    +0.059 A 
ATOM     24  N   UNL     1      -0.395  -4.555  10.462  0.00  0.00    -0.282 N 
ATOM     25  N   UNL     1       0.312  -5.735  10.203  0.00  0.00    -0.216 N 
ATOM     26  C   UNL     1       0.372  -5.902   8.865  0.00  0.00    +0.293 A 
ATOM     27  O   UNL     1       0.906  -6.822   8.273  0.00  0.00    -0.264 OA
ATOM     28  C   UNL     1      -0.687  -4.014  11.792  0.00  0.00    +0.171 C 
ATOM     29  C   UNL     1      -1.546  -2.704   9.119  0.00  0.00    +0.067 C 
BRANCH  25  30
ATOM     30  C   UNL     1       0.856  -6.594  11.163  0.00  0.00    +0.067 A 
ATOM     31  C   UNL     1       2.177  -7.010  11.056  0.00  0.00    +0.028 A 
ATOM     32  C   UNL     1       2.711  -7.859  12.006  0.00  0.00    +0.002 A 
ATOM     33  C   UNL     1       1.932  -8.293  13.062  0.00  0.00    +0.000 A 
ATOM     34  C   UNL     1       0.617  -7.881  13.172  0.00  0.00    +0.002 A 
ATOM     35  C   UNL     1       0.079  -7.027  12.229  0.00  0.00    +0.028 A 
ENDBRANCH  25  30
ENDBRANCH  20  22
ENDBRANCH   7  18
BRANCH   3  36
ATOM     36  C   UNL     1      -2.622  -5.034   1.754  0.00  0.00    +0.412 C 
ATOM     37  F   UNL     1      -2.100  -6.329   1.832  0.00  0.00    -0.168 F 
ATOM     38  F   UNL     1      -3.274  -4.720   2.952  0.00  0.00    -0.168 F 
ATOM     39  F   UNL     1      -3.534  -4.961   0.695  0.00  0.00    -0.168 F 
ENDBRANCH   3  36
TORSDOF 5
