REMARK  Name = ZINC00125058
REMARK  6 active torsions:
REMARK  status: ('A' for Active; 'I' for Inactive)
REMARK    1  A    between atoms: C_1  and  C_2
REMARK    2  A    between atoms: C_4  and  O_21
REMARK    3  A    between atoms: C_5  and  C_9
REMARK    4  A    between atoms: C_6  and  O_8
REMARK    5  A    between atoms: C_10  and  C_15
REMARK    6  A    between atoms: C_17  and  C_20
REMARK                            x       y       z     vdW  Elec       q    Type
REMARK                         _______ _______ _______ _____ _____    ______ ____
ROOT
ATOM      1  C   UNL     1      -0.213  -4.227  -0.203  0.00  0.00    +0.109 A 
ATOM      2  C   UNL     1      -0.202  -5.186   0.904  0.00  0.00    +0.052 A 
ATOM      3  C   UNL     1      -0.364  -6.424   0.351  0.00  0.00    +0.116 A 
ATOM      4  N   UNL     1      -0.470  -6.276  -0.983  0.00  0.00    -0.283 N 
ATOM      5  H   UNL     1      -0.593  -6.998  -1.619  0.00  0.00    +0.188 HD
ATOM      6  N   UNL     1      -0.380  -4.919  -1.309  0.00  0.00    -0.173 NA
ENDROOT
BRANCH   1  11
ATOM      7  C   UNL     1       0.343   1.496   0.214  0.00  0.00    +0.044 C 
ATOM      8  C   UNL     1       0.198  -0.001   0.105  0.00  0.00    -0.044 A 
ATOM      9  C   UNL     1      -0.931  -0.540  -0.483  0.00  0.00    +0.049 A 
ATOM     10  C   UNL     1      -1.073  -1.915  -0.587  0.00  0.00    +0.130 A 
ATOM     11  C   UNL     1      -0.070  -2.756  -0.096  0.00  0.00    +0.085 A 
ATOM     12  C   UNL     1       1.068  -2.202   0.497  0.00  0.00    +0.130 A 
ATOM     13  C   UNL     1       1.196  -0.825   0.589  0.00  0.00    +0.049 A 
BRANCH  12  14
ATOM     14  O   UNL     1       2.048  -3.011   0.978  0.00  0.00    -0.506 OA
ATOM     15  H   UNL     1       2.772  -3.165   0.355  0.00  0.00    +0.292 HD
ENDBRANCH  12  14
BRANCH  10  16
ATOM     16  O   UNL     1      -2.183  -2.444  -1.164  0.00  0.00    -0.506 OA
ATOM     17  H   UNL     1      -2.104  -2.578  -2.119  0.00  0.00    +0.292 HD
ENDBRANCH  10  16
ENDBRANCH   1  11
BRANCH   2  18
ATOM     18  C   UNL     1      -0.045  -4.874   2.340  0.00  0.00    +0.112 A 
ATOM     19  N   UNL     1       0.077  -5.698   3.372  0.00  0.00    -0.244 NA
ATOM     20  C   UNL     1       0.210  -5.241   4.597  0.00  0.00    +0.046 A 
ATOM     21  C   UNL     1       0.223  -3.902   4.822  0.00  0.00    +0.070 A 
ATOM     22  S   UNL     1       0.038  -3.284   3.154  0.00  0.00    -0.075 S 
ATOM     23  C   UNL     1       0.347  -6.201   5.750  0.00  0.00    +0.066 C 
ENDBRANCH   2  18
TORSDOF 4
