REMARK  Name = ZINC16000648
REMARK  4 active torsions:
REMARK  status: ('A' for Active; 'I' for Inactive)
REMARK    1  A    between atoms: C_1  and  C_2
REMARK    2  A    between atoms: C_4  and  N_35
REMARK    3  A    between atoms: C_7  and  N_8
REMARK    4  A    between atoms: C_28  and  C_33
REMARK                            x       y       z     vdW  Elec       q    Type
REMARK                         _______ _______ _______ _____ _____    ______ ____
ROOT
ATOM      1  N   UNL     1      -3.000  -0.273  -1.365  0.00  0.00    -0.210 N 
ATOM      2  C   UNL     1      -2.881  -1.507  -0.861  0.00  0.00    +0.228 C 
ATOM      3  O   UNL     1      -3.804  -2.236  -0.568  0.00  0.00    -0.275 OA
ATOM      4  C   UNL     1      -1.416  -1.850  -0.712  0.00  0.00    +0.074 C 
ATOM      5  C   UNL     1      -1.061  -1.944   0.783  0.00  0.00    -0.054 C 
ATOM      6  C   UNL     1      -2.318  -2.272   1.609  0.00  0.00    -0.016 C 
ATOM      7  C   UNL     1      -2.907  -0.909   2.022  0.00  0.00    -0.020 C 
ATOM      8  C   UNL     1      -1.975   0.142   1.387  0.00  0.00    -0.076 C 
ATOM      9  N   UNL     1      -0.683  -0.555   1.184  0.00  0.00    +0.395 N 
ATOM     10  C   UNL     1       0.002  -0.004   0.002  0.00  0.00    +0.053 C 
ATOM     11  C   UNL     1      -0.732  -0.562  -1.222  0.00  0.00    +0.089 C 
ATOM     12  C   UNL     1      -1.837   0.342  -1.607  0.00  0.00    +0.229 C 
ATOM     13  O   UNL     1      -1.717   1.459  -2.064  0.00  0.00    -0.275 OA
ATOM     14  C   UNL     1       1.459  -0.373  -0.013  0.00  0.00    -0.027 A 
ATOM     15  C   UNL     1       2.131  -1.575  -0.026  0.00  0.00    +0.006 A 
ATOM     16  C   UNL     1       3.515  -1.594  -0.038  0.00  0.00    +0.020 A 
ATOM     17  C   UNL     1       4.220  -0.403  -0.039  0.00  0.00    +0.046 A 
ATOM     18  C   UNL     1       3.550   0.803  -0.027  0.00  0.00    -0.011 A 
ATOM     19  C   UNL     1       2.157   0.831  -0.014  0.00  0.00    +0.040 A 
ATOM     20  N   UNL     1       1.266   1.906   0.000  0.00  0.00    -0.286 N 
ATOM     21  C   UNL     1      -0.018   1.501   0.010  0.00  0.00    +0.212 C 
ATOM     22  O   UNL     1      -1.001   2.212   0.019  0.00  0.00    -0.277 OA
ATOM     23  C   UNL     1       4.326   2.095  -0.027  0.00  0.00    +0.047 C 
ATOM     24 CL   UNL     1       5.956  -0.427  -0.054  0.00  0.00    -0.083 Cl
ATOM     25  H   UNL     1       1.649   2.937   0.002  0.00  0.00    +0.155 HD
ATOM     26  H   UNL     1      -0.046  -0.464   2.076  0.00  0.00    -0.079 HD
ENDROOT
BRANCH   1  33
ATOM     27  C   UNL     1      -4.176  -0.644  -3.930  0.00  0.00    +0.046 C 
ATOM     28  C   UNL     1      -4.850   0.170  -2.856  0.00  0.00    -0.026 A 
ATOM     29  C   UNL     1      -6.074   0.761  -3.102  0.00  0.00    +0.038 A 
ATOM     30  C   UNL     1      -6.693   1.508  -2.117  0.00  0.00    +0.127 A 
ATOM     31  C   UNL     1      -6.090   1.665  -0.883  0.00  0.00    +0.034 A 
ATOM     32  C   UNL     1      -4.869   1.072  -0.629  0.00  0.00    +0.026 A 
ATOM     33  C   UNL     1      -4.242   0.326  -1.618  0.00  0.00    +0.047 A 
BRANCH  30  34
ATOM     34  N   UNL     1      -8.005   2.140  -2.384  0.00  0.00    +0.056 N 
ATOM     35  O   UNL     1      -8.538   2.002  -3.471  0.00  0.00    -0.126 OA
ATOM     36  O   UNL     1      -8.551   2.798  -1.517  0.00  0.00    -0.126 OA
ENDBRANCH  30  34
ENDBRANCH   1  33
TORSDOF 2
