REMARK  Name = ZINC03011879
REMARK  4 active torsions:
REMARK  status: ('A' for Active; 'I' for Inactive)
REMARK    1  A    between atoms: C_6  and  C_7
REMARK    2  A    between atoms: C_10  and  C_29
REMARK    3  A    between atoms: C_15  and  C_17
REMARK    4  A    between atoms: N_19  and  C_20
REMARK                            x       y       z     vdW  Elec       q    Type
REMARK                         _______ _______ _______ _____ _____    ______ ____
ROOT
ATOM      1  C   UNL     1      -1.256  -0.803   0.035  0.00  0.00    +0.104 C 
ATOM      2  C   UNL     1      -1.554  -1.301   1.453  0.00  0.00    +0.063 C 
ATOM      3  C   UNL     1      -2.909  -2.019   1.480  0.00  0.00    +0.215 C 
ATOM      4  N   UNL     1      -2.946  -3.002   0.394  0.00  0.00    -0.238 N 
ATOM      5  C   UNL     1      -2.115  -2.967  -0.690  0.00  0.00    +0.119 A 
ATOM      6  C   UNL     1      -2.416  -4.013  -1.484  0.00  0.00    +0.078 A 
ATOM      7  C   UNL     1      -3.474  -4.723  -0.872  0.00  0.00    +0.149 A 
ATOM      8  N   UNL     1      -3.785  -4.107   0.256  0.00  0.00    -0.164 NA
ATOM      9  N   UNL     1      -1.150  -1.969  -0.864  0.00  0.00    -0.322 N 
ATOM     10  H   UNL     1      -0.451  -2.041  -1.533  0.00  0.00    +0.148 HD
ENDROOT
BRANCH   1  16
ATOM     11  C   UNL     1       0.035   1.342   0.043  0.00  0.00    +0.007 A 
ATOM     12  C   UNL     1       1.226   2.042   0.039  0.00  0.00    +0.020 A 
ATOM     13  C   UNL     1       2.429   1.358   0.021  0.00  0.00    +0.041 A 
ATOM     14  C   UNL     1       2.439  -0.025   0.008  0.00  0.00    +0.020 A 
ATOM     15  C   UNL     1       1.246  -0.724   0.012  0.00  0.00    +0.007 A 
ATOM     16  C   UNL     1       0.044  -0.041   0.030  0.00  0.00    -0.027 A 
ATOM     17 CL   UNL     1       3.927   2.237   0.015  0.00  0.00    -0.084 Cl
ENDBRANCH   1  16
BRANCH   7  18
ATOM     18  C   UNL     1      -4.120  -5.942  -1.400  0.00  0.00    +0.268 C 
ATOM     19  O   UNL     1      -3.746  -6.420  -2.454  0.00  0.00    -0.268 OA
ATOM     20  N   UNL     1      -5.123  -6.524  -0.714  0.00  0.00    -0.279 N 
ATOM     21  H   UNL     1      -5.378  -6.182   0.157  0.00  0.00    +0.155 HD
BRANCH  20  22
ATOM     22  C   UNL     1      -5.797  -7.622  -1.259  0.00  0.00    +0.054 A 
ATOM     23  C   UNL     1      -5.110  -8.546  -2.035  0.00  0.00    +0.044 A 
ATOM     24  C   UNL     1      -5.779  -9.630  -2.571  0.00  0.00    +0.043 A 
ATOM     25  C   UNL     1      -7.132  -9.796  -2.335  0.00  0.00    +0.021 A 
ATOM     26  C   UNL     1      -7.820  -8.878  -1.564  0.00  0.00    +0.023 A 
ATOM     27  C   UNL     1      -7.155  -7.794  -1.020  0.00  0.00    +0.062 A 
ATOM     28 CL   UNL     1      -8.018  -6.646  -0.045  0.00  0.00    -0.082 Cl
ATOM     29 CL   UNL     1      -4.920 -10.786  -3.542  0.00  0.00    -0.083 Cl
ENDBRANCH  20  22
ENDBRANCH   7  18
BRANCH   3  30
ATOM     30  C   UNL     1      -3.086  -2.728   2.824  0.00  0.00    +0.412 C 
ATOM     31  F   UNL     1      -3.038  -1.787   3.858  0.00  0.00    -0.168 F 
ATOM     32  F   UNL     1      -4.323  -3.382   2.846  0.00  0.00    -0.168 F 
ATOM     33  F   UNL     1      -2.061  -3.664   2.997  0.00  0.00    -0.168 F 
ENDBRANCH   3  30
TORSDOF 4
