REMARK  Name = ZINC39509357
REMARK  7 active torsions:
REMARK  status: ('A' for Active; 'I' for Inactive)
REMARK    1  A    between atoms: C_4  and  C_7
REMARK    2  A    between atoms: C_11  and  C_13
REMARK    3  A    between atoms: C_13  and  N_14
REMARK    4  A    between atoms: C_21  and  C_23
REMARK    5  A    between atoms: N_25  and  C_26
REMARK    6  A    between atoms: C_26  and  C_27
REMARK    7  A    between atoms: C_27  and  C_32
REMARK                            x       y       z     vdW  Elec       q    Type
REMARK                         _______ _______ _______ _____ _____    ______ ____
ROOT
ATOM      1  N   UNL     1       3.548  -3.999   0.237  0.00  0.00    +0.380 N 
ATOM      2  C   UNL     1       2.595  -4.590  -0.709  0.00  0.00    -0.078 C 
ATOM      3  C   UNL     1       2.865  -6.093  -0.837  0.00  0.00    -0.011 C 
ATOM      4  C   UNL     1       2.790  -6.723   0.558  0.00  0.00    -0.021 C 
ATOM      5  C   UNL     1       3.632  -6.017   1.625  0.00  0.00    -0.011 C 
ATOM      6  C   UNL     1       3.310  -4.519   1.589  0.00  0.00    -0.078 C 
ATOM      7  C   UNL     1       2.651  -8.242   0.648  0.00  0.00    +0.020 C 
ATOM      8  C   UNL     1       1.462  -7.340   0.990  0.00  0.00    +0.082 C 
ATOM      9  H   UNL     1       4.487  -4.231  -0.050  0.00  0.00    -0.082 HD
ENDROOT
BRANCH   8  10
ATOM     10  C   UNL     1       0.320  -7.293   0.009  0.00  0.00    +0.217 C 
ATOM     11  O   UNL     1       0.182  -8.181  -0.805  0.00  0.00    -0.275 OA
ATOM     12  N   UNL     1      -0.549  -6.263   0.035  0.00  0.00    -0.314 N 
ATOM     13  H   UNL     1      -0.439  -5.552   0.686  0.00  0.00    +0.149 HD
BRANCH  12  14
ATOM     14  C   UNL     1      -1.659  -6.216  -0.920  0.00  0.00    +0.115 C 
BRANCH  14  15
ATOM     15  C   UNL     1      -2.439  -4.913  -0.732  0.00  0.00    +0.011 C 
ATOM     16  C   UNL     1      -1.500  -3.704  -0.916  0.00  0.00    +0.013 C 
ATOM     17  C   UNL     1      -1.697  -3.292  -2.396  0.00  0.00    +0.001 C 
ATOM     18  C   UNL     1      -3.214  -3.512  -2.613  0.00  0.00    +0.001 C 
ATOM     19  C   UNL     1      -3.530  -4.791  -1.811  0.00  0.00    +0.013 C 
BRANCH  15  20
ATOM     20  C   UNL     1      -3.064  -4.879   0.639  0.00  0.00    -0.040 A 
ATOM     21  C   UNL     1      -3.737  -3.748   1.064  0.00  0.00    +0.004 A 
ATOM     22  C   UNL     1      -4.310  -3.717   2.322  0.00  0.00    +0.000 A 
ATOM     23  C   UNL     1      -4.210  -4.816   3.154  0.00  0.00    +0.000 A 
ATOM     24  C   UNL     1      -3.538  -5.947   2.729  0.00  0.00    +0.000 A 
ATOM     25  C   UNL     1      -2.969  -5.980   1.470  0.00  0.00    +0.004 A 
ENDBRANCH  15  20
ENDBRANCH  14  15
ENDBRANCH  12  14
ENDBRANCH   8  10
BRANCH   1  26
ATOM     26  C   UNL     1       3.387  -2.539   0.242  0.00  0.00    -0.063 C 
BRANCH  26  31
ATOM     27  C   UNL     1       3.482  -0.491  -1.197  0.00  0.00    +0.077 C 
ATOM     28  N   UNL     1       4.638   0.073  -1.416  0.00  0.00    -0.153 NA
ATOM     29  N   UNL     1       5.667  -0.858  -1.515  0.00  0.00    -0.161 NA
ATOM     30  C   UNL     1       5.250  -2.074  -1.368  0.00  0.00    +0.115 C 
ATOM     31  C   UNL     1       3.756  -1.981  -1.134  0.00  0.00    +0.066 C 
BRANCH  27  35
ATOM     32  C   UNL     1      -0.264   1.445  -0.740  0.00  0.00    +0.000 A 
ATOM     33  C   UNL     1       0.875   2.196  -0.974  0.00  0.00    +0.001 A 
ATOM     34  C   UNL     1       2.096   1.574  -1.124  0.00  0.00    +0.010 A 
ATOM     35  C   UNL     1       2.183   0.180  -1.038  0.00  0.00    -0.001 A 
ATOM     36  C   UNL     1       1.028  -0.571  -0.801  0.00  0.00    +0.010 A 
ATOM     37  C   UNL     1      -0.187   0.066  -0.654  0.00  0.00    +0.001 A 
ENDBRANCH  27  35
ENDBRANCH  26  31
ENDBRANCH   1  26
TORSDOF 7
