REMARK  Name = ZINC13065196
REMARK  13 active torsions:
REMARK  status: ('A' for Active; 'I' for Inactive)
REMARK    1  A    between atoms: C_1  and  C_2
REMARK    2  A    between atoms: C_2  and  C_3
REMARK    3  A    between atoms: C_3  and  C_5
REMARK    4  A    between atoms: C_3  and  N_73
REMARK    5  A    between atoms: N_9  and  C_10
REMARK    6  A    between atoms: C_15  and  C_16
REMARK    7  A    between atoms: C_15  and  N_73
REMARK    8  A    between atoms: C_21  and  O_22
REMARK    9  A    between atoms: O_22  and  C_23
REMARK   10  A    between atoms: C_24  and  C_25
REMARK   11  A    between atoms: C_24  and  N_73
REMARK   12  A    between atoms: C_28  and  C_38
REMARK   13  A    between atoms: C_31  and  C_37
REMARK                            x       y       z     vdW  Elec       q    Type
REMARK                         _______ _______ _______ _____ _____    ______ ____
ROOT
ATOM      1  N   UNL     1      -1.391   1.335  -0.928  0.00  0.00    +0.392 N 
ATOM      2  H   UNL     1      -1.980   0.997  -0.158  0.00  0.00    -0.080 HD
ENDROOT
BRANCH   1   3
ATOM      3  C   UNL     1      -1.621   2.784  -1.109  0.00  0.00    +0.003 C 
BRANCH   3   4
ATOM      4  C   UNL     1      -0.916   3.280  -2.345  0.00  0.00    +0.138 A 
ATOM      5  N   UNL     1      -0.892   2.699  -3.519  0.00  0.00    -0.115 NA
ATOM      6  N   UNL     1      -0.188   3.430  -4.312  0.00  0.00    -0.023 NA
ATOM      7  N   UNL     1       0.238   4.464  -3.673  0.00  0.00    -0.044 NA
ATOM      8  N   UNL     1      -0.194   4.410  -2.459  0.00  0.00    -0.228 N 
BRANCH   8   9
ATOM      9  C   UNL     1       0.057   5.393  -1.402  0.00  0.00    +0.111 C 
ATOM     10  C   UNL     1      -0.448   6.783  -1.842  0.00  0.00    +0.027 C 
ATOM     11  C   UNL     1       0.602   7.767  -1.266  0.00  0.00    +0.002 C 
ATOM     12  C   UNL     1       1.933   7.000  -1.459  0.00  0.00    +0.002 C 
ATOM     13  C   UNL     1       1.570   5.531  -1.158  0.00  0.00    +0.027 C 
ENDBRANCH   8   9
ENDBRANCH   3   4
BRANCH   3  15
ATOM     14  C   UNL     1      -3.824   2.650   0.062  0.00  0.00    +0.002 C 
ATOM     15  C   UNL     1      -3.124   3.032  -1.244  0.00  0.00    -0.011 C 
ENDBRANCH   3  15
ENDBRANCH   1   3
BRANCH   1  16
ATOM     16  C   UNL     1       0.027   1.086  -0.593  0.00  0.00    -0.038 C 
BRANCH  16  17
ATOM     17  C   UNL     1       0.295   1.604   0.797  0.00  0.00    -0.022 A 
ATOM     18  C   UNL     1       1.030   2.761   0.973  0.00  0.00    +0.005 A 
ATOM     19  C   UNL     1       1.272   3.240   2.248  0.00  0.00    +0.000 A 
ATOM     20  C   UNL     1       0.788   2.557   3.349  0.00  0.00    +0.004 A 
ATOM     21  C   UNL     1       0.057   1.398   3.178  0.00  0.00    +0.046 A 
ATOM     22  C   UNL     1      -0.192   0.918   1.900  0.00  0.00    +0.121 A 
BRANCH  22  23
ATOM     23  O   UNL     1      -0.911  -0.223   1.729  0.00  0.00    -0.495 OA
ATOM     24  C   UNL     1      -1.380  -0.877   2.909  0.00  0.00    +0.277 C 
ENDBRANCH  22  23
ENDBRANCH  16  17
ENDBRANCH   1  16
BRANCH   1  25
ATOM     25  C   UNL     1      -1.753   0.609  -2.164  0.00  0.00    -0.036 C 
BRANCH  25  26
ATOM     26  C   UNL     1      -1.987  -0.840  -1.821  0.00  0.00    +0.001 A 
ATOM     27  C   UNL     1      -3.242  -1.276  -1.549  0.00  0.00    +0.017 A 
ATOM     28  C   UNL     1      -3.436  -2.690  -1.224  0.00  0.00    +0.002 A 
ATOM     29  C   UNL     1      -4.708  -3.199  -0.941  0.00  0.00    -0.041 A 
ATOM     30  C   UNL     1      -4.855  -4.523  -0.637  0.00  0.00    +0.004 A 
ATOM     31  C   UNL     1      -3.754  -5.368  -0.607  0.00  0.00    +0.005 A 
ATOM     32  C   UNL     1      -2.491  -4.888  -0.882  0.00  0.00    -0.026 A 
ATOM     33  C   UNL     1      -2.317  -3.543  -1.195  0.00  0.00    +0.052 A 
ATOM     34  N   UNL     1      -1.066  -3.037  -1.476  0.00  0.00    -0.322 N 
ATOM     35  H   UNL     1      -0.296  -3.626  -1.455  0.00  0.00    +0.169 HD
ATOM     36  C   UNL     1      -0.898  -1.737  -1.778  0.00  0.00    +0.251 A 
ATOM     37  O   UNL     1       0.223  -1.324  -2.020  0.00  0.00    -0.268 OA
ATOM     38  C   UNL     1      -1.305  -5.816  -0.847  0.00  0.00    +0.046 C 
ATOM     39  C   UNL     1      -5.910  -2.292  -0.971  0.00  0.00    +0.044 C 
ENDBRANCH  25  26
ENDBRANCH   1  25
TORSDOF 9
