REMARK  Name = ZINC11094162
REMARK  10 active torsions:
REMARK  status: ('A' for Active; 'I' for Inactive)
REMARK    1  A    between atoms: C_1  and  C_2
REMARK    2  A    between atoms: C_7  and  N_8
REMARK    3  A    between atoms: C_9  and  C_11
REMARK    4  A    between atoms: C_11  and  C_13
REMARK    5  A    between atoms: C_11  and  N_54
REMARK    6  A    between atoms: C_14  and  C_16
REMARK    7  A    between atoms: C_14  and  C_26
REMARK    8  A    between atoms: C_14  and  N_54
REMARK    9  A    between atoms: C_26  and  C_27
REMARK   10  A    between atoms: C_26  and  C_28
REMARK                            x       y       z     vdW  Elec       q    Type
REMARK                         _______ _______ _______ _____ _____    ______ ____
ROOT
ATOM      1  N   UNL     1      -4.662  -0.142   0.914  0.00  0.00    +0.391 N 
ATOM      2  H   UNL     1      -4.614   0.878   0.803  0.00  0.00    -0.084 HD
ATOM      3  H   UNL     1      -5.604  -0.468   0.670  0.00  0.00    -0.084 HD
ENDROOT
BRANCH   1   4
ATOM      4  C   UNL     1      -4.374  -0.493   2.318  0.00  0.00    +0.014 C 
ATOM      5  C   UNL     1      -4.924  -1.888   2.620  0.00  0.00    -0.004 C 
BRANCH   4   7
ATOM      6  N   UNL     1      -4.911   0.399   4.562  0.00  0.00    -0.287 N 
ATOM      7  C   UNL     1      -5.033   0.514   3.224  0.00  0.00    +0.203 C 
ATOM      8  O   UNL     1      -5.673   1.429   2.751  0.00  0.00    -0.277 OA
ATOM      9  H   UNL     1      -4.352  -0.299   4.939  0.00  0.00    +0.155 HD
BRANCH   6  16
ATOM     10  C   UNL     1      -5.551  -0.477   7.192  0.00  0.00    +0.045 C 
ATOM     11  C   UNL     1      -5.923   0.897   6.697  0.00  0.00    -0.029 A 
ATOM     12  C   UNL     1      -6.589   1.775   7.530  0.00  0.00    +0.006 A 
ATOM     13  C   UNL     1      -6.935   3.034   7.075  0.00  0.00    +0.020 A 
ATOM     14  C   UNL     1      -6.610   3.421   5.787  0.00  0.00    +0.043 A 
ATOM     15  C   UNL     1      -5.939   2.549   4.951  0.00  0.00    +0.043 A 
ATOM     16  C   UNL     1      -5.590   1.284   5.405  0.00  0.00    +0.038 A 
ATOM     17 CL   UNL     1      -7.046   5.003   5.220  0.00  0.00    -0.083 Cl
ENDBRANCH   6  16
ENDBRANCH   4   7
ENDBRANCH   1   4
BRANCH   1  18
ATOM     18  C   UNL     1      -3.679  -0.776   0.015  0.00  0.00    -0.037 C 
BRANCH  18  19
ATOM     19  C   UNL     1      -2.408   0.032   0.008  0.00  0.00    -0.057 A 
ATOM     20  C   UNL     1      -2.468   1.413   0.016  0.00  0.00    +0.006 A 
ATOM     21  C   UNL     1      -1.304   2.159   0.004  0.00  0.00    +0.049 A 
ATOM     22  C   UNL     1      -0.072   1.522  -0.008  0.00  0.00    +0.162 A 
ATOM     23  C   UNL     1      -0.011   0.134  -0.013  0.00  0.00    +0.162 A 
ATOM     24  C   UNL     1      -1.183  -0.608  -0.006  0.00  0.00    +0.051 A 
ATOM     25  O   UNL     1       1.187  -0.511  -0.024  0.00  0.00    -0.485 OA
ATOM     26  C   UNL     1       2.330   0.261  -0.409  0.00  0.00    +0.270 C 
ATOM     27  C   UNL     1       2.279   1.600   0.340  0.00  0.00    +0.270 C 
ATOM     28  O   UNL     1       1.066   2.269  -0.020  0.00  0.00    -0.485 OA
ENDBRANCH  18  19
BRANCH  18  29
ATOM     29  C   UNL     1      -4.257  -0.832  -1.400  0.00  0.00    -0.027 C 
ATOM     30  C   UNL     1      -4.558   0.588  -1.884  0.00  0.00    +0.006 C 
ATOM     31  C   UNL     1      -3.242  -1.486  -2.340  0.00  0.00    +0.006 C 
ENDBRANCH  18  29
ENDBRANCH   1  18
TORSDOF 6
