REMARK  Name = ZINC13457571
REMARK  5 active torsions:
REMARK  status: ('A' for Active; 'I' for Inactive)
REMARK    1  A    between atoms: C_3  and  O_10
REMARK    2  A    between atoms: C_6  and  C_7
REMARK    3  A    between atoms: O_10  and  C_11
REMARK    4  A    between atoms: C_11  and  C_12
REMARK    5  A    between atoms: N_14  and  C_15
REMARK                            x       y       z     vdW  Elec       q    Type
REMARK                         _______ _______ _______ _____ _____    ______ ____
ROOT
ATOM      1  C   UNL     1       0.085  -0.000  -0.009  0.00  0.00    +0.255 C 
ATOM      2  O   UNL     1      -0.912  -0.685   0.083  0.00  0.00    -0.272 OA
ATOM      3  N   UNL     1      -0.016   1.344   0.009  0.00  0.00    -0.282 N 
ATOM      4  H   UNL     1       0.785   1.890   0.014  0.00  0.00    +0.155 HD
ENDROOT
BRANCH   3   5
ATOM      5  C   UNL     1      -1.279   1.951   0.016  0.00  0.00    +0.051 A 
ATOM      6  C   UNL     1      -2.377   1.276  -0.501  0.00  0.00    +0.073 A 
ATOM      7  C   UNL     1      -3.626   1.877  -0.495  0.00  0.00    +0.164 A 
ATOM      8  C   UNL     1      -3.778   3.155   0.031  0.00  0.00    +0.163 A 
ATOM      9  C   UNL     1      -2.679   3.827   0.545  0.00  0.00    +0.066 A 
ATOM     10  C   UNL     1      -1.434   3.226   0.543  0.00  0.00    +0.043 A 
ATOM     11 BR   UNL     1       0.059   4.143   1.254  0.00  0.00    -0.048 Br
ATOM     12  O   UNL     1      -4.998   3.760   0.050  0.00  0.00    -0.485 OA
ATOM     13  C   UNL     1      -6.001   3.211  -0.812  0.00  0.00    +0.270 C 
ATOM     14  C   UNL     1      -5.991   1.685  -0.649  0.00  0.00    +0.270 C 
ATOM     15  O   UNL     1      -4.692   1.204  -1.009  0.00  0.00    -0.485 OA
ENDBRANCH   3   5
BRANCH   1  16
ATOM     16  C   UNL     1       1.437  -0.652  -0.144  0.00  0.00    +0.324 C 
BRANCH  16  17
ATOM     17  O   UNL     1       1.284  -2.073  -0.138  0.00  0.00    -0.482 OA
BRANCH  17  20
ATOM     18  C   UNL     1       4.797  -2.935  -0.482  0.00  0.00    +0.019 A 
ATOM     19  C   UNL     1       3.648  -2.186  -0.367  0.00  0.00    +0.047 A 
ATOM     20  C   UNL     1       2.414  -2.815  -0.252  0.00  0.00    +0.135 A 
ATOM     21  C   UNL     1       2.335  -4.204  -0.247  0.00  0.00    +0.060 A 
ATOM     22  C   UNL     1       3.480  -4.961  -0.367  0.00  0.00    +0.034 A 
ATOM     23  C   UNL     1       4.723  -4.331  -0.483  0.00  0.00    +0.064 A 
ATOM     24 BR   UNL     1       0.654  -5.054  -0.082  0.00  0.00    -0.046 Br
BRANCH  23  25
ATOM     25  C   UNL     1       5.952  -5.137  -0.606  0.00  0.00    +0.387 C 
ATOM     26  O   UNL     1       7.031  -4.588  -0.707  0.00  0.00    -0.241 OA
ATOM     27  O   UNL     1       5.878  -6.482  -0.607  0.00  0.00    -0.241 OA
ENDBRANCH  23  25
ENDBRANCH  17  20
ENDBRANCH  16  17
ENDBRANCH   1  16
TORSDOF 5
