REMARK  Name = ZINC16042731
REMARK  11 active torsions:
REMARK  status: ('A' for Active; 'I' for Inactive)
REMARK    1  A    between atoms: C_1  and  C_2
REMARK    2  A    between atoms: C_2  and  C_3
REMARK    3  A    between atoms: C_2  and  C_4
REMARK    4  A    between atoms: C_7  and  C_10
REMARK    5  A    between atoms: N_28  and  C_31
REMARK    6  A    between atoms: C_31  and  C_32
REMARK    7  A    between atoms: C_32  and  C_33
REMARK    8  A    between atoms: C_36  and  O_41
REMARK    9  A    between atoms: C_37  and  O_39
REMARK   10  A    between atoms: O_39  and  C_40
REMARK   11  A    between atoms: O_41  and  C_42
REMARK                            x       y       z     vdW  Elec       q    Type
REMARK                         _______ _______ _______ _____ _____    ______ ____
ROOT
ATOM      1  C   UNL     1       6.133  -3.010  -1.627  0.00  0.00    +0.155 C 
ATOM      2  C   UNL     1       7.219  -3.265  -2.633  0.00  0.00    +0.046 A 
ATOM      3  C   UNL     1       7.908  -2.284  -3.254  0.00  0.00    -0.015 A 
ATOM      4  C   UNL     1       8.855  -2.934  -4.140  0.00  0.00    +0.003 A 
ATOM      5  C   UNL     1       9.821  -2.436  -5.020  0.00  0.00    +0.010 A 
ATOM      6  C   UNL     1      10.557  -3.360  -5.720  0.00  0.00    +0.001 A 
ATOM      7  C   UNL     1      10.361  -4.723  -5.570  0.00  0.00    +0.002 A 
ATOM      8  C   UNL     1       9.413  -5.243  -4.706  0.00  0.00    +0.026 A 
ATOM      9  C   UNL     1       8.651  -4.328  -3.982  0.00  0.00    +0.047 A 
ATOM     10  N   UNL     1       7.654  -4.490  -3.064  0.00  0.00    -0.356 N 
ATOM     11  H   UNL     1       7.306  -5.344  -2.762  0.00  0.00    +0.166 HD
ATOM     12  C   UNL     1       7.710  -0.802  -3.051  0.00  0.00    +0.069 C 
ATOM     13  C   UNL     1       6.985  -0.563  -1.722  0.00  0.00    +0.169 C 
ATOM     14  N   UNL     1       5.898  -1.561  -1.609  0.00  0.00    -0.261 N 
ATOM     15  C   UNL     1       4.749  -0.888  -1.518  0.00  0.00    +0.313 C 
ATOM     16  O   UNL     1       3.665  -1.415  -1.362  0.00  0.00    -0.252 OA
ATOM     17  N   UNL     1       4.930   0.437  -1.617  0.00  0.00    -0.224 N 
ATOM     18  C   UNL     1       6.233   0.753  -1.763  0.00  0.00    +0.244 C 
ATOM     19  O   UNL     1       6.706   1.861  -1.897  0.00  0.00    -0.273 OA
ENDROOT
BRANCH   1  23
ATOM     20  C   UNL     1       7.492  -4.324   2.203  0.00  0.00    -0.045 A 
ATOM     21  C   UNL     1       6.434  -4.966   1.588  0.00  0.00    +0.004 A 
ATOM     22  C   UNL     1       5.994  -4.540   0.348  0.00  0.00    +0.006 A 
ATOM     23  C   UNL     1       6.612  -3.473  -0.276  0.00  0.00    -0.021 A 
ATOM     24  C   UNL     1       7.674  -2.835   0.337  0.00  0.00    +0.006 A 
ATOM     25  C   UNL     1       8.111  -3.257   1.579  0.00  0.00    +0.004 A 
BRANCH  20  27
ATOM     26  C   UNL     1       9.438  -5.216   3.456  0.00  0.00    +0.012 C 
ATOM     27  C   UNL     1       7.972  -4.788   3.554  0.00  0.00    +0.013 C 
ATOM     28  C   UNL     1       7.841  -3.644   4.562  0.00  0.00    +0.012 C 
ENDBRANCH  20  27
ENDBRANCH   1  23
BRANCH  17  29
ATOM     29  C   UNL     1       3.845   1.420  -1.579  0.00  0.00    +0.122 C 
BRANCH  29  30
ATOM     30  C   UNL     1       3.599   1.852  -0.132  0.00  0.00    +0.055 C 
BRANCH  30  31
ATOM     31  C   UNL     1       2.482   2.864  -0.092  0.00  0.00    -0.042 A 
ATOM     32  C   UNL     1       1.174   2.441   0.055  0.00  0.00    +0.007 A 
ATOM     33  C   UNL     1       0.146   3.365   0.087  0.00  0.00    +0.049 A 
ATOM     34  C   UNL     1       0.426   4.718  -0.018  0.00  0.00    +0.161 A 
ATOM     35  C   UNL     1       1.743   5.143  -0.167  0.00  0.00    +0.162 A 
ATOM     36  C   UNL     1       2.769   4.211  -0.203  0.00  0.00    +0.053 A 
BRANCH  35  37
ATOM     37  O   UNL     1       2.023   6.469  -0.277  0.00  0.00    -0.491 OA
ATOM     38  C   UNL     1       3.397   6.832  -0.428  0.00  0.00    +0.277 C 
ENDBRANCH  35  37
BRANCH  34  39
ATOM     39  O   UNL     1      -0.584   5.628   0.018  0.00  0.00    -0.491 OA
ATOM     40  C   UNL     1      -1.910   5.119   0.172  0.00  0.00    +0.277 C 
ENDBRANCH  34  39
ENDBRANCH  30  31
ENDBRANCH  29  30
ENDBRANCH  17  29
TORSDOF 7
