REMARK  Name = ZINC12146751
REMARK  5 active torsions:
REMARK  status: ('A' for Active; 'I' for Inactive)
REMARK    1  A    between atoms: C_3  and  C_6
REMARK    2  A    between atoms: C_8  and  N_27
REMARK    3  A    between atoms: N_11  and  C_13
REMARK    4  A    between atoms: C_13  and  C_14
REMARK    5  A    between atoms: N_16  and  C_17
REMARK                            x       y       z     vdW  Elec       q    Type
REMARK                         _______ _______ _______ _____ _____    ______ ____
ROOT
ATOM      1  C   UNL     1      -3.947  -0.344  -1.218  0.00  0.00    +0.100 A 
ATOM      2  C   UNL     1      -4.495  -0.837  -0.013  0.00  0.00    +0.058 A 
ATOM      3  C   UNL     1      -3.994  -0.408   1.181  0.00  0.00    +0.094 A 
ATOM      4  C   UNL     1      -2.925   0.524   1.188  0.00  0.00    +0.288 A 
ATOM      5  O   UNL     1      -2.459   0.916   2.246  0.00  0.00    -0.264 OA
ATOM      6  N   UNL     1      -2.430   0.977   0.019  0.00  0.00    -0.218 N 
ATOM      7  N   UNL     1      -2.959   0.524  -1.195  0.00  0.00    -0.167 NA
ENDROOT
BRANCH   1  10
ATOM      8  C   UNL     1      -4.763  -1.028  -4.850  0.00  0.00    +0.008 A 
ATOM      9  C   UNL     1      -4.106  -0.460  -3.781  0.00  0.00    +0.018 A 
ATOM     10  C   UNL     1      -4.488  -0.807  -2.513  0.00  0.00    +0.039 A 
ATOM     11  S   UNL     1      -5.804  -1.971  -2.832  0.00  0.00    -0.095 S 
ATOM     12  C   UNL     1      -5.766  -1.913  -4.615  0.00  0.00    +0.046 A 
ENDBRANCH   1  10
BRANCH   3  13
ATOM     13  N   UNL     1      -4.523  -0.884   2.380  0.00  0.00    -0.354 N 
ATOM     14  H   UNL     1      -5.252  -1.524   2.369  0.00  0.00    +0.142 HD
ATOM     15  H   UNL     1      -4.162  -0.575   3.226  0.00  0.00    +0.142 HD
ENDBRANCH   3  13
BRANCH   6  16
ATOM     16  C   UNL     1      -1.330   1.944   0.019  0.00  0.00    +0.243 C 
BRANCH  16  17
ATOM     17  C   UNL     1      -0.014   1.209   0.009  0.00  0.00    +0.235 C 
ATOM     18  O   UNL     1       0.002  -0.004   0.002  0.00  0.00    -0.274 OA
ATOM     19  N   UNL     1       1.143   1.898   0.001  0.00  0.00    -0.308 N 
ATOM     20  H   UNL     1       1.130   2.868   0.007  0.00  0.00    +0.149 HD
BRANCH  19  21
ATOM     21  C   UNL     1       2.422   1.183  -0.015  0.00  0.00    +0.035 C 
ATOM     22  C   UNL     1       2.527   0.298   1.229  0.00  0.00    +0.029 C 
ATOM     23  C   UNL     1       3.862  -0.449   1.212  0.00  0.00    -0.008 C 
ATOM     24  C   UNL     1       5.011   0.561   1.206  0.00  0.00    +0.007 C 
ATOM     25  C   UNL     1       4.907   1.446  -0.037  0.00  0.00    -0.008 C 
ATOM     26  C   UNL     1       3.571   2.193  -0.020  0.00  0.00    +0.029 C 
ATOM     27  C   UNL     1       4.987   0.575  -1.292  0.00  0.00    +0.007 C 
ATOM     28  C   UNL     1       3.838  -0.435  -1.286  0.00  0.00    -0.008 C 
ATOM     29  C   UNL     1       3.943  -1.321  -0.043  0.00  0.00    +0.007 C 
ATOM     30  C   UNL     1       2.503   0.311  -1.270  0.00  0.00    +0.029 C 
ENDBRANCH  19  21
ENDBRANCH  16  17
ENDBRANCH   6  16
TORSDOF 5
