REMARK  Name = ZINC39596406
REMARK  7 active torsions:
REMARK  status: ('A' for Active; 'I' for Inactive)
REMARK    1  A    between atoms: C_1  and  C_2
REMARK    2  A    between atoms: C_2  and  C_4
REMARK    3  A    between atoms: C_2  and  O_30
REMARK    4  A    between atoms: C_4  and  N_5
REMARK    5  A    between atoms: C_6  and  C_8
REMARK    6  A    between atoms: C_19  and  C_21
REMARK    7  A    between atoms: O_30  and  C_31
REMARK                            x       y       z     vdW  Elec       q    Type
REMARK                         _______ _______ _______ _____ _____    ______ ____
ROOT
ATOM      1  C   UNL     1       1.252  -5.187   4.380  0.00  0.00    +0.100 C 
ATOM      2  C   UNL     1      -0.150  -5.777   4.656  0.00  0.00    +0.121 C 
ATOM      3  N   UNL     1      -0.005  -6.503   5.939  0.00  0.00    -0.296 N 
ATOM      4  C   UNL     1       0.873  -5.633   6.758  0.00  0.00    +0.115 C 
ATOM      5  C   UNL     1       1.919  -5.094   5.763  0.00  0.00    -0.004 C 
ATOM      6  C   UNL     1       3.178  -5.956   5.801  0.00  0.00    -0.010 C 
ATOM      7  C   UNL     1       3.854  -5.802   7.166  0.00  0.00    -0.082 C 
ATOM      8  N   UNL     1       4.196  -4.392   7.388  0.00  0.00    +0.379 N 
ATOM      9  C   UNL     1       2.973  -3.583   7.442  0.00  0.00    -0.082 C 
ATOM     10  C   UNL     1       2.259  -3.643   6.089  0.00  0.00    -0.010 C 
ATOM     11  C   UNL     1      -0.548  -7.687   6.285  0.00  0.00    +0.248 C 
ATOM     12  O   UNL     1      -0.405  -8.117   7.414  0.00  0.00    -0.270 OA
ATOM     13  H   UNL     1       4.696  -4.302   8.260  0.00  0.00    -0.086 HD
ATOM     14  H   UNL     1       4.781  -4.066   6.634  0.00  0.00    -0.086 HD
ENDROOT
BRANCH  11  15
ATOM     15  C   UNL     1      -1.314  -8.459   5.298  0.00  0.00    +0.052 A 
ATOM     16  C   UNL     1      -2.145  -7.843   4.418  0.00  0.00    +0.059 A 
ATOM     17  S   UNL     1      -2.807  -9.074   3.491  0.00  0.00    -0.096 S 
ATOM     18  C   UNL     1      -2.013 -10.478   4.223  0.00  0.00    +0.020 A 
ATOM     19  C   UNL     1      -1.200  -9.918   5.227  0.00  0.00    +0.001 A 
ATOM     20  C   UNL     1      -0.423 -10.804   5.998  0.00  0.00    +0.010 A 
ATOM     21  C   UNL     1      -0.468 -12.155   5.759  0.00  0.00    +0.001 A 
ATOM     22  C   UNL     1      -1.273 -12.682   4.760  0.00  0.00    +0.001 A 
ATOM     23  C   UNL     1      -2.054 -11.837   3.995  0.00  0.00    +0.015 A 
ENDBRANCH  11  15
BRANCH   1  25
ATOM     24  N   UNL     1       2.091  -3.370   2.927  0.00  0.00    -0.312 N 
ATOM     25  C   UNL     1       1.133  -3.818   3.762  0.00  0.00    +0.218 C 
ATOM     26  O   UNL     1       0.174  -3.120   4.015  0.00  0.00    -0.275 OA
ATOM     27  H   UNL     1       2.858  -3.929   2.725  0.00  0.00    +0.149 HD
BRANCH  24  28
ATOM     28  C   UNL     1       1.976  -2.040   2.325  0.00  0.00    +0.148 C 
BRANCH  28  30
ATOM     29  C   UNL     1       3.065  -0.389   0.798  0.00  0.00    +0.053 C 
ATOM     30  C   UNL     1       3.186  -1.779   1.427  0.00  0.00    +0.187 C 
BRANCH  30  31
ATOM     31  O   UNL     1       4.382  -1.847   2.206  0.00  0.00    -0.488 OA
BRANCH  31  32
ATOM     32  C   UNL     1       5.526  -2.179   1.553  0.00  0.00    +0.121 A 
ATOM     33  C   UNL     1       6.700  -2.377   2.265  0.00  0.00    +0.048 A 
ATOM     34  C   UNL     1       7.863  -2.715   1.600  0.00  0.00    +0.042 A 
ATOM     35  C   UNL     1       7.857  -2.856   0.223  0.00  0.00    +0.124 A 
ATOM     36  C   UNL     1       6.686  -2.658  -0.490  0.00  0.00    +0.042 A 
ATOM     37  C   UNL     1       5.521  -2.327   0.174  0.00  0.00    +0.048 A 
ATOM     38  F   UNL     1       8.995  -3.186  -0.426  0.00  0.00    -0.205 F 
ENDBRANCH  31  32
ENDBRANCH  30  31
ENDBRANCH  28  30
ENDBRANCH  24  28
ENDBRANCH   1  25
TORSDOF 6
