REMARK  Name = ZINC36513801
REMARK  18 active torsions:
REMARK  status: ('A' for Active; 'I' for Inactive)
REMARK    1  A    between atoms: C_1  and  C_2
REMARK    2  A    between atoms: C_2  and  C_3
REMARK    3  A    between atoms: C_3  and  C_4
REMARK    4  A    between atoms: C_4  and  C_5
REMARK    5  A    between atoms: C_5  and  C_6
REMARK    6  A    between atoms: C_6  and  N_7
REMARK    7  A    between atoms: N_7  and  C_8
REMARK    8  A    between atoms: C_8  and  C_10
REMARK    9  A    between atoms: C_8  and  C_19
REMARK   10  A    between atoms: C_11  and  O_18
REMARK   11  A    between atoms: C_13  and  O_17
REMARK   12  A    between atoms: C_15  and  O_16
REMARK   13  A    between atoms: N_21  and  C_22
REMARK   14  A    between atoms: C_22  and  C_23
REMARK   15  A    between atoms: C_22  and  C_24
REMARK   16  A    between atoms: C_22  and  C_25
REMARK   17  A    between atoms: C_26  and  C_28
REMARK   18  A    between atoms: C_30  and  N_35
REMARK                            x       y       z     vdW  Elec       q    Type
REMARK                         _______ _______ _______ _____ _____    ______ ____
ROOT
ATOM      1  C   UNL     1      -4.506  -4.350  -0.847  0.00  0.00    +0.199 C 
ENDROOT
BRANCH   1   2
ATOM      2  C   UNL     1      -5.680  -3.417  -0.695  0.00  0.00    +0.065 A 
ATOM      3  C   UNL     1      -5.835  -2.682   0.470  0.00  0.00    +0.129 A 
ATOM      4  C   UNL     1      -6.915  -1.824   0.610  0.00  0.00    +0.091 A 
ATOM      5  C   UNL     1      -7.841  -1.702  -0.416  0.00  0.00    +0.124 A 
ATOM      6  C   UNL     1      -7.686  -2.437  -1.581  0.00  0.00    +0.091 A 
ATOM      7  C   UNL     1      -6.603  -3.291  -1.723  0.00  0.00    +0.129 A 
BRANCH   7   8
ATOM      8  O   UNL     1      -6.448  -4.008  -2.867  0.00  0.00    -0.506 OA
ATOM      9  H   UNL     1      -7.027  -4.780  -2.928  0.00  0.00    +0.292 HD
ENDBRANCH   7   8
BRANCH   5  10
ATOM     10  O   UNL     1      -8.900  -0.862  -0.278  0.00  0.00    -0.507 OA
ATOM     11  H   UNL     1      -8.731   0.038  -0.589  0.00  0.00    +0.292 HD
ENDBRANCH   5  10
BRANCH   3  12
ATOM     12  O   UNL     1      -4.928  -2.801   1.475  0.00  0.00    -0.506 OA
ATOM     13  H   UNL     1      -4.301  -2.067   1.529  0.00  0.00    +0.292 HD
ENDBRANCH   3  12
ENDBRANCH   1   2
BRANCH   1  14
ATOM     14  C   UNL     1      -4.999  -5.772  -0.921  0.00  0.00    +0.239 C 
ATOM     15  O   UNL     1      -4.743  -6.549  -0.026  0.00  0.00    -0.273 OA
ATOM     16  N   UNL     1      -5.726  -6.179  -1.980  0.00  0.00    -0.309 N 
ATOM     17  H   UNL     1      -5.949  -5.551  -2.685  0.00  0.00    +0.149 HD
BRANCH  16  18
ATOM     18  C   UNL     1      -6.178  -7.570  -2.067  0.00  0.00    +0.026 C 
ATOM     19  C   UNL     1      -7.066  -7.894  -0.864  0.00  0.00    +0.031 C 
ATOM     20  C   UNL     1      -6.975  -7.767  -3.358  0.00  0.00    +0.031 C 
ATOM     21  C   UNL     1      -4.964  -8.501  -2.070  0.00  0.00    +0.031 C 
ENDBRANCH  16  18
ENDBRANCH   1  14
BRANCH   1  22
ATOM     22  N   UNL     1      -3.612  -4.202   0.304  0.00  0.00    -0.282 N 
ATOM     23  C   UNL     1      -3.965  -4.711   1.501  0.00  0.00    +0.251 C 
ATOM     24  O   UNL     1      -3.116  -5.163   2.244  0.00  0.00    -0.270 OA
BRANCH  23  25
ATOM     25  C   UNL     1      -5.383  -4.719   1.909  0.00  0.00    +0.086 A 
ATOM     26  C   UNL     1      -6.389  -4.871   0.952  0.00  0.00    +0.049 A 
ATOM     27  C   UNL     1      -7.711  -4.879   1.340  0.00  0.00    +0.127 A 
ATOM     28  C   UNL     1      -8.048  -4.736   2.676  0.00  0.00    +0.036 A 
ATOM     29  C   UNL     1      -7.064  -4.585   3.633  0.00  0.00    +0.054 A 
ATOM     30  C   UNL     1      -5.728  -4.581   3.261  0.00  0.00    +0.191 A 
ATOM     31  O   UNL     1      -4.759  -4.439   4.200  0.00  0.00    -0.287 OA
BRANCH  27  32
ATOM     32  N   UNL     1      -8.776  -5.039   0.325  0.00  0.00    +0.056 N 
ATOM     33  O   UNL     1      -8.487  -5.133  -0.845  0.00  0.00    -0.126 OA
ATOM     34  O   UNL     1      -9.935  -5.077   0.666  0.00  0.00    -0.126 OA
ENDBRANCH  27  32
ENDBRANCH  23  25
BRANCH  22  35
ATOM     35  C   UNL     1      -2.335  -3.500   0.155  0.00  0.00    +0.109 C 
BRANCH  35  36
ATOM     36  C   UNL     1      -2.461  -2.085   0.722  0.00  0.00    +0.019 C 
BRANCH  36  37
ATOM     37  C   UNL     1      -1.191  -1.292   0.402  0.00  0.00    +0.002 C 
BRANCH  37  38
ATOM     38  C   UNL     1      -1.317   0.123   0.969  0.00  0.00    -0.000 C 
BRANCH  38  40
ATOM     39  C   UNL     1      -0.174   2.331   1.217  0.00  0.00    +0.004 C 
ATOM     40  C   UNL     1      -0.048   0.915   0.650  0.00  0.00    -0.003 C 
ENDBRANCH  38  40
ENDBRANCH  37  38
ENDBRANCH  36  37
ENDBRANCH  35  36
ENDBRANCH  22  35
ENDBRANCH   1  22
TORSDOF 14
