REMARK  Name = ZINC59105688
REMARK  3 active torsions:
REMARK  status: ('A' for Active; 'I' for Inactive)
REMARK    1  A    between atoms: C_6  and  N_7
REMARK    2  A    between atoms: C_13  and  C_14
REMARK    3  A    between atoms: C_16  and  N_22
REMARK                            x       y       z     vdW  Elec       q    Type
REMARK                         _______ _______ _______ _____ _____    ______ ____
ROOT
ATOM      1  N   UNL     1      -1.565  -0.172  -0.697  0.00  0.00    -0.226 NA
ATOM      2  C   UNL     1      -1.636  -1.317  -1.367  0.00  0.00    +0.166 C 
ATOM      3  N   UNL     1      -0.760  -1.783  -2.307  0.00  0.00    -0.260 N 
ATOM      4  C   UNL     1      -1.015  -2.963  -2.862  0.00  0.00    +0.256 C 
ATOM      5  O   UNL     1      -0.299  -3.466  -3.707  0.00  0.00    -0.269 OA
ATOM      6  C   UNL     1      -2.247  -3.610  -2.362  0.00  0.00    +0.078 C 
ATOM      7  C   UNL     1      -2.800  -4.843  -2.731  0.00  0.00    +0.028 C 
ATOM      8  S   UNL     1      -2.815  -2.501  -1.235  0.00  0.00    -0.049 S 
ATOM      9  H   UNL     1       0.023  -1.269  -2.561  0.00  0.00    +0.157 HD
ENDROOT
BRANCH   7  10
ATOM     10  C   UNL     1      -4.066  -5.221  -2.246  0.00  0.00    -0.020 A 
ATOM     11  C   UNL     1      -4.971  -4.239  -1.783  0.00  0.00    +0.044 A 
ATOM     12  C   UNL     1      -6.194  -4.612  -1.316  0.00  0.00    +0.174 A 
ATOM     13  C   UNL     1      -6.555  -5.962  -1.293  0.00  0.00    +0.222 A 
ATOM     14  C   UNL     1      -5.666  -6.939  -1.749  0.00  0.00    +0.063 A 
ATOM     15  C   UNL     1      -4.441  -6.582  -2.225  0.00  0.00    +0.026 A 
ATOM     16  I   UNL     1      -6.223  -8.959  -1.707  0.00  0.00    -0.040 I 
ATOM     17  O   UNL     1      -7.773  -6.324  -0.826  0.00  0.00    -0.284 OA
BRANCH  12  18
ATOM     18  N   UNL     1      -7.143  -3.585  -0.830  0.00  0.00    +0.060 N 
ATOM     19  O   UNL     1      -6.803  -2.313  -0.851  0.00  0.00    -0.126 OA
ATOM     20  O   UNL     1      -8.326  -3.944  -0.378  0.00  0.00    -0.126 OA
ENDBRANCH  12  18
ENDBRANCH   7  10
BRANCH   1  26
ATOM     21  C   UNL     1      -0.798   2.058  -1.071  0.00  0.00    +0.030 A 
ATOM     22  C   UNL     1       0.241   2.907  -1.297  0.00  0.00    +0.040 A 
ATOM     23  C   UNL     1       1.544   2.417  -1.381  0.00  0.00    +0.124 A 
ATOM     24  C   UNL     1       1.798   1.054  -1.234  0.00  0.00    +0.040 A 
ATOM     25  C   UNL     1       0.774   0.185  -1.008  0.00  0.00    +0.030 A 
ATOM     26  C   UNL     1      -0.553   0.671  -0.920  0.00  0.00    +0.067 A 
ATOM     27  F   UNL     1       2.568   3.269  -1.605  0.00  0.00    -0.205 F 
ENDBRANCH   1  26
TORSDOF 3
