REMARK  Name = ZINC29972726
REMARK  4 active torsions:
REMARK  status: ('A' for Active; 'I' for Inactive)
REMARK    1  A    between atoms: C_1  and  N_2
REMARK    2  A    between atoms: N_2  and  C_3
REMARK    3  A    between atoms: C_3  and  C_4
REMARK    4  A    between atoms: C_16  and  C_18
REMARK                            x       y       z     vdW  Elec       q    Type
REMARK                         _______ _______ _______ _____ _____    ______ ____
ROOT
ATOM      1  C   UNL     1      -4.263  -1.581   1.295  0.00  0.00    +0.133 C 
ATOM      2  N   UNL     1      -3.599  -1.877   0.023  0.00  0.00    -0.292 N 
ATOM      3  C   UNL     1      -4.048  -1.317  -1.117  0.00  0.00    +0.263 C 
ATOM      4  O   UNL     1      -3.498  -1.564  -2.174  0.00  0.00    -0.268 OA
ENDROOT
BRANCH   3   5
ATOM      5  C   UNL     1      -5.202  -0.407  -1.085  0.00  0.00    +0.103 A 
ATOM      6  C   UNL     1      -5.866   0.064  -2.173  0.00  0.00    +0.040 A 
ATOM      7  C   UNL     1      -6.909   0.903  -1.713  0.00  0.00    +0.000 A 
ATOM      8  C   UNL     1      -7.900   1.650  -2.363  0.00  0.00    +0.011 A 
ATOM      9  C   UNL     1      -8.785   2.386  -1.631  0.00  0.00    +0.016 A 
ATOM     10  C   UNL     1      -8.713   2.404  -0.243  0.00  0.00    +0.020 A 
ATOM     11  C   UNL     1      -7.747   1.678   0.419  0.00  0.00    +0.041 A 
ATOM     12  C   UNL     1      -6.833   0.919  -0.307  0.00  0.00    +0.048 A 
ATOM     13  N   UNL     1      -5.782   0.111   0.058  0.00  0.00    -0.351 N 
ATOM     14  H   UNL     1      -5.380  -0.153   1.047  0.00  0.00    +0.166 HD
ATOM     15 BR   UNL     1      -9.952   3.434   0.746  0.00  0.00    -0.050 Br
ENDBRANCH   3   5
BRANCH   2  16
ATOM     16  C   UNL     1      -2.447  -2.782  -0.009  0.00  0.00    +0.182 C 
BRANCH  16  17
ATOM     17  C   UNL     1      -1.180  -1.989   0.178  0.00  0.00    +0.128 A 
ATOM     18  N   UNL     1       0.004  -2.656   0.178  0.00  0.00    -0.309 N 
ATOM     19  H   UNL     1       0.020  -3.747   0.043  0.00  0.00    +0.170 HD
ATOM     20  C   UNL     1       1.170  -1.990   0.343  0.00  0.00    +0.259 A 
ATOM     21  O   UNL     1       2.238  -2.574   0.344  0.00  0.00    -0.267 OA
ATOM     22  C   UNL     1       1.098  -0.531   0.519  0.00  0.00    +0.065 A 
ATOM     23  C   UNL     1       2.240   0.247   0.696  0.00  0.00    +0.015 A 
ATOM     24  C   UNL     1       2.114   1.610   0.858  0.00  0.00    +0.001 A 
ATOM     25  C   UNL     1       0.861   2.210   0.845  0.00  0.00    +0.002 A 
ATOM     26  C   UNL     1      -0.279   1.458   0.671  0.00  0.00    +0.028 A 
ATOM     27  C   UNL     1      -0.177   0.075   0.506  0.00  0.00    +0.078 A 
ATOM     28  N   UNL     1      -1.275  -0.703   0.332  0.00  0.00    -0.232 NA
ENDBRANCH  16  17
ENDBRANCH   2  16
TORSDOF 3
