REMARK  Name = ZINC21776604
REMARK  13 active torsions:
REMARK  status: ('A' for Active; 'I' for Inactive)
REMARK    1  A    between atoms: C_1  and  C_2
REMARK    2  A    between atoms: C_3  and  C_35
REMARK    3  A    between atoms: C_4  and  C_34
REMARK    4  A    between atoms: C_5  and  S_10
REMARK    5  A    between atoms: C_6  and  C_9
REMARK    6  A    between atoms: C_7  and  C_8
REMARK    7  A    between atoms: S_10  and  N_13
REMARK    8  A    between atoms: N_13  and  C_14
REMARK    9  A    between atoms: C_14  and  C_15
REMARK   10  A    between atoms: C_15  and  C_17
REMARK   11  A    between atoms: C_15  and  N_27
REMARK   12  A    between atoms: N_25  and  C_26
REMARK   13  A    between atoms: N_30  and  C_33
REMARK                            x       y       z     vdW  Elec       q    Type
REMARK                         _______ _______ _______ _____ _____    ______ ____
ROOT
ATOM      1  C   UNL     1      -2.089  -1.115  -0.765  0.00  0.00    +0.102 C 
ENDROOT
BRANCH   1   2
ATOM      2  C   UNL     1      -3.095  -0.754  -1.826  0.00  0.00    -0.029 A 
ATOM      3  C   UNL     1      -2.728  -0.760  -3.160  0.00  0.00    +0.007 A 
ATOM      4  C   UNL     1      -3.647  -0.432  -4.135  0.00  0.00    +0.024 A 
ATOM      5  C   UNL     1      -4.949  -0.081  -3.782  0.00  0.00    +0.033 A 
ATOM      6  C   UNL     1      -5.307  -0.077  -2.440  0.00  0.00    -0.025 A 
ATOM      7  C   UNL     1      -4.386  -0.409  -1.468  0.00  0.00    +0.010 A 
ATOM      8  C   UNL     1      -6.766   0.326  -2.347  0.00  0.00    +0.056 C 
ATOM      9  C   UNL     1      -7.267   0.137  -3.797  0.00  0.00    +0.109 C 
ATOM     10  N   UNL     1      -6.029   0.296  -4.590  0.00  0.00    -0.332 N 
ATOM     11  C   UNL     1      -6.080  -0.516  -5.814  0.00  0.00    +0.129 C 
ENDBRANCH   1   2
BRANCH   1  12
ATOM     12  N   UNL     1      -1.111  -0.028  -0.627  0.00  0.00    -0.298 NA
ATOM     13  C   UNL     1      -0.572   0.365  -1.937  0.00  0.00    +0.066 C 
ATOM     14  C   UNL     1       0.498   1.442  -1.743  0.00  0.00    -0.064 C 
ATOM     15  N   UNL     1      -0.092   2.596  -1.051  0.00  0.00    +0.379 N 
ATOM     16  C   UNL     1      -0.630   2.203   0.259  0.00  0.00    -0.064 C 
ATOM     17  C   UNL     1      -1.700   1.127   0.065  0.00  0.00    +0.066 C 
ATOM     18  C   UNL     1       0.886   3.684  -0.913  0.00  0.00    -0.096 C 
ATOM     19  H   UNL     1      -0.926   2.969  -1.663  0.00  0.00    -0.082 HD
ENDBRANCH   1  12
BRANCH   1  20
ATOM     20  C   UNL     1      -1.366  -2.404  -1.165  0.00  0.00    +0.129 C 
BRANCH  20  21
ATOM     21  N   UNL     1      -0.337  -2.715  -0.170  0.00  0.00    -0.188 NA
ATOM     22  H   UNL     1       0.097  -1.911   0.443  0.00  0.00    +0.148 HD
BRANCH  21  23
ATOM     23  S   UNL     1       0.352  -4.220  -0.135  0.00  0.00    +0.059 S 
ATOM     24  O   UNL     1       1.319  -4.200   0.907  0.00  0.00    -0.153 OA
ATOM     25  O   UNL     1      -0.716  -5.157  -0.165  0.00  0.00    -0.153 OA
BRANCH  23  30
ATOM     26  C   UNL     1       3.398  -4.908  -5.298  0.00  0.00    +0.044 C 
ATOM     27  C   UNL     1       2.638  -4.736  -4.008  0.00  0.00    -0.044 A 
ATOM     28  C   UNL     1       1.271  -4.940  -3.980  0.00  0.00    -0.043 A 
ATOM     29  C   UNL     1       0.573  -4.782  -2.797  0.00  0.00    -0.021 A 
ATOM     30  C   UNL     1       1.242  -4.421  -1.642  0.00  0.00    +0.112 A 
ATOM     31  C   UNL     1       2.608  -4.213  -1.672  0.00  0.00    -0.021 A 
ATOM     32  C   UNL     1       3.307  -4.375  -2.854  0.00  0.00    -0.043 A 
ATOM     33  C   UNL     1       4.797  -4.153  -2.885  0.00  0.00    +0.044 C 
ATOM     34  C   UNL     1       3.337  -3.813  -0.415  0.00  0.00    +0.046 C 
ATOM     35  C   UNL     1      -0.917  -5.004  -2.766  0.00  0.00    +0.046 C 
ATOM     36  C   UNL     1       0.541  -5.334  -5.238  0.00  0.00    +0.044 C 
ENDBRANCH  23  30
ENDBRANCH  21  23
ENDBRANCH  20  21
ENDBRANCH   1  20
TORSDOF 6
