REMARK  Name = ZINC20417583
REMARK  12 active torsions:
REMARK  status: ('A' for Active; 'I' for Inactive)
REMARK    1  A    between atoms: C_1  and  C_2
REMARK    2  A    between atoms: N_6  and  C_21
REMARK    3  A    between atoms: C_10  and  C_20
REMARK    4  A    between atoms: N_11  and  C_12
REMARK    5  A    between atoms: C_12  and  C_13
REMARK    6  A    between atoms: C_21  and  C_22
REMARK    7  A    between atoms: N_24  and  C_25
REMARK    8  A    between atoms: C_25  and  C_26
REMARK    9  A    between atoms: C_26  and  C_27
REMARK   10  A    between atoms: C_27  and  N_28
REMARK   11  A    between atoms: C_30  and  C_37
REMARK   12  A    between atoms: C_33  and  C_36
REMARK                            x       y       z     vdW  Elec       q    Type
REMARK                         _______ _______ _______ _____ _____    ______ ____
ROOT
ATOM      1  C   UNL     1      -6.270  -2.328   0.931  0.00  0.00    +0.064 C 
ATOM      2  C   UNL     1      -5.242  -1.938  -0.099  0.00  0.00    +0.026 A 
ATOM      3  C   UNL     1      -3.993  -1.480   0.162  0.00  0.00    +0.028 A 
ATOM      4  C   UNL     1      -3.199  -1.198   1.360  0.00  0.00    +0.143 A 
ATOM      5  N   UNL     1      -1.985  -0.754   1.239  0.00  0.00    -0.176 NA
ATOM      6  N   UNL     1      -1.372  -0.511   0.012  0.00  0.00    -0.220 N 
ATOM      7  C   UNL     1      -1.991  -0.729  -1.167  0.00  0.00    +0.277 A 
ATOM      8  O   UNL     1      -1.418  -0.507  -2.219  0.00  0.00    -0.265 OA
ATOM      9  C   UNL     1      -3.365  -1.236  -1.157  0.00  0.00    +0.070 A 
ATOM     10  C   UNL     1      -4.296  -1.571  -2.086  0.00  0.00    +0.029 A 
ATOM     11  N   UNL     1      -5.410  -1.988  -1.449  0.00  0.00    -0.342 N 
ATOM     12  C   UNL     1      -4.115  -1.490  -3.580  0.00  0.00    +0.064 C 
ENDROOT
BRANCH  11  13
ATOM     13  C   UNL     1      -6.634  -2.434  -2.120  0.00  0.00    +0.159 C 
BRANCH  13  14
ATOM     14  C   UNL     1      -6.562  -3.919  -2.362  0.00  0.00    +0.007 A 
ATOM     15  C   UNL     1      -7.220  -4.791  -1.514  0.00  0.00    +0.008 A 
ATOM     16  C   UNL     1      -7.154  -6.153  -1.736  0.00  0.00    +0.000 A 
ATOM     17  C   UNL     1      -6.432  -6.646  -2.807  0.00  0.00    +0.003 A 
ATOM     18  C   UNL     1      -5.774  -5.777  -3.656  0.00  0.00    +0.039 A 
ATOM     19  C   UNL     1      -5.843  -4.412  -3.437  0.00  0.00    +0.128 A 
ATOM     20  F   UNL     1      -5.204  -3.561  -4.270  0.00  0.00    -0.205 F 
ENDBRANCH  13  14
ENDBRANCH  11  13
BRANCH   6  21
ATOM     21  C   UNL     1       0.002  -0.004   0.002  0.00  0.00    +0.243 C 
BRANCH  21  22
ATOM     22  C   UNL     1      -0.018   1.503   0.010  0.00  0.00    +0.235 C 
ATOM     23  O   UNL     1      -1.077   2.095   0.018  0.00  0.00    -0.274 OA
ATOM     24  N   UNL     1       1.139   2.192   0.003  0.00  0.00    -0.314 N 
ATOM     25  H   UNL     1       2.099   1.655  -0.009  0.00  0.00    +0.149 HD
BRANCH  24  26
ATOM     26  C   UNL     1       1.120   3.657   0.011  0.00  0.00    +0.102 C 
BRANCH  26  27
ATOM     27  C   UNL     1       2.555   4.187   0.000  0.00  0.00    +0.000 C 
BRANCH  27  28
ATOM     28  C   UNL     1       2.534   5.717   0.009  0.00  0.00    -0.077 C 
BRANCH  28  29
ATOM     29  N   UNL     1       3.913   6.225  -0.002  0.00  0.00    +0.380 N 
ATOM     30  C   UNL     1       3.937   7.675  -0.232  0.00  0.00    -0.076 C 
ATOM     31  C   UNL     1       5.385   8.145  -0.382  0.00  0.00    -0.031 C 
ATOM     32  C   UNL     1       6.163   7.799   0.891  0.00  0.00    +0.003 C 
ATOM     33  C   UNL     1       6.082   6.289   1.135  0.00  0.00    -0.031 C 
ATOM     34  C   UNL     1       4.613   5.873   1.240  0.00  0.00    -0.076 C 
ATOM     35  C   UNL     1       6.806   5.942   2.437  0.00  0.00    +0.005 C 
ATOM     36  C   UNL     1       5.411   9.659  -0.601  0.00  0.00    +0.005 C 
ATOM     37  H   UNL     1       4.446   5.744  -0.835  0.00  0.00    -0.082 HD
ENDBRANCH  28  29
ENDBRANCH  27  28
ENDBRANCH  26  27
ENDBRANCH  24  26
ENDBRANCH  21  22
ENDBRANCH   6  21
TORSDOF 8
