REMARK  Name = ZINC35456644
REMARK  9 active torsions:
REMARK  status: ('A' for Active; 'I' for Inactive)
REMARK    1  A    between atoms: C_1  and  C_2
REMARK    2  A    between atoms: C_2  and  C_3
REMARK    3  A    between atoms: C_3  and  C_4
REMARK    4  A    between atoms: C_4  and  C_5
REMARK    5  A    between atoms: C_8  and  C_11
REMARK    6  A    between atoms: C_18  and  N_28
REMARK    7  A    between atoms: C_20  and  C_22
REMARK    8  A    between atoms: N_31  and  C_34
REMARK    9  A    between atoms: C_34  and  C_35
REMARK                            x       y       z     vdW  Elec       q    Type
REMARK                         _______ _______ _______ _____ _____    ______ ____
ROOT
ATOM      1  C   UNL     1       3.232  -3.405   6.348  0.00  0.00    +0.247 C 
ATOM      2  O   UNL     1       2.591  -2.830   5.491  0.00  0.00    -0.270 OA
ATOM      3  N   UNL     1       2.604  -3.943   7.412  0.00  0.00    -0.293 N 
ATOM      4  C   UNL     1       1.136  -3.936   7.518  0.00  0.00    +0.114 C 
ATOM      5  C   UNL     1       0.653  -5.386   7.499  0.00  0.00    +0.075 C 
ATOM      6  C   UNL     1       1.462  -6.230   8.446  0.00  0.00    +0.053 A 
ATOM      7  C   UNL     1       2.705  -5.861   8.899  0.00  0.00    +0.031 A 
ATOM      8  C   UNL     1       3.389  -6.722   9.767  0.00  0.00    +0.130 A 
ATOM      9  N   UNL     1       2.815  -7.861  10.133  0.00  0.00    -0.212 NA
ATOM     10  C   UNL     1       1.610  -8.180   9.681  0.00  0.00    +0.162 A 
ATOM     11  N   UNL     1       0.946  -7.386   8.857  0.00  0.00    -0.232 NA
ATOM     12  C   UNL     1       3.357  -4.565   8.509  0.00  0.00    +0.148 C 
ENDROOT
BRANCH   8  13
ATOM     13  N   UNL     1       4.648  -6.387  10.239  0.00  0.00    -0.318 N 
ATOM     14  C   UNL     1       4.809  -5.549  11.437  0.00  0.00    +0.088 C 
ATOM     15  C   UNL     1       5.785  -6.246  12.390  0.00  0.00    -0.060 C 
ATOM     16  N   UNL     1       7.038  -6.536  11.680  0.00  0.00    +0.382 N 
ATOM     17  C   UNL     1       6.788  -7.497  10.598  0.00  0.00    -0.060 C 
ATOM     18  C   UNL     1       5.862  -6.866   9.559  0.00  0.00    +0.088 C 
ATOM     19  H   UNL     1       7.408  -5.682  11.291  0.00  0.00    -0.082 HD
BRANCH  16  20
ATOM     20  C   UNL     1       8.012  -7.104  12.622  0.00  0.00    -0.082 C 
ATOM     21  C   UNL     1       9.356  -7.291  11.914  0.00  0.00    -0.017 C 
ENDBRANCH  16  20
ENDBRANCH   8  13
BRANCH   1  25
ATOM     22  C   UNL     1       7.453  -3.720   5.992  0.00  0.00    -0.047 A 
ATOM     23  C   UNL     1       6.887  -3.401   7.213  0.00  0.00    +0.004 A 
ATOM     24  C   UNL     1       5.517  -3.296   7.335  0.00  0.00    +0.013 A 
ATOM     25  C   UNL     1       4.702  -3.514   6.224  0.00  0.00    +0.037 A 
ATOM     26  C   UNL     1       5.279  -3.837   4.995  0.00  0.00    +0.013 A 
ATOM     27  C   UNL     1       6.651  -3.933   4.885  0.00  0.00    +0.004 A 
BRANCH  22  28
ATOM     28  C   UNL     1       8.951  -3.833   5.865  0.00  0.00    +0.035 C 
BRANCH  28  29
ATOM     29  C   UNL     1       9.535  -2.467   5.497  0.00  0.00    +0.004 C 
BRANCH  29  31
ATOM     30  C   UNL     1      11.640  -1.216   5.001  0.00  0.00    +0.004 C 
ATOM     31  C   UNL     1      11.055  -2.581   5.369  0.00  0.00    -0.003 C 
ENDBRANCH  29  31
ENDBRANCH  28  29
ENDBRANCH  22  28
ENDBRANCH   1  25
BRANCH  10  32
ATOM     32  C   UNL     1       0.991  -9.457  10.111  0.00  0.00    +0.019 A 
ATOM     33  C   UNL     1       1.671 -10.305  10.984  0.00  0.00    +0.011 A 
ATOM     34  C   UNL     1       1.089 -11.492  11.381  0.00  0.00    +0.001 A 
ATOM     35  C   UNL     1      -0.165 -11.841  10.914  0.00  0.00    +0.000 A 
ATOM     36  C   UNL     1      -0.844 -11.004  10.048  0.00  0.00    +0.001 A 
ATOM     37  C   UNL     1      -0.275  -9.812   9.649  0.00  0.00    +0.011 A 
ENDBRANCH  10  32
TORSDOF 7
