REMARK  Name = ZINC36167829
REMARK  14 active torsions:
REMARK  status: ('A' for Active; 'I' for Inactive)
REMARK    1  A    between atoms: C_1  and  C_2
REMARK    2  A    between atoms: C_2  and  C_3
REMARK    3  A    between atoms: C_2  and  C_4
REMARK    4  A    between atoms: C_4  and  N_5
REMARK    5  A    between atoms: N_5  and  C_6
REMARK    6  A    between atoms: N_5  and  C_15
REMARK    7  A    between atoms: C_6  and  C_7
REMARK    8  A    between atoms: C_12  and  O_13
REMARK    9  A    between atoms: O_13  and  C_14
REMARK   10  A    between atoms: C_15  and  C_16
REMARK   11  A    between atoms: C_19  and  C_21
REMARK   12  A    between atoms: C_21  and  C_22
REMARK   13  A    between atoms: C_21  and  C_27
REMARK   14  A    between atoms: C_21  and  O_32
REMARK                            x       y       z     vdW  Elec       q    Type
REMARK                         _______ _______ _______ _____ _____    ______ ____
ROOT
ATOM      1  C   UNL     1      -2.044  -0.079   3.675  0.00  0.00    +0.089 A 
ATOM      2  C   UNL     1      -2.841   0.994   3.527  0.00  0.00    +0.043 A 
ATOM      3  C   UNL     1      -3.403   1.265   4.796  0.00  0.00    +0.048 A 
ATOM      4  C   UNL     1      -2.916   0.341   5.643  0.00  0.00    +0.147 A 
ATOM      5  O   UNL     1      -2.098  -0.474   4.957  0.00  0.00    -0.463 OA
ENDROOT
BRANCH   1   6
ATOM      6  C   UNL     1      -1.233  -0.732   2.585  0.00  0.00    -0.003 C 
BRANCH   6   7
ATOM      7  N   UNL     1       0.048  -0.027   2.439  0.00  0.00    +0.387 N 
ATOM      8  H   UNL     1      -0.124   0.956   2.288  0.00  0.00    -0.081 HD
BRANCH   7   9
ATOM      9  C   UNL     1       0.781  -0.578   1.292  0.00  0.00    -0.075 C 
BRANCH   9  11
ATOM     10  C   UNL     1       0.012   1.252  -0.225  0.00  0.00    +0.005 C 
ATOM     11  C   UNL     1       0.023  -0.261   0.002  0.00  0.00    -0.034 C 
ATOM     12  C   UNL     1       0.713  -0.948  -1.178  0.00  0.00    +0.005 C 
ENDBRANCH   9  11
ENDBRANCH   7   9
BRANCH   7  13
ATOM     13  C   UNL     1       0.845  -0.203   3.660  0.00  0.00    -0.039 C 
BRANCH  13  14
ATOM     14  C   UNL     1       2.104   0.619   3.561  0.00  0.00    -0.022 A 
ATOM     15  C   UNL     1       3.296   0.018   3.203  0.00  0.00    +0.005 A 
ATOM     16  C   UNL     1       4.451   0.772   3.111  0.00  0.00    +0.000 A 
ATOM     17  C   UNL     1       4.418   2.128   3.378  0.00  0.00    +0.004 A 
ATOM     18  C   UNL     1       3.229   2.734   3.736  0.00  0.00    +0.046 A 
ATOM     19  C   UNL     1       2.067   1.981   3.823  0.00  0.00    +0.121 A 
BRANCH  19  20
ATOM     20  O   UNL     1       0.895   2.575   4.169  0.00  0.00    -0.495 OA
ATOM     21  C   UNL     1       0.931   3.981   4.425  0.00  0.00    +0.277 C 
ENDBRANCH  19  20
ENDBRANCH  13  14
ENDBRANCH   7  13
ENDBRANCH   6   7
ENDBRANCH   1   6
BRANCH   4  22
ATOM     22  C   UNL     1      -3.238   0.234   7.111  0.00  0.00    +0.186 C 
BRANCH  22  23
ATOM     23  C   UNL     1      -3.154  -1.208   7.541  0.00  0.00    +0.034 A 
ATOM     24  C   UNL     1      -3.844  -1.850   8.515  0.00  0.00    +0.015 A 
ATOM     25  C   UNL     1      -3.600  -3.192   8.735  0.00  0.00    +0.008 A 
ATOM     26  C   UNL     1      -2.678  -3.827   7.971  0.00  0.00    +0.045 A 
ATOM     27  S   UNL     1      -2.124  -2.515   6.894  0.00  0.00    -0.098 S 
ENDBRANCH  22  23
BRANCH  22  28
ATOM     28  C   UNL     1      -2.251   1.053   7.903  0.00  0.00    +0.034 A 
ATOM     29  C   UNL     1      -2.424   1.688   9.088  0.00  0.00    +0.015 A 
ATOM     30  C   UNL     1      -1.365   2.387   9.635  0.00  0.00    +0.008 A 
ATOM     31  C   UNL     1      -0.184   2.418   8.970  0.00  0.00    +0.045 A 
ATOM     32  S   UNL     1      -0.547   1.431   7.527  0.00  0.00    -0.098 S 
ENDBRANCH  22  28
BRANCH  22  33
ATOM     33  O   UNL     1      -4.560   0.725   7.346  0.00  0.00    -0.371 OA
ATOM     34  H   UNL     1      -5.248   0.244   6.867  0.00  0.00    +0.212 HD
ENDBRANCH  22  33
ENDBRANCH   4  22
TORSDOF 11
