REMARK  Name = ZINC40028644
REMARK  16 active torsions:
REMARK  status: ('A' for Active; 'I' for Inactive)
REMARK    1  A    between atoms: C_1  and  C_2
REMARK    2  A    between atoms: C_2  and  O_3
REMARK    3  A    between atoms: O_3  and  C_4
REMARK    4  A    between atoms: C_6  and  C_16
REMARK    5  A    between atoms: C_9  and  O_10
REMARK    6  A    between atoms: O_10  and  C_11
REMARK    7  A    between atoms: C_11  and  C_12
REMARK    8  A    between atoms: C_12  and  C_13
REMARK    9  A    between atoms: C_13  and  C_14
REMARK   10  A    between atoms: C_13  and  C_15
REMARK   11  A    between atoms: C_18  and  C_27
REMARK   12  A    between atoms: N_22  and  C_23
REMARK   13  A    between atoms: C_23  and  C_24
REMARK   14  A    between atoms: C_27  and  C_29
REMARK   15  A    between atoms: C_30  and  C_35
REMARK   16  A    between atoms: C_32  and  C_34
REMARK                            x       y       z     vdW  Elec       q    Type
REMARK                         _______ _______ _______ _____ _____    ______ ____
ROOT
ATOM      1  C   UNL     1      -0.704  -4.849   0.199  0.00  0.00    +0.145 C 
ATOM      2  C   UNL     1      -1.765  -4.138   1.007  0.00  0.00    +0.077 C 
ATOM      3  C   UNL     1      -1.402  -4.242   2.306  0.00  0.00    +0.249 C 
ATOM      4  C   UNL     1      -0.135  -4.996   2.397  0.00  0.00    +0.288 C 
ATOM      5  O   UNL     1       0.448  -5.256   3.431  0.00  0.00    -0.266 OA
ATOM      6  N   UNL     1       0.277  -5.355   1.167  0.00  0.00    -0.280 N 
ATOM      7  O   UNL     1      -2.090  -3.733   3.355  0.00  0.00    -0.282 OA
ENDROOT
BRANCH   1  10
ATOM      8  C   UNL     1       0.554  -1.641  -1.351  0.00  0.00    +0.162 A 
ATOM      9  C   UNL     1      -0.053  -2.530  -0.477  0.00  0.00    +0.055 A 
ATOM     10  C   UNL     1      -0.044  -3.884  -0.752  0.00  0.00    -0.019 A 
ATOM     11  C   UNL     1       0.569  -4.356  -1.898  0.00  0.00    +0.009 A 
ATOM     12  C   UNL     1       1.176  -3.476  -2.774  0.00  0.00    +0.050 A 
ATOM     13  C   UNL     1       1.166  -2.116  -2.507  0.00  0.00    +0.162 A 
BRANCH   8  14
ATOM     14  O   UNL     1       0.546  -0.308  -1.082  0.00  0.00    -0.489 OA
BRANCH  14  16
ATOM     15  C   UNL     1      -0.028   1.625   0.249  0.00  0.00    +0.048 C 
ATOM     16  C   UNL     1      -0.008   0.098   0.171  0.00  0.00    +0.226 C 
ENDBRANCH  14  16
ENDBRANCH   8  14
BRANCH  13  17
ATOM     17  O   UNL     1       1.757  -1.248  -3.370  0.00  0.00    -0.488 OA
BRANCH  17  18
ATOM     18  C   UNL     1       2.366  -1.806  -4.537  0.00  0.00    +0.229 C 
BRANCH  18  19
ATOM     19  C   UNL     1       2.974  -0.684  -5.381  0.00  0.00    +0.044 C 
BRANCH  19  20
ATOM     20  C   UNL     1       3.626  -1.282  -6.630  0.00  0.00    -0.014 C 
ATOM     21  C   UNL     1       2.549  -1.915  -7.513  0.00  0.00    +0.007 C 
ATOM     22  C   UNL     1       4.341  -0.177  -7.410  0.00  0.00    +0.007 C 
ENDBRANCH  19  20
ENDBRANCH  18  19
ENDBRANCH  17  18
ENDBRANCH  13  17
ENDBRANCH   1  10
BRANCH   2  23
ATOM     23  C   UNL     1      -2.959  -3.465   0.483  0.00  0.00    +0.203 C 
ATOM     24  O   UNL     1      -3.680  -2.831   1.234  0.00  0.00    -0.286 OA
BRANCH  23  25
ATOM     25  C   UNL     1      -3.285  -3.554  -0.944  0.00  0.00    +0.082 A 
ATOM     26  C   UNL     1      -4.273  -2.902  -1.673  0.00  0.00    +0.057 A 
ATOM     27  N   UNL     1      -4.329  -3.182  -2.951  0.00  0.00    -0.249 NA
ATOM     28  C   UNL     1      -3.497  -4.032  -3.509  0.00  0.00    +0.076 A 
ATOM     29  S   UNL     1      -2.519  -4.526  -2.232  0.00  0.00    -0.069 S 
ATOM     30  C   UNL     1      -3.430  -4.459  -4.953  0.00  0.00    +0.073 C 
ATOM     31  C   UNL     1      -5.225  -1.927  -1.029  0.00  0.00    +0.067 C 
ENDBRANCH  23  25
ENDBRANCH   2  23
BRANCH   6  32
ATOM     32  C   UNL     1       1.489  -6.114   0.849  0.00  0.00    +0.136 C 
BRANCH  32  33
ATOM     33  C   UNL     1       2.636  -5.162   0.631  0.00  0.00    -0.016 C 
ATOM     34  C   UNL     1       3.739  -5.297   1.325  0.00  0.00    +0.005 C 
ENDBRANCH  32  33
ENDBRANCH   6  32
TORSDOF 11
