REMARK  Name = ZINC36386419
REMARK  10 active torsions:
REMARK  status: ('A' for Active; 'I' for Inactive)
REMARK    1  A    between atoms: C_1  and  C_2
REMARK    2  A    between atoms: C_2  and  O_4
REMARK    3  A    between atoms: O_4  and  C_5
REMARK    4  A    between atoms: C_5  and  C_6
REMARK    5  A    between atoms: C_6  and  C_8
REMARK    6  A    between atoms: C_14  and  C_35
REMARK    7  A    between atoms: C_16  and  O_34
REMARK    8  A    between atoms: C_30  and  C_31
REMARK    9  A    between atoms: C_37  and  C_39
REMARK   10  A    between atoms: C_37  and  C_40
REMARK                            x       y       z     vdW  Elec       q    Type
REMARK                         _______ _______ _______ _____ _____    ______ ____
ROOT
ATOM      1  C   UNL     1      -2.742  -4.198   0.004  0.00  0.00    +0.165 C 
ATOM      2  C   UNL     1      -2.946  -4.834   1.412  0.00  0.00    +0.162 C 
ATOM      3  C   UNL     1      -4.420  -5.311   1.475  0.00  0.00    +0.039 C 
ATOM      4  C   UNL     1      -5.093  -4.475   0.373  0.00  0.00    +0.007 C 
ATOM      5  C   UNL     1      -4.033  -4.539  -0.751  0.00  0.00    +0.012 C 
ATOM      6  C   UNL     1      -4.455  -3.613  -1.863  0.00  0.00    +0.044 C 
ATOM      7  C   UNL     1      -5.851  -3.985  -2.367  0.00  0.00    +0.154 C 
ATOM      8  C   UNL     1      -6.927  -4.144  -1.298  0.00  0.00    +0.153 C 
ATOM      9  C   UNL     1      -6.411  -4.995  -0.137  0.00  0.00    +0.037 C 
ATOM     10  C   UNL     1      -7.421  -5.121   1.000  0.00  0.00    +0.048 C 
ATOM     11  C   UNL     1      -7.729  -3.719   1.539  0.00  0.00    +0.194 C 
ATOM     12  C   UNL     1      -8.371  -2.968   0.387  0.00  0.00    -0.020 C 
ATOM     13  C   UNL     1      -9.570  -2.438   0.587  0.00  0.00    +0.054 C 
ATOM     14  C   UNL     1     -10.271  -1.738  -0.500  0.00  0.00    +0.179 C 
ATOM     15  O   UNL     1     -11.300  -1.126  -0.299  0.00  0.00    -0.288 OA
ATOM     16  C   UNL     1      -9.688  -1.825  -1.848  0.00  0.00    +0.047 C 
ATOM     17  C   UNL     1      -8.484  -2.348  -2.013  0.00  0.00    -0.009 C 
ATOM     18  C   UNL     1      -7.604  -2.845  -0.902  0.00  0.00    +0.047 C 
ATOM     19  C   UNL     1      -6.574  -1.736  -0.667  0.00  0.00    +0.023 C 
ATOM     20  F   UNL     1      -8.622  -3.810   2.610  0.00  0.00    -0.241 F 
ATOM     21  F   UNL     1      -7.952  -4.931  -1.916  0.00  0.00    -0.238 F 
ATOM     22  C   UNL     1      -3.892  -5.963  -1.302  0.00  0.00    +0.015 C 
ATOM     23  O   UNL     1      -2.075  -5.975   1.429  0.00  0.00    -0.343 OA
ATOM     24  C   UNL     1      -1.020  -5.663   0.497  0.00  0.00    +0.166 C 
ATOM     25  O   UNL     1      -1.648  -4.934  -0.574  0.00  0.00    -0.332 OA
ATOM     26  C   UNL     1       0.063  -4.819   1.173  0.00  0.00    +0.074 C 
ATOM     27  C   UNL     1      -0.400  -6.958  -0.043  0.00  0.00    +0.074 C 
ENDROOT
BRANCH   1  28
ATOM     28  C   UNL     1      -2.476  -2.719   0.074  0.00  0.00    +0.205 C 
ATOM     29  O   UNL     1      -2.915  -2.069   0.993  0.00  0.00    -0.291 OA
BRANCH  28  30
ATOM     30  C   UNL     1      -1.661  -2.047  -1.001  0.00  0.00    +0.309 C 
BRANCH  30  31
ATOM     31  O   UNL     1      -1.651  -0.636  -0.780  0.00  0.00    -0.457 OA
BRANCH  31  33
ATOM     32  C   UNL     1      -0.908   1.610  -1.488  0.00  0.00    +0.136 C 
ATOM     33  C   UNL     1      -0.964   0.114  -1.657  0.00  0.00    +0.304 C 
ATOM     34  O   UNL     1      -0.390  -0.412  -2.581  0.00  0.00    -0.251 OA
ENDBRANCH  31  33
ENDBRANCH  30  31
ENDBRANCH  28  30
ENDBRANCH   1  28
BRANCH   7  35
ATOM     35  O   UNL     1      -6.240  -3.048  -3.374  0.00  0.00    -0.389 OA
ATOM     36  H   UNL     1      -5.649  -3.025  -4.139  0.00  0.00    +0.210 HD
ENDBRANCH   7  35
TORSDOF 5
