REMARK  Name = ZINC11866930
REMARK  9 active torsions:
REMARK  status: ('A' for Active; 'I' for Inactive)
REMARK    1  A    between atoms: C_1  and  C_2
REMARK    2  A    between atoms: C_3  and  C_39
REMARK    3  A    between atoms: C_11  and  O_14
REMARK    4  A    between atoms: C_12  and  C_13
REMARK    5  A    between atoms: O_14  and  C_15
REMARK    6  A    between atoms: C_15  and  C_17
REMARK    7  A    between atoms: C_15  and  C_18
REMARK    8  A    between atoms: C_23  and  O_38
REMARK    9  A    between atoms: C_30  and  C_32
REMARK                            x       y       z     vdW  Elec       q    Type
REMARK                         _______ _______ _______ _____ _____    ______ ____
ROOT
ATOM      1  C   UNL     1      -0.191   0.977  -1.055  0.00  0.00    +0.257 C 
ATOM      2  O   UNL     1      -0.205  -0.183  -1.407  0.00  0.00    -0.272 OA
ATOM      3  N   UNL     1      -1.289   1.526  -0.499  0.00  0.00    -0.291 N 
ATOM      4  C   UNL     1      -1.280   2.922  -0.041  0.00  0.00    +0.111 C 
ATOM      5  C   UNL     1      -1.731   2.970   1.417  0.00  0.00    +0.054 C 
ATOM      6  C   UNL     1      -3.089   2.277   1.554  0.00  0.00    +0.072 C 
ATOM      7  C   UNL     1      -3.544   2.342   3.014  0.00  0.00    +0.035 C 
ATOM      8  C   UNL     1      -2.506   1.650   3.900  0.00  0.00    +0.003 C 
ATOM      9  C   UNL     1      -2.365   0.187   3.476  0.00  0.00    +0.001 C 
ATOM     10  C   UNL     1      -1.918   0.119   2.014  0.00  0.00    +0.008 C 
ATOM     11  C   UNL     1      -2.959   0.811   1.132  0.00  0.00    +0.046 C 
ATOM     12  C   UNL     1      -2.518   0.738  -0.333  0.00  0.00    +0.112 C 
ENDROOT
BRANCH  12  13
ATOM     13  C   UNL     1      -2.253  -0.696  -0.710  0.00  0.00    -0.027 A 
ATOM     14  C   UNL     1      -1.272  -1.414  -0.052  0.00  0.00    +0.005 A 
ATOM     15  C   UNL     1      -1.032  -2.732  -0.394  0.00  0.00    +0.000 A 
ATOM     16  C   UNL     1      -1.766  -3.329  -1.402  0.00  0.00    +0.000 A 
ATOM     17  C   UNL     1      -2.744  -2.609  -2.063  0.00  0.00    +0.000 A 
ATOM     18  C   UNL     1      -2.988  -1.293  -1.717  0.00  0.00    +0.005 A 
ENDBRANCH  12  13
BRANCH   1  19
ATOM     19  C   UNL     1       1.052   1.808  -1.244  0.00  0.00    +0.256 C 
ATOM     20  C   UNL     1       0.768   2.932  -2.242  0.00  0.00    +0.062 C 
BRANCH  19  21
ATOM     21  O   UNL     1       2.105   0.981  -1.746  0.00  0.00    -0.480 OA
BRANCH  21  32
ATOM     22  C   UNL     1       7.627   3.956  -0.029  0.00  0.00    +0.045 C 
ATOM     23  C   UNL     1       7.338   2.637  -0.698  0.00  0.00    -0.030 A 
ATOM     24  C   UNL     1       8.347   1.806  -1.069  0.00  0.00    +0.037 A 
ATOM     25  C   UNL     1       8.051   0.577  -1.693  0.00  0.00    +0.340 A 
ATOM     26  O   UNL     1       8.965  -0.158  -2.020  0.00  0.00    -0.245 OA
ATOM     27  O   UNL     1       6.787   0.197  -1.936  0.00  0.00    -0.422 OA
ATOM     28  C   UNL     1       5.738   0.975  -1.594  0.00  0.00    +0.146 A 
ATOM     29  C   UNL     1       5.961   2.215  -0.967  0.00  0.00    +0.021 A 
ATOM     30  C   UNL     1       4.877   3.025  -0.611  0.00  0.00    +0.015 A 
ATOM     31  C   UNL     1       3.604   2.609  -0.873  0.00  0.00    +0.047 A 
ATOM     32  C   UNL     1       3.377   1.382  -1.492  0.00  0.00    +0.128 A 
ATOM     33  C   UNL     1       4.438   0.565  -1.847  0.00  0.00    +0.034 A 
ATOM     34  C   UNL     1       4.181  -0.763  -2.511  0.00  0.00    +0.051 C 
ATOM     35  C   UNL     1       9.780   2.197  -0.812  0.00  0.00    +0.051 C 
ENDBRANCH  21  32
ENDBRANCH  19  21
ENDBRANCH   1  19
BRANCH   6  36
ATOM     36  O   UNL     1      -4.051   2.930   0.723  0.00  0.00    -0.388 OA
ATOM     37  H   UNL     1      -4.184   3.864   0.935  0.00  0.00    +0.210 HD
ENDBRANCH   6  36
TORSDOF 5
