REMARK  Name = ZINC32622151
REMARK  6 active torsions:
REMARK  status: ('A' for Active; 'I' for Inactive)
REMARK    1  A    between atoms: C_6  and  C_7
REMARK    2  A    between atoms: C_9  and  C_12
REMARK    3  A    between atoms: N_14  and  C_15
REMARK    4  A    between atoms: C_15  and  C_16
REMARK    5  A    between atoms: C_16  and  C_18
REMARK    6  A    between atoms: C_16  and  N_25
REMARK                            x       y       z     vdW  Elec       q    Type
REMARK                         _______ _______ _______ _____ _____    ______ ____
ROOT
ATOM      1  C   UNL     1      -3.443   3.712   2.631  0.00  0.00    +0.266 C 
ATOM      2  O   UNL     1      -2.904   3.421   3.680  0.00  0.00    -0.268 OA
ATOM      3  N   UNL     1      -2.922   3.283   1.464  0.00  0.00    -0.311 N 
ATOM      4  H   UNL     1      -3.410   3.546   0.514  0.00  0.00    +0.149 HD
ENDROOT
BRANCH   1   7
ATOM      5  C   UNL     1      -6.403   5.747   3.238  0.00  0.00    +0.168 A 
ATOM      6  C   UNL     1      -5.344   5.064   3.769  0.00  0.00    +0.086 A 
ATOM      7  C   UNL     1      -4.673   4.541   2.634  0.00  0.00    +0.168 A 
ATOM      8  N   UNL     1      -5.360   4.931   1.588  0.00  0.00    -0.073 NA
ATOM      9  O   UNL     1      -6.318   5.598   1.904  0.00  0.00    -0.354 OA
BRANCH   5  15
ATOM     10  C   UNL     1      -7.394   6.554   5.375  0.00  0.00    +0.013 A 
ATOM     11  C   UNL     1      -8.361   7.257   6.064  0.00  0.00    +0.021 A 
ATOM     12  C   UNL     1      -9.379   7.896   5.375  0.00  0.00    +0.041 A 
ATOM     13  C   UNL     1      -9.430   7.837   3.993  0.00  0.00    +0.021 A 
ATOM     14  C   UNL     1      -8.467   7.140   3.293  0.00  0.00    +0.013 A 
ATOM     15  C   UNL     1      -7.438   6.495   3.982  0.00  0.00    +0.020 A 
ATOM     16 CL   UNL     1     -10.595   8.774   6.249  0.00  0.00    -0.084 Cl
ENDBRANCH   5  15
ENDBRANCH   1   7
BRANCH   3  17
ATOM     17  C   UNL     1      -1.707   2.465   1.461  0.00  0.00    +0.094 C 
BRANCH  17  18
ATOM     18  C   UNL     1      -1.332   2.114   0.020  0.00  0.00    -0.020 C 
BRANCH  18  19
ATOM     19  C   UNL     1      -0.017   1.377   0.008  0.00  0.00    -0.059 A 
ATOM     20  C   UNL     1       0.986   1.740   0.887  0.00  0.00    +0.003 A 
ATOM     21  C   UNL     1       2.194   1.069   0.873  0.00  0.00    +0.020 A 
ATOM     22  C   UNL     1       2.399   0.034  -0.021  0.00  0.00    +0.041 A 
ATOM     23  C   UNL     1       1.395  -0.329  -0.901  0.00  0.00    +0.020 A 
ATOM     24  C   UNL     1       0.188   0.343  -0.886  0.00  0.00    +0.003 A 
ATOM     25 CL   UNL     1       3.917  -0.809  -0.040  0.00  0.00    -0.084 Cl
ENDBRANCH  18  19
BRANCH  18  26
ATOM     26  N   UNL     1      -1.210   3.347  -0.768  0.00  0.00    +0.385 N 
ATOM     27  C   UNL     1      -0.045   4.152  -0.319  0.00  0.00    -0.078 C 
ATOM     28  C   UNL     1       0.238   5.073  -1.533  0.00  0.00    -0.020 C 
ATOM     29  C   UNL     1      -0.042   4.149  -2.740  0.00  0.00    -0.020 C 
ATOM     30  C   UNL     1      -0.963   3.042  -2.195  0.00  0.00    -0.078 C 
ATOM     31  H   UNL     1      -2.158   3.887  -0.629  0.00  0.00    -0.081 HD
ENDBRANCH  18  26
ENDBRANCH  17  18
ENDBRANCH   3  17
TORSDOF 6
