REMARK  Name = ZINC37264067
REMARK  13 active torsions:
REMARK  status: ('A' for Active; 'I' for Inactive)
REMARK    1  A    between atoms: C_1  and  C_2
REMARK    2  A    between atoms: C_2  and  C_3
REMARK    3  A    between atoms: C_3  and  C_5
REMARK    4  A    between atoms: C_3  and  N_6
REMARK    5  A    between atoms: C_7  and  C_9
REMARK    6  A    between atoms: C_9  and  N_10
REMARK    7  A    between atoms: C_13  and  C_23
REMARK    8  A    between atoms: N_15  and  C_16
REMARK    9  A    between atoms: C_21  and  C_22
REMARK   10  A    between atoms: C_23  and  C_24
REMARK   11  A    between atoms: C_23  and  C_25
REMARK   12  A    between atoms: C_23  and  C_26
REMARK   13  A    between atoms: C_27  and  C_33
REMARK                            x       y       z     vdW  Elec       q    Type
REMARK                         _______ _______ _______ _____ _____    ______ ____
ROOT
ATOM      1  N   UNL     1      11.120   1.044  -5.774  0.00  0.00    -0.246 N 
ATOM      2  C   UNL     1       9.941   0.288  -5.857  0.00  0.00    +0.136 A 
ATOM      3  C   UNL     1       9.875  -0.949  -6.399  0.00  0.00    +0.034 A 
ATOM      4  C   UNL     1       8.552  -1.385  -6.316  0.00  0.00    +0.075 A 
ATOM      5  N   UNL     1       7.846  -0.442  -5.739  0.00  0.00    -0.169 NA
ATOM      6  N   UNL     1       8.700   0.630  -5.436  0.00  0.00    -0.217 N 
ATOM      7  C   UNL     1      11.048  -1.698  -6.978  0.00  0.00    +0.115 C 
ATOM      8  S   UNL     1      11.491  -0.940  -8.582  0.00  0.00    -0.138 S 
ATOM      9  C   UNL     1      11.314   0.839  -8.218  0.00  0.00    +0.166 C 
ATOM     10  C   UNL     1      11.876   1.168  -6.870  0.00  0.00    +0.231 C 
ATOM     11  O   UNL     1      13.024   1.545  -6.772  0.00  0.00    -0.274 OA
ENDROOT
BRANCH   6  12
ATOM     12  C   UNL     1       8.336   1.830  -4.811  0.00  0.00    +0.070 A 
ATOM     13  C   UNL     1       8.661   3.046  -5.398  0.00  0.00    +0.028 A 
ATOM     14  C   UNL     1       8.301   4.228  -4.781  0.00  0.00    +0.002 A 
ATOM     15  C   UNL     1       7.618   4.201  -3.579  0.00  0.00    +0.000 A 
ATOM     16  C   UNL     1       7.292   2.992  -2.992  0.00  0.00    +0.005 A 
ATOM     17  C   UNL     1       7.644   1.807  -3.608  0.00  0.00    -0.025 A 
ATOM     18  C   UNL     1       7.284   0.490  -2.970  0.00  0.00    +0.046 C 
ENDBRANCH   6  12
BRANCH   7  19
ATOM     19  C   UNL     1      10.674  -3.144  -7.184  0.00  0.00    +0.005 A 
ATOM     20  C   UNL     1      10.140  -3.554  -8.391  0.00  0.00    +0.008 A 
ATOM     21  C   UNL     1       9.797  -4.880  -8.581  0.00  0.00    +0.000 A 
ATOM     22  C   UNL     1       9.986  -5.796  -7.563  0.00  0.00    +0.003 A 
ATOM     23  C   UNL     1      10.520  -5.388  -6.355  0.00  0.00    +0.038 A 
ATOM     24  C   UNL     1      10.869  -4.062  -6.166  0.00  0.00    +0.128 A 
ATOM     25  F   UNL     1      11.395  -3.662  -4.988  0.00  0.00    -0.205 F 
ENDBRANCH   7  19
BRANCH   4  26
ATOM     26  C   UNL     1       8.025  -2.710  -6.804  0.00  0.00    +0.007 C 
ATOM     27  C   UNL     1       8.767  -3.845  -6.096  0.00  0.00    +0.017 C 
ATOM     28  C   UNL     1       6.530  -2.809  -6.497  0.00  0.00    +0.017 C 
ATOM     29  C   UNL     1       8.245  -2.820  -8.314  0.00  0.00    +0.017 C 
ENDBRANCH   4  26
BRANCH   1  30
ATOM     30  C   UNL     1      11.511   1.686  -4.517  0.00  0.00    +0.210 C 
BRANCH  30  32
ATOM     31  N   UNL     1      13.046   1.222  -2.633  0.00  0.00    -0.311 N 
ATOM     32  C   UNL     1      12.463   0.788  -3.768  0.00  0.00    +0.231 C 
ATOM     33  O   UNL     1      12.703  -0.324  -4.188  0.00  0.00    -0.274 OA
ATOM     34  H   UNL     1      12.796   2.080  -2.257  0.00  0.00    +0.149 HD
BRANCH  31  35
ATOM     35  C   UNL     1      14.057   0.396  -1.968  0.00  0.00    +0.070 C 
ATOM     36  C   UNL     1      15.427   0.665  -2.593  0.00  0.00    +0.028 C 
BRANCH  35  38
ATOM     37  C   UNL     1      12.769   0.357   0.173  0.00  0.00    +0.005 C 
ATOM     38  C   UNL     1      14.099   0.743  -0.478  0.00  0.00    +0.018 C 
ENDBRANCH  35  38
ENDBRANCH  31  35
ENDBRANCH  30  32
ENDBRANCH   1  30
TORSDOF 7
