REMARK  Name = ZINC10022419
REMARK  10 active torsions:
REMARK  status: ('A' for Active; 'I' for Inactive)
REMARK    1  A    between atoms: C_1  and  C_2
REMARK    2  A    between atoms: C_2  and  C_3
REMARK    3  A    between atoms: C_12  and  C_13
REMARK    4  A    between atoms: C_13  and  C_15
REMARK    5  A    between atoms: C_15  and  O_16
REMARK    6  A    between atoms: O_16  and  C_17
REMARK    7  A    between atoms: C_17  and  C_19
REMARK    8  A    between atoms: C_19  and  N_26
REMARK    9  A    between atoms: C_20  and  C_21
REMARK   10  A    between atoms: C_27  and  C_31
REMARK                            x       y       z     vdW  Elec       q    Type
REMARK                         _______ _______ _______ _____ _____    ______ ____
ROOT
ATOM      1  C   UNL     1       6.745  -1.770   0.052  0.00  0.00    +0.358 C 
ATOM      2  O   UNL     1       6.200  -2.855  -0.036  0.00  0.00    -0.243 OA
ENDROOT
BRANCH   1   3
ATOM      3  C   UNL     1       8.204  -1.687   0.094  0.00  0.00    +0.157 C 
ATOM      4  C   UNL     1       8.956  -2.810  -0.074  0.00  0.00    +0.081 C 
BRANCH   4   5
ATOM      5  C   UNL     1      10.367  -2.733  -0.009  0.00  0.00    +0.130 A 
ATOM      6  C   UNL     1      11.249  -3.769  -0.241  0.00  0.00    +0.049 A 
ATOM      7  C   UNL     1      12.538  -3.241  -0.066  0.00  0.00    +0.042 A 
ATOM      8  C   UNL     1      12.396  -1.937   0.259  0.00  0.00    +0.195 A 
ATOM      9  O   UNL     1      11.090  -1.633   0.286  0.00  0.00    -0.463 OA
ENDBRANCH   4   5
BRANCH   3  10
ATOM     10  N   UNL     1       8.829  -0.451   0.307  0.00  0.00    -0.186 N 
ATOM     11  C   UNL     1       9.208   0.092   1.499  0.00  0.00    +0.187 A 
ATOM     12  N   UNL     1       9.754   1.260   1.230  0.00  0.00    -0.108 NA
ATOM     13  N   UNL     1       9.743   1.483  -0.034  0.00  0.00    -0.022 NA
ATOM     14  N   UNL     1       9.206   0.494  -0.663  0.00  0.00    -0.038 NA
BRANCH  11  15
ATOM     15  C   UNL     1       9.038  -0.515   2.837  0.00  0.00    +0.021 A 
ATOM     16  C   UNL     1       8.141  -1.567   3.021  0.00  0.00    +0.011 A 
ATOM     17  C   UNL     1       7.991  -2.132   4.271  0.00  0.00    +0.001 A 
ATOM     18  C   UNL     1       8.720  -1.650   5.343  0.00  0.00    +0.000 A 
ATOM     19  C   UNL     1       9.608  -0.604   5.169  0.00  0.00    +0.001 A 
ATOM     20  C   UNL     1       9.771  -0.033   3.923  0.00  0.00    +0.011 A 
ENDBRANCH  11  15
ENDBRANCH   3  10
ENDBRANCH   1   3
BRANCH   1  21
ATOM     21  O   UNL     1       6.002  -0.645   0.112  0.00  0.00    -0.452 OA
BRANCH  21  22
ATOM     22  C   UNL     1       4.590  -0.790  -0.053  0.00  0.00    +0.312 C 
BRANCH  22  23
ATOM     23  C   UNL     1       3.945   0.572  -0.075  0.00  0.00    +0.202 C 
ATOM     24  O   UNL     1       4.635   1.571  -0.055  0.00  0.00    -0.288 OA
BRANCH  23  34
ATOM     25  C   UNL     1      -0.602   2.500  -0.071  0.00  0.00    -0.024 A 
ATOM     26  C   UNL     1      -0.266   3.830   0.060  0.00  0.00    +0.005 A 
ATOM     27  C   UNL     1       1.062   4.218   0.147  0.00  0.00    +0.001 A 
ATOM     28  C   UNL     1       2.067   3.275   0.100  0.00  0.00    +0.011 A 
ATOM     29  C   UNL     1       1.741   1.929  -0.037  0.00  0.00    +0.011 A 
ATOM     30  C   UNL     1       0.397   1.534  -0.126  0.00  0.00    +0.050 A 
ATOM     31  N   UNL     1       0.373   0.160  -0.253  0.00  0.00    -0.360 N 
ATOM     32  H   UNL     1      -0.434  -0.372  -0.333  0.00  0.00    +0.165 HD
ATOM     33  C   UNL     1       1.623  -0.341  -0.250  0.00  0.00    +0.095 A 
ATOM     34  C   UNL     1       2.533   0.686  -0.120  0.00  0.00    +0.046 A 
BRANCH  25  36
ATOM     35  C   UNL     1      -2.555   1.703   1.232  0.00  0.00    +0.009 C 
ATOM     36  C   UNL     1      -2.050   2.093  -0.158  0.00  0.00    +0.034 C 
ENDBRANCH  25  36
ENDBRANCH  23  34
ENDBRANCH  22  23
ENDBRANCH  21  22
ENDBRANCH   1  21
TORSDOF 9
