REMARK  Name = ZINC35694101
REMARK  11 active torsions:
REMARK  status: ('A' for Active; 'I' for Inactive)
REMARK    1  A    between atoms: C_1  and  C_2
REMARK    2  A    between atoms: C_2  and  O_3
REMARK    3  A    between atoms: O_3  and  C_4
REMARK    4  A    between atoms: C_4  and  C_6
REMARK    5  A    between atoms: N_11  and  C_13
REMARK    6  A    between atoms: C_15  and  C_16
REMARK    7  A    between atoms: C_21  and  C_37
REMARK    8  A    between atoms: C_22  and  C_33
REMARK    9  A    between atoms: C_23  and  C_26
REMARK   10  A    between atoms: C_33  and  O_35
REMARK   11  A    between atoms: O_35  and  C_36
REMARK                            x       y       z     vdW  Elec       q    Type
REMARK                         _______ _______ _______ _____ _____    ______ ____
ROOT
ATOM      1  C   UNL     1      -8.084  -2.010   2.108  0.00  0.00    +0.048 C 
ATOM      2  C   UNL     1      -9.129  -2.828   2.364  0.00  0.00    +0.072 C 
ATOM      3  S   UNL     1     -10.463  -1.667   2.577  0.00  0.00    -0.060 S 
ATOM      4  C   UNL     1      -9.608  -0.244   2.328  0.00  0.00    +0.166 C 
ATOM      5  N   UNL     1      -9.989   1.016   2.341  0.00  0.00    -0.230 NA
ATOM      6  C   UNL     1      -9.191   2.049   2.124  0.00  0.00    +0.053 C 
ATOM      7  C   UNL     1      -7.849   1.852   1.859  0.00  0.00    +0.082 C 
ATOM      8  C   UNL     1      -7.337   0.430   1.828  0.00  0.00    +0.150 C 
ATOM      9  N   UNL     1      -8.325  -0.651   2.092  0.00  0.00    -0.267 N 
ATOM     10  C   UNL     1      -9.749   3.448   2.165  0.00  0.00    +0.066 C 
ENDROOT
BRANCH   8  11
ATOM     11  C   UNL     1      -6.728   0.185   0.472  0.00  0.00    -0.022 A 
ATOM     12  C   UNL     1      -7.543   0.035  -0.635  0.00  0.00    +0.007 A 
ATOM     13  C   UNL     1      -6.984  -0.189  -1.879  0.00  0.00    +0.020 A 
ATOM     14  C   UNL     1      -5.610  -0.263  -2.017  0.00  0.00    +0.041 A 
ATOM     15  C   UNL     1      -4.795  -0.112  -0.909  0.00  0.00    +0.020 A 
ATOM     16  C   UNL     1      -5.354   0.118   0.334  0.00  0.00    +0.007 A 
ATOM     17 CL   UNL     1      -4.908  -0.544  -3.580  0.00  0.00    -0.084 Cl
ENDBRANCH   8  11
BRANCH   1  20
ATOM     18  C   UNL     1      -6.554  -3.879   1.760  0.00  0.00    +0.241 C 
ATOM     19  O   UNL     1      -7.622  -4.714   1.761  0.00  0.00    -0.271 OA
ATOM     20  C   UNL     1      -6.739  -2.549   1.860  0.00  0.00    +0.091 C 
BRANCH  18  25
ATOM     21  C   UNL     1      -4.266  -6.608   1.845  0.00  0.00    +0.115 C 
ATOM     22  C   UNL     1      -2.999  -5.921   2.360  0.00  0.00    +0.018 C 
ATOM     23  C   UNL     1      -3.383  -4.681   3.171  0.00  0.00    +0.020 C 
ATOM     24  C   UNL     1      -4.134  -3.698   2.268  0.00  0.00    +0.108 C 
ATOM     25  N   UNL     1      -5.273  -4.394   1.655  0.00  0.00    -0.297 N 
ATOM     26  C   UNL     1      -5.027  -5.646   0.927  0.00  0.00    +0.122 C 
BRANCH  21  27
ATOM     27  C   UNL     1      -3.889  -7.847   1.074  0.00  0.00    +0.312 C 
ATOM     28  O   UNL     1      -2.726  -8.150   0.950  0.00  0.00    -0.250 OA
BRANCH  27  29
ATOM     29  O   UNL     1      -4.844  -8.613   0.525  0.00  0.00    -0.465 OA
BRANCH  29  31
ATOM     30  C   UNL     1      -5.635 -10.513  -0.741  0.00  0.00    +0.048 C 
ATOM     31  C   UNL     1      -4.414  -9.772  -0.192  0.00  0.00    +0.229 C 
ENDBRANCH  29  31
ENDBRANCH  27  29
ENDBRANCH  21  27
ENDBRANCH  18  25
ENDBRANCH   1  20
BRANCH   7  32
ATOM     32  C   UNL     1      -6.992   2.935   1.628  0.00  0.00    +0.339 C 
ATOM     33  O   UNL     1      -7.426   4.073   1.657  0.00  0.00    -0.245 OA
BRANCH  32  34
ATOM     34  O   UNL     1      -5.683   2.717   1.371  0.00  0.00    -0.465 OA
ATOM     35  C   UNL     1      -4.866   3.868   1.144  0.00  0.00    +0.280 C 
ENDBRANCH  32  34
ENDBRANCH   7  32
TORSDOF 8
