REMARK  Name = ZINC13691214
REMARK  7 active torsions:
REMARK  status: ('A' for Active; 'I' for Inactive)
REMARK    1  A    between atoms: C_1  and  C_2
REMARK    2  A    between atoms: C_2  and  C_3
REMARK    3  A    between atoms: C_2  and  C_4
REMARK    4  A    between atoms: C_4  and  C_5
REMARK    5  A    between atoms: C_8  and  N_10
REMARK    6  A    between atoms: N_12  and  C_28
REMARK    7  A    between atoms: C_16  and  C_17
REMARK                            x       y       z     vdW  Elec       q    Type
REMARK                         _______ _______ _______ _____ _____    ______ ____
ROOT
ATOM      1  N   UNL     1      -0.446  -5.956  -1.196  0.00  0.00    -0.198 NA
ATOM      2  C   UNL     1      -0.592  -6.969  -0.366  0.00  0.00    +0.170 C 
ATOM      3  N   UNL     1      -0.461  -8.319  -0.617  0.00  0.00    -0.249 N 
ATOM      4  C   UNL     1      -0.647  -9.196   0.354  0.00  0.00    +0.259 C 
ATOM      5  O   UNL     1      -0.535 -10.390   0.146  0.00  0.00    -0.269 OA
ATOM      6  C   UNL     1      -0.982  -8.708   1.652  0.00  0.00    +0.078 C 
ATOM      7  C   UNL     1      -1.220  -9.402   2.799  0.00  0.00    +0.030 C 
ATOM      8  S   UNL     1      -1.000  -6.943   1.373  0.00  0.00    -0.049 S 
ATOM      9  C   UNL     1      -0.116  -8.781  -1.964  0.00  0.00    +0.140 C 
ENDROOT
BRANCH   7  10
ATOM     10  C   UNL     1      -1.306 -10.862   2.766  0.00  0.00    +0.001 A 
ATOM     11  C   UNL     1      -1.887 -11.626   1.793  0.00  0.00    +0.091 A 
ATOM     12  N   UNL     1      -1.769 -12.940   2.112  0.00  0.00    -0.360 N 
ATOM     13  H   UNL     1      -2.105 -13.673   1.573  0.00  0.00    +0.165 HD
ATOM     14  C   UNL     1      -1.102 -13.087   3.311  0.00  0.00    +0.047 A 
ATOM     15  C   UNL     1      -0.777 -11.801   3.773  0.00  0.00    +0.007 A 
ATOM     16  C   UNL     1      -0.088 -11.644   4.973  0.00  0.00    +0.010 A 
ATOM     17  C   UNL     1       0.275 -12.756   5.702  0.00  0.00    +0.001 A 
ATOM     18  C   UNL     1      -0.043 -14.026   5.245  0.00  0.00    +0.002 A 
ATOM     19  C   UNL     1      -0.731 -14.196   4.063  0.00  0.00    +0.026 A 
ENDBRANCH   7  10
BRANCH   1  23
ATOM     20  C   UNL     1      -0.861  -2.084  -0.226  0.00  0.00    +0.104 A 
ATOM     21  N   UNL     1      -1.035  -3.001   0.705  0.00  0.00    -0.144 NA
ATOM     22  N   UNL     1      -0.919  -4.234   0.466  0.00  0.00    -0.121 NA
ATOM     23  C   UNL     1      -0.612  -4.683  -0.751  0.00  0.00    +0.217 A 
ATOM     24  S   UNL     1      -0.488  -3.129  -1.631  0.00  0.00    -0.031 S 
BRANCH  20  25
ATOM     25  C   UNL     1      -0.956  -0.583  -0.135  0.00  0.00    +0.068 C 
BRANCH  25  27
ATOM     26  C   UNL     1       0.350   1.523   0.188  0.00  0.00    +0.007 C 
ATOM     27  C   UNL     1       0.417  -0.005   0.217  0.00  0.00    -0.011 C 
ATOM     28  C   UNL     1       0.822  -0.471   1.617  0.00  0.00    +0.007 C 
ENDBRANCH  25  27
ENDBRANCH  20  25
ENDBRANCH   1  23
TORSDOF 4
