REMARK  Name = ZINC24165612
REMARK  9 active torsions:
REMARK  status: ('A' for Active; 'I' for Inactive)
REMARK    1  A    between atoms: C_1  and  C_2
REMARK    2  A    between atoms: C_2  and  C_4
REMARK    3  A    between atoms: C_2  and  S_17
REMARK    4  A    between atoms: N_6  and  C_7
REMARK    5  A    between atoms: S_17  and  C_18
REMARK    6  A    between atoms: C_21  and  C_30
REMARK    7  A    between atoms: N_22  and  C_23
REMARK    8  A    between atoms: C_23  and  C_24
REMARK    9  A    between atoms: C_30  and  N_31
REMARK                            x       y       z     vdW  Elec       q    Type
REMARK                         _______ _______ _______ _____ _____    ______ ____
ROOT
ATOM      1  C   UNL     1       0.002  -0.004   0.002  0.00  0.00    +0.193 A 
ATOM      2  N   UNL     1       1.262  -0.371  -0.012  0.00  0.00    -0.123 NA
ATOM      3  N   UNL     1       2.020   0.667  -0.014  0.00  0.00    -0.135 NA
ATOM      4  C   UNL     1       1.295   1.749  -0.001  0.00  0.00    +0.118 A 
ATOM      5  N   UNL     1      -0.016   1.361   0.009  0.00  0.00    -0.303 N 
ENDROOT
BRANCH   1   6
ATOM      6  S   UNL     1      -1.400  -1.071   0.009  0.00  0.00    -0.074 S 
BRANCH   6   8
ATOM      7  C   UNL     1       0.216  -2.861   1.292  0.00  0.00    +0.029 C 
ATOM      8  C   UNL     1      -0.571  -2.680  -0.007  0.00  0.00    +0.137 C 
BRANCH   8   9
ATOM      9  C   UNL     1      -1.600  -3.774  -0.127  0.00  0.00    +0.227 C 
ATOM     10  O   UNL     1      -2.757  -3.554   0.164  0.00  0.00    -0.275 OA
ATOM     11  N   UNL     1      -1.236  -4.998  -0.558  0.00  0.00    -0.309 N 
ATOM     12  H   UNL     1      -0.187  -5.198  -0.823  0.00  0.00    +0.149 HD
BRANCH  11  13
ATOM     13  C   UNL     1      -2.236  -6.061  -0.675  0.00  0.00    +0.035 C 
ATOM     14  C   UNL     1      -3.325  -5.632  -1.661  0.00  0.00    +0.029 C 
ATOM     15  C   UNL     1      -4.370  -6.743  -1.783  0.00  0.00    -0.008 C 
ATOM     16  C   UNL     1      -3.698  -8.021  -2.290  0.00  0.00    +0.007 C 
ATOM     17  C   UNL     1      -2.610  -8.450  -1.305  0.00  0.00    -0.008 C 
ATOM     18  C   UNL     1      -1.565  -7.340  -1.183  0.00  0.00    +0.029 C 
ATOM     19  C   UNL     1      -3.237  -8.713   0.066  0.00  0.00    +0.007 C 
ATOM     20  C   UNL     1      -3.909  -7.435   0.573  0.00  0.00    -0.008 C 
ATOM     21  C   UNL     1      -4.997  -7.005  -0.413  0.00  0.00    +0.007 C 
ATOM     22  C   UNL     1      -2.864  -6.324   0.695  0.00  0.00    +0.029 C 
ENDBRANCH  11  13
ENDBRANCH   8   9
ENDBRANCH   6   8
ENDBRANCH   1   6
BRANCH   5  23
ATOM     23  C   UNL     1      -1.196   2.230   0.020  0.00  0.00    +0.160 C 
BRANCH  23  24
ATOM     24  C   UNL     1      -1.593   2.520   1.444  0.00  0.00    -0.028 A 
ATOM     25  C   UNL     1      -2.489   1.693   2.095  0.00  0.00    +0.005 A 
ATOM     26  C   UNL     1      -2.850   1.957   3.403  0.00  0.00    +0.000 A 
ATOM     27  C   UNL     1      -2.322   3.054   4.058  0.00  0.00    +0.000 A 
ATOM     28  C   UNL     1      -1.430   3.885   3.405  0.00  0.00    +0.000 A 
ATOM     29  C   UNL     1      -1.065   3.618   2.099  0.00  0.00    +0.005 A 
ENDBRANCH  23  24
ENDBRANCH   5  23
BRANCH   4  30
ATOM     30  C   UNL     1       1.806   3.167   0.001  0.00  0.00    -0.001 C 
BRANCH  30  31
ATOM     31  N   UNL     1       1.986   3.621   1.387  0.00  0.00    +0.384 N 
ATOM     32  C   UNL     1       2.820   2.663   2.157  0.00  0.00    -0.078 C 
ATOM     33  C   UNL     1       3.329   3.514   3.347  0.00  0.00    -0.020 C 
ATOM     34  C   UNL     1       3.579   4.897   2.702  0.00  0.00    -0.020 C 
ATOM     35  C   UNL     1       2.707   4.911   1.433  0.00  0.00    -0.078 C 
ATOM     36  H   UNL     1       0.973   3.710   1.806  0.00  0.00    -0.081 HD
ENDBRANCH  30  31
ENDBRANCH   4  30
TORSDOF 8
