REMARK  Name = ZINC02861248
REMARK  8 active torsions:
REMARK  status: ('A' for Active; 'I' for Inactive)
REMARK    1  A    between atoms: C_1  and  C_2
REMARK    2  A    between atoms: C_5  and  N_24
REMARK    3  A    between atoms: C_7  and  N_8
REMARK    4  A    between atoms: C_9  and  C_11
REMARK    5  A    between atoms: C_11  and  N_12
REMARK    6  A    between atoms: N_12  and  C_13
REMARK    7  A    between atoms: N_12  and  S_14
REMARK    8  A    between atoms: S_14  and  C_17
REMARK                            x       y       z     vdW  Elec       q    Type
REMARK                         _______ _______ _______ _____ _____    ______ ____
ROOT
ATOM      1  N   UNL     1       1.143   1.898   0.001  0.00  0.00    -0.284 N 
ATOM      2  C   UNL     1      -0.015   1.209   0.012  0.00  0.00    +0.233 C 
ATOM      3  O   UNL     1       0.002  -0.004  -0.001  0.00  0.00    -0.274 OA
ATOM      4  H   UNL     1       1.131   2.866  -0.069  0.00  0.00    +0.155 HD
ENDROOT
BRANCH   1  11
ATOM      5  C   UNL     1       3.465   3.157  -1.058  0.00  0.00    +0.045 C 
ATOM      6  C   UNL     1       3.521   1.797  -0.412  0.00  0.00    -0.029 A 
ATOM      7  C   UNL     1       4.723   1.123  -0.321  0.00  0.00    +0.007 A 
ATOM      8  C   UNL     1       4.775  -0.125   0.271  0.00  0.00    +0.033 A 
ATOM      9  C   UNL     1       3.624  -0.704   0.774  0.00  0.00    +0.128 A 
ATOM     10  C   UNL     1       2.420  -0.033   0.691  0.00  0.00    +0.056 A 
ATOM     11  C   UNL     1       2.363   1.219   0.092  0.00  0.00    +0.039 A 
BRANCH   9  12
ATOM     12  N   UNL     1       3.684  -2.040   1.407  0.00  0.00    +0.056 N 
ATOM     13  O   UNL     1       4.747  -2.630   1.485  0.00  0.00    -0.126 OA
ATOM     14  O   UNL     1       2.671  -2.550   1.850  0.00  0.00    -0.126 OA
ENDBRANCH   9  12
ENDBRANCH   1  11
BRANCH   2  15
ATOM     15  C   UNL     1      -1.329   1.945   0.034  0.00  0.00    +0.205 C 
BRANCH  15  16
ATOM     16  N   UNL     1      -2.430   0.978   0.035  0.00  0.00    -0.171 NA
ATOM     17  C   UNL     1      -2.894   0.398   1.298  0.00  0.00    +0.132 C 
BRANCH  16  18
ATOM     18  S   UNL     1      -3.150   0.541  -1.391  0.00  0.00    +0.061 S 
ATOM     19  O   UNL     1      -4.456   0.086  -1.063  0.00  0.00    -0.153 OA
ATOM     20  O   UNL     1      -2.920   1.605  -2.304  0.00  0.00    -0.153 OA
BRANCH  18  21
ATOM     21  C   UNL     1      -2.272  -0.855  -2.011  0.00  0.00    +0.106 A 
ATOM     22  C   UNL     1      -1.192  -0.672  -2.856  0.00  0.00    +0.029 A 
ATOM     23  C   UNL     1      -0.500  -1.766  -3.339  0.00  0.00    +0.017 A 
ATOM     24  C   UNL     1      -0.894  -3.045  -2.986  0.00  0.00    +0.018 A 
ATOM     25  C   UNL     1      -1.977  -3.227  -2.145  0.00  0.00    +0.017 A 
ATOM     26  C   UNL     1      -2.666  -2.132  -1.658  0.00  0.00    +0.029 A 
ATOM     27 BR   UNL     1       0.049  -4.543  -3.652  0.00  0.00    -0.050 Br
ENDBRANCH  18  21
ENDBRANCH  16  18
ENDBRANCH  15  16
ENDBRANCH   2  15
TORSDOF 6
