REMARK  Name = ZINC13215770
REMARK  9 active torsions:
REMARK  status: ('A' for Active; 'I' for Inactive)
REMARK    1  A    between atoms: C_1  and  C_2
REMARK    2  A    between atoms: C_5  and  C_35
REMARK    3  A    between atoms: C_7  and  N_8
REMARK    4  A    between atoms: C_9  and  C_26
REMARK    5  A    between atoms: C_11  and  C_16
REMARK    6  A    between atoms: C_16  and  C_18
REMARK    7  A    between atoms: C_23  and  O_24
REMARK    8  A    between atoms: O_24  and  C_25
REMARK    9  A    between atoms: C_31  and  N_32
REMARK                            x       y       z     vdW  Elec       q    Type
REMARK                         _______ _______ _______ _____ _____    ______ ____
ROOT
ATOM      1  N   UNL     1      -0.060  -0.207   2.428  0.00  0.00    -0.253 N 
ATOM      2  C   UNL     1      -1.236   0.383   3.078  0.00  0.00    +0.152 C 
ATOM      3  C   UNL     1      -0.710   1.202   4.234  0.00  0.00    +0.077 C 
ATOM      4  C   UNL     1       0.637   1.075   4.222  0.00  0.00    +0.250 C 
ATOM      5  C   UNL     1       1.032   0.196   3.103  0.00  0.00    +0.292 C 
ATOM      6  O   UNL     1       2.175  -0.116   2.831  0.00  0.00    -0.266 OA
ATOM      7  O   UNL     1       1.487   1.657   5.099  0.00  0.00    -0.282 OA
ENDROOT
BRANCH   1  14
ATOM      8  C   UNL     1      -0.279   0.994  -0.138  0.00  0.00    +0.045 C 
ATOM      9  C   UNL     1      -0.178  -0.500   0.034  0.00  0.00    -0.029 A 
ATOM     10  C   UNL     1      -0.185  -1.323  -1.077  0.00  0.00    +0.006 A 
ATOM     11  C   UNL     1      -0.093  -2.692  -0.928  0.00  0.00    +0.015 A 
ATOM     12  C   UNL     1       0.007  -3.251   0.349  0.00  0.00    +0.065 A 
ATOM     13  C   UNL     1       0.015  -2.419   1.470  0.00  0.00    +0.039 A 
ATOM     14  C   UNL     1      -0.073  -1.045   1.309  0.00  0.00    +0.041 A 
BRANCH  12  15
ATOM     15  C   UNL     1       0.104  -4.714   0.512  0.00  0.00    +0.387 C 
ATOM     16  O   UNL     1       0.097  -5.440  -0.472  0.00  0.00    -0.241 OA
ATOM     17  O   UNL     1       0.192  -5.200   1.630  0.00  0.00    -0.241 OA
ENDBRANCH  12  15
ENDBRANCH   1  14
BRANCH   2  18
ATOM     18  C   UNL     1      -2.148  -0.704   3.585  0.00  0.00    +0.008 A 
ATOM     19  C   UNL     1      -1.632  -1.945   3.909  0.00  0.00    +0.008 A 
ATOM     20  C   UNL     1      -2.469  -2.942   4.373  0.00  0.00    +0.000 A 
ATOM     21  C   UNL     1      -3.822  -2.698   4.514  0.00  0.00    +0.002 A 
ATOM     22  C   UNL     1      -4.338  -1.458   4.191  0.00  0.00    +0.033 A 
ATOM     23  C   UNL     1      -3.501  -0.459   3.731  0.00  0.00    +0.131 A 
BRANCH  23  24
ATOM     24  N   UNL     1      -4.053   0.871   3.389  0.00  0.00    +0.057 N 
ATOM     25  O   UNL     1      -5.225   1.103   3.569  0.00  0.00    -0.126 OA
ATOM     26  O   UNL     1      -3.331   1.726   2.931  0.00  0.00    -0.126 OA
ENDBRANCH  23  24
ENDBRANCH   2  18
BRANCH   3  27
ATOM     27  C   UNL     1      -1.507   1.985   5.185  0.00  0.00    +0.199 C 
ATOM     28  O   UNL     1      -2.090   1.426   6.095  0.00  0.00    -0.287 OA
BRANCH  27  29
ATOM     29  C   UNL     1      -1.601   3.450   5.038  0.00  0.00    +0.064 A 
ATOM     30  C   UNL     1      -0.852   4.108   4.058  0.00  0.00    +0.015 A 
ATOM     31  C   UNL     1      -0.945   5.476   3.926  0.00  0.00    +0.001 A 
ATOM     32  C   UNL     1      -1.779   6.204   4.760  0.00  0.00    +0.004 A 
ATOM     33  C   UNL     1      -2.524   5.567   5.732  0.00  0.00    +0.046 A 
ATOM     34  C   UNL     1      -2.447   4.190   5.876  0.00  0.00    +0.131 A 
BRANCH  34  35
ATOM     35  O   UNL     1      -3.183   3.562   6.827  0.00  0.00    -0.494 OA
ATOM     36  C   UNL     1      -4.022   4.381   7.644  0.00  0.00    +0.277 C 
ENDBRANCH  34  35
ENDBRANCH  27  29
ENDBRANCH   3  27
TORSDOF 7
