REMARK  Name = ZINC33937185
REMARK  13 active torsions:
REMARK  status: ('A' for Active; 'I' for Inactive)
REMARK    1  A    between atoms: C_1  and  C_2
REMARK    2  A    between atoms: C_2  and  C_3
REMARK    3  A    between atoms: C_3  and  C_5
REMARK    4  A    between atoms: C_3  and  N_17
REMARK    5  A    between atoms: N_9  and  C_10
REMARK    6  A    between atoms: C_10  and  C_11
REMARK    7  A    between atoms: N_17  and  C_18
REMARK    8  A    between atoms: N_17  and  C_27
REMARK    9  A    between atoms: C_18  and  C_19
REMARK   10  A    between atoms: C_19  and  C_20
REMARK   11  A    between atoms: C_24  and  C_26
REMARK   12  A    between atoms: C_27  and  C_28
REMARK   13  A    between atoms: C_34  and  C_40
REMARK                            x       y       z     vdW  Elec       q    Type
REMARK                         _______ _______ _______ _____ _____    ______ ____
ROOT
ATOM      1  N   UNL     1      -0.014  -0.202  -2.594  0.00  0.00    +0.389 N 
ATOM      2  H   UNL     1      -0.993  -0.438  -2.530  0.00  0.00    -0.080 HD
ENDROOT
BRANCH   1   3
ATOM      3  C   UNL     1       0.657  -0.556  -1.336  0.00  0.00    +0.003 C 
BRANCH   3   4
ATOM      4  C   UNL     1       2.109  -0.159  -1.413  0.00  0.00    +0.138 A 
ATOM      5  N   UNL     1       2.923  -0.357  -2.421  0.00  0.00    -0.115 NA
ATOM      6  N   UNL     1       4.075   0.124  -2.103  0.00  0.00    -0.023 NA
ATOM      7  N   UNL     1       4.018   0.623  -0.918  0.00  0.00    -0.044 NA
ATOM      8  N   UNL     1       2.821   0.473  -0.461  0.00  0.00    -0.228 N 
BRANCH   8   9
ATOM      9  C   UNL     1       2.329   0.906   0.850  0.00  0.00    +0.178 C 
BRANCH   9  10
ATOM     10  C   UNL     1       2.536  -0.217   1.869  0.00  0.00    +0.140 C 
ATOM     11  C   UNL     1       2.106   0.253   3.281  0.00  0.00    +0.035 C 
ATOM     12  C   UNL     1       1.776  -1.107   3.956  0.00  0.00    +0.031 C 
ATOM     13  C   UNL     1       1.207  -1.927   2.779  0.00  0.00    +0.160 C 
ATOM     14  O   UNL     1       1.681  -1.330   1.565  0.00  0.00    -0.375 OA
ENDBRANCH   9  10
ENDBRANCH   8   9
ENDBRANCH   3   4
BRANCH   3  16
ATOM     15  C   UNL     1      -0.917  -2.456  -0.942  0.00  0.00    +0.002 C 
ATOM     16  C   UNL     1       0.553  -2.066  -1.110  0.00  0.00    -0.011 C 
ENDBRANCH   3  16
ENDBRANCH   1   3
BRANCH   1  17
ATOM     17  C   UNL     1       0.128   1.240  -2.836  0.00  0.00    -0.073 C 
BRANCH  17  18
ATOM     18  C   UNL     1      -0.608   2.015  -1.741  0.00  0.00    +0.016 C 
BRANCH  18  19
ATOM     19  C   UNL     1      -0.571   3.488  -2.058  0.00  0.00    -0.049 A 
ATOM     20  C   UNL     1       0.473   4.269  -1.594  0.00  0.00    +0.003 A 
ATOM     21  C   UNL     1       0.507   5.620  -1.884  0.00  0.00    +0.001 A 
ATOM     22  C   UNL     1      -0.502   6.191  -2.638  0.00  0.00    +0.003 A 
ATOM     23  C   UNL     1      -1.544   5.410  -3.102  0.00  0.00    -0.050 A 
ATOM     24  C   UNL     1      -1.576   4.058  -2.816  0.00  0.00    +0.007 A 
ATOM     25  C   UNL     1      -2.644   6.033  -3.923  0.00  0.00    +0.044 C 
ENDBRANCH  18  19
ENDBRANCH  17  18
ENDBRANCH   1  17
BRANCH   1  26
ATOM     26  C   UNL     1       0.598  -0.947  -3.702  0.00  0.00    -0.037 C 
BRANCH  26  27
ATOM     27  C   UNL     1      -0.188  -0.705  -4.965  0.00  0.00    +0.001 A 
ATOM     28  C   UNL     1       0.215   0.251  -5.839  0.00  0.00    +0.017 A 
ATOM     29  C   UNL     1      -0.570   0.462  -7.056  0.00  0.00    -0.001 A 
ATOM     30  C   UNL     1      -0.204   1.432  -7.995  0.00  0.00    +0.010 A 
ATOM     31  C   UNL     1      -0.958   1.603  -9.121  0.00  0.00    +0.001 A 
ATOM     32  C   UNL     1      -2.085   0.823  -9.342  0.00  0.00    +0.005 A 
ATOM     33  C   UNL     1      -2.464  -0.139  -8.431  0.00  0.00    -0.026 A 
ATOM     34  C   UNL     1      -1.712  -0.332  -7.277  0.00  0.00    +0.052 A 
ATOM     35  N   UNL     1      -2.068  -1.287  -6.350  0.00  0.00    -0.322 N 
ATOM     36  H   UNL     1      -2.855  -1.833  -6.504  0.00  0.00    +0.169 HD
ATOM     37  C   UNL     1      -1.337  -1.477  -5.237  0.00  0.00    +0.251 A 
ATOM     38  O   UNL     1      -1.679  -2.334  -4.441  0.00  0.00    -0.268 OA
ATOM     39  C   UNL     1      -3.690  -0.978  -8.684  0.00  0.00    +0.046 C 
ENDBRANCH  26  27
ENDBRANCH   1  26
TORSDOF 10
