REMARK  Name = ZINC26377140
REMARK  14 active torsions:
REMARK  status: ('A' for Active; 'I' for Inactive)
REMARK    1  A    between atoms: C_1  and  C_2
REMARK    2  A    between atoms: C_2  and  O_3
REMARK    3  A    between atoms: O_3  and  C_4
REMARK    4  A    between atoms: C_4  and  C_6
REMARK    5  A    between atoms: C_7  and  C_37
REMARK    6  A    between atoms: C_9  and  C_28
REMARK    7  A    between atoms: C_11  and  O_13
REMARK    8  A    between atoms: O_13  and  C_14
REMARK    9  A    between atoms: C_14  and  C_15
REMARK   10  A    between atoms: C_16  and  C_18
REMARK   11  A    between atoms: C_23  and  C_24
REMARK   12  A    between atoms: C_28  and  S_29
REMARK   13  A    between atoms: S_29  and  C_30
REMARK   14  A    between atoms: C_35  and  C_36
REMARK                            x       y       z     vdW  Elec       q    Type
REMARK                         _______ _______ _______ _____ _____    ______ ____
ROOT
ATOM      1  C   UNL     1      -2.792  -2.431   0.241  0.00  0.00    +0.069 C 
ATOM      2  C   UNL     1      -2.981  -3.743  -0.086  0.00  0.00    +0.049 C 
ATOM      3  N   UNL     1      -4.183  -4.257  -0.298  0.00  0.00    -0.255 NA
ATOM      4  C   UNL     1      -5.316  -3.596  -0.225  0.00  0.00    +0.063 C 
ATOM      5  C   UNL     1      -5.354  -2.238   0.096  0.00  0.00    +0.070 C 
ATOM      6  C   UNL     1      -6.545  -1.550   0.170  0.00  0.00    +0.338 C 
ATOM      7  O   UNL     1      -6.548  -0.239   0.482  0.00  0.00    -0.245 OA
ATOM      8  C   UNL     1      -4.025  -1.554   0.364  0.00  0.00    +0.097 C 
ATOM      9  C   UNL     1      -1.776  -4.640  -0.209  0.00  0.00    +0.066 C 
ENDROOT
BRANCH   8  10
ATOM     10  C   UNL     1      -4.058  -0.981   1.758  0.00  0.00    -0.023 A 
ATOM     11  C   UNL     1      -4.110  -1.826   2.851  0.00  0.00    +0.005 A 
ATOM     12  C   UNL     1      -4.140  -1.301   4.129  0.00  0.00    +0.000 A 
ATOM     13  C   UNL     1      -4.118   0.069   4.314  0.00  0.00    +0.001 A 
ATOM     14  C   UNL     1      -4.066   0.913   3.221  0.00  0.00    +0.012 A 
ATOM     15  C   UNL     1      -4.031   0.388   1.943  0.00  0.00    +0.059 A 
BRANCH  15  16
ATOM     16  C   UNL     1      -3.969   1.309   0.751  0.00  0.00    +0.418 C 
ATOM     17  F   UNL     1      -3.952   2.637   1.189  0.00  0.00    -0.166 F 
ATOM     18  F   UNL     1      -2.808   1.044   0.018  0.00  0.00    -0.166 F 
ATOM     19  F   UNL     1      -5.090   1.099  -0.059  0.00  0.00    -0.166 F 
ENDBRANCH  15  16
ENDBRANCH   8  10
BRANCH   1  20
ATOM     20  C   UNL     1      -1.504  -1.912   0.460  0.00  0.00    +0.338 C 
ATOM     21  O   UNL     1      -0.541  -2.658   0.472  0.00  0.00    -0.245 OA
BRANCH  20  22
ATOM     22  O   UNL     1      -1.335  -0.586   0.657  0.00  0.00    -0.462 OA
BRANCH  22  24
ATOM     23  C   UNL     1      -0.005   1.388   1.075  0.00  0.00    +0.048 C 
ATOM     24  C   UNL     1       0.002  -0.129   0.873  0.00  0.00    +0.229 C 
ENDBRANCH  22  24
ENDBRANCH  20  22
ENDBRANCH   1  20
BRANCH   6  25
ATOM     25  O   UNL     1      -7.708  -2.188  -0.069  0.00  0.00    -0.462 OA
BRANCH  25  26
ATOM     26  C   UNL     1      -8.905  -1.413   0.027  0.00  0.00    +0.229 C 
ATOM     27  C   UNL     1     -10.113  -2.301  -0.275  0.00  0.00    +0.048 C 
ENDBRANCH  25  26
ENDBRANCH   6  25
BRANCH   4  28
ATOM     28  C   UNL     1      -6.608  -4.323  -0.495  0.00  0.00    +0.130 C 
BRANCH  28  29
ATOM     29  S   UNL     1      -6.255  -6.060  -0.883  0.00  0.00    -0.119 S 
BRANCH  29  30
ATOM     30  C   UNL     1      -7.845  -6.764  -1.170  0.00  0.00    +0.011 A 
ATOM     31  C   UNL     1      -8.984  -5.974  -1.073  0.00  0.00    +0.015 A 
ATOM     32  C   UNL     1     -10.228  -6.529  -1.299  0.00  0.00    +0.001 A 
ATOM     33  C   UNL     1     -10.341  -7.870  -1.621  0.00  0.00    +0.000 A 
ATOM     34  C   UNL     1      -9.209  -8.659  -1.718  0.00  0.00    +0.004 A 
ATOM     35  C   UNL     1      -7.961  -8.109  -1.500  0.00  0.00    -0.037 A 
ATOM     36  C   UNL     1      -6.728  -8.968  -1.613  0.00  0.00    +0.045 C 
ENDBRANCH  29  30
ENDBRANCH  28  29
ENDBRANCH   4  28
TORSDOF 10
