REMARK  Name = ZINC20249317
REMARK  3 active torsions:
REMARK  status: ('A' for Active; 'I' for Inactive)
REMARK    1  A    between atoms: C_6  and  C_7
REMARK    2  A    between atoms: C_17  and  C_20
REMARK    3  A    between atoms: C_22  and  N_27
REMARK                            x       y       z     vdW  Elec       q    Type
REMARK                         _______ _______ _______ _____ _____    ______ ____
ROOT
ATOM      1  C   UNL     1      -3.387   4.723   0.089  0.00  0.00    +0.015 A 
ATOM      2  C   UNL     1      -2.486   4.810  -0.947  0.00  0.00    +0.024 A 
ATOM      3  C   UNL     1      -1.270   4.135  -0.877  0.00  0.00    +0.031 A 
ATOM      4  C   UNL     1      -0.947   3.368   0.236  0.00  0.00    -0.019 A 
ATOM      5  C   UNL     1      -1.853   3.280   1.278  0.00  0.00    +0.019 A 
ATOM      6  C   UNL     1      -3.073   3.953   1.212  0.00  0.00    +0.037 A 
ATOM      7  C   UNL     1       0.364   2.640   0.367  0.00  0.00    +0.049 C 
ATOM      8  C   UNL     1       0.174   1.156   0.161  0.00  0.00    -0.023 C 
ATOM      9  C   UNL     1       1.199   0.653  -0.483  0.00  0.00    -0.030 C 
ATOM     10  C   UNL     1       2.212   1.736  -0.799  0.00  0.00    +0.033 C 
ATOM     11  C   UNL     1       1.374   3.046  -0.724  0.00  0.00    +0.029 C 
ATOM     12  C   UNL     1       0.670   3.215  -2.073  0.00  0.00    +0.106 C 
ATOM     13  N   UNL     1      -0.374   4.236  -1.940  0.00  0.00    -0.336 N 
ATOM     14  H   UNL     1      -0.438   5.057  -2.670  0.00  0.00    +0.147 HD
ENDROOT
BRANCH  12  15
ATOM     15  C   UNL     1       0.046   1.906  -2.484  0.00  0.00    -0.007 A 
ATOM     16  C   UNL     1      -1.214   1.567  -2.027  0.00  0.00    +0.039 A 
ATOM     17  C   UNL     1      -1.786   0.367  -2.405  0.00  0.00    +0.127 A 
ATOM     18  C   UNL     1      -1.099  -0.495  -3.239  0.00  0.00    +0.034 A 
ATOM     19  C   UNL     1       0.161  -0.157  -3.696  0.00  0.00    +0.022 A 
ATOM     20  C   UNL     1       0.732   1.046  -3.323  0.00  0.00    +0.046 A 
ATOM     21 CL   UNL     1       2.311   1.475  -3.902  0.00  0.00    -0.083 Cl
BRANCH  17  22
ATOM     22  N   UNL     1      -3.135   0.004  -1.915  0.00  0.00    +0.056 N 
ATOM     23  O   UNL     1      -3.740   0.763  -1.180  0.00  0.00    -0.126 OA
ATOM     24  O   UNL     1      -3.639  -1.054  -2.247  0.00  0.00    -0.126 OA
ENDBRANCH  17  22
ENDBRANCH  12  15
BRANCH   6  25
ATOM     25  C   UNL     1      -4.032   3.851   2.328  0.00  0.00    +0.242 C 
ATOM     26  O   UNL     1      -3.760   3.181   3.305  0.00  0.00    -0.270 OA
ATOM     27  N   UNL     1      -5.212   4.501   2.264  0.00  0.00    -0.325 N 
ATOM     28  H   UNL     1      -5.927   4.426   3.097  0.00  0.00    +0.145 HD
ATOM     29  H   UNL     1      -5.458   5.107   1.380  0.00  0.00    +0.145 HD
ENDBRANCH   6  25
TORSDOF 3
