REMARK  Name = ZINC09909444
REMARK  6 active torsions:
REMARK  status: ('A' for Active; 'I' for Inactive)
REMARK    1  A    between atoms: C_1  and  C_2
REMARK    2  A    between atoms: C_2  and  C_3
REMARK    3  A    between atoms: C_6  and  S_9
REMARK    4  A    between atoms: S_9  and  C_12
REMARK    5  A    between atoms: C_20  and  N_21
REMARK    6  A    between atoms: N_24  and  C_27
REMARK                            x       y       z     vdW  Elec       q    Type
REMARK                         _______ _______ _______ _____ _____    ______ ____
ROOT
ATOM      1  C   UNL     1      -2.380   5.235   0.124  0.00  0.00    +0.131 A 
ATOM      2  C   UNL     1      -1.143   5.867   0.114  0.00  0.00    +0.112 A 
ATOM      3  C   UNL     1      -0.009   3.855  -0.051  0.00  0.00    +0.048 A 
ATOM      4  C   UNL     1       1.201   3.146  -0.140  0.00  0.00    +0.026 A 
ATOM      5  C   UNL     1       1.184   1.787  -0.221  0.00  0.00    +0.002 A 
ATOM      6  C   UNL     1      -0.018   1.083  -0.216  0.00  0.00    +0.001 A 
ATOM      7  C   UNL     1      -1.210   1.738  -0.136  0.00  0.00    +0.012 A 
ATOM      8  C   UNL     1      -1.228   3.136  -0.046  0.00  0.00    +0.021 A 
ATOM      9  C   UNL     1      -2.445   3.853   0.044  0.00  0.00    +0.066 A 
ATOM     10  N   UNL     1       0.048   5.231   0.029  0.00  0.00    -0.359 N 
ATOM     11  H   UNL     1       0.939   5.740   0.025  0.00  0.00    +0.165 HD
ENDROOT
BRANCH   9  12
ATOM     12  N   UNL     1      -3.665   3.194   0.052  0.00  0.00    -0.325 N 
ATOM     13  C   UNL     1      -3.780   2.313   1.222  0.00  0.00    +0.124 C 
ATOM     14  C   UNL     1      -5.167   1.666   1.237  0.00  0.00    +0.124 C 
ATOM     15  N   UNL     1      -5.365   0.911  -0.009  0.00  0.00    -0.325 N 
ATOM     16  C   UNL     1      -5.250   1.792  -1.179  0.00  0.00    +0.124 C 
ATOM     17  C   UNL     1      -3.863   2.439  -1.193  0.00  0.00    +0.124 C 
BRANCH  15  18
ATOM     18  C   UNL     1      -6.595   0.246  -0.001  0.00  0.00    +0.065 A 
ATOM     19  C   UNL     1      -6.944  -0.585  -1.057  0.00  0.00    +0.026 A 
ATOM     20  C   UNL     1      -8.158  -1.244  -1.045  0.00  0.00    +0.002 A 
ATOM     21  C   UNL     1      -9.031  -1.070   0.013  0.00  0.00    +0.003 A 
ATOM     22  C   UNL     1      -8.690  -0.240   1.066  0.00  0.00    +0.040 A 
ATOM     23  C   UNL     1      -7.475   0.419   1.062  0.00  0.00    +0.144 A 
ATOM     24  F   UNL     1      -7.143   1.231   2.090  0.00  0.00    -0.204 F 
ENDBRANCH  15  18
ENDBRANCH   9  12
BRANCH   1  25
ATOM     25  S   UNL     1      -3.858   6.187   0.238  0.00  0.00    +0.028 S 
ATOM     26  O   UNL     1      -4.645   5.593   1.261  0.00  0.00    -0.164 OA
ATOM     27  O   UNL     1      -3.461   7.551   0.276  0.00  0.00    -0.164 OA
BRANCH  25  31
ATOM     28  C   UNL     1      -6.125   5.608  -3.637  0.00  0.00    -0.048 A 
ATOM     29  C   UNL     1      -6.347   4.755  -2.572  0.00  0.00    +0.005 A 
ATOM     30  C   UNL     1      -5.655   4.932  -1.389  0.00  0.00    +0.027 A 
ATOM     31  C   UNL     1      -4.740   5.961  -1.270  0.00  0.00    +0.094 A 
ATOM     32  C   UNL     1      -4.521   6.817  -2.334  0.00  0.00    +0.027 A 
ATOM     33  C   UNL     1      -5.210   6.638  -3.519  0.00  0.00    +0.005 A 
BRANCH  28  35
ATOM     34  C   UNL     1      -8.178   6.220  -4.885  0.00  0.00    +0.009 C 
ATOM     35  C   UNL     1      -6.878   5.414  -4.928  0.00  0.00    +0.032 C 
ENDBRANCH  28  35
ENDBRANCH  25  31
ENDBRANCH   1  25
TORSDOF 5
