REMARK  Name = ZINC22930848
REMARK  8 active torsions:
REMARK  status: ('A' for Active; 'I' for Inactive)
REMARK    1  A    between atoms: C_1  and  C_2
REMARK    2  A    between atoms: C_2  and  C_4
REMARK    3  A    between atoms: C_2  and  N_19
REMARK    4  A    between atoms: C_6  and  C_9
REMARK    5  A    between atoms: C_13  and  C_15
REMARK    6  A    between atoms: N_22  and  C_25
REMARK    7  A    between atoms: C_25  and  C_26
REMARK    8  A    between atoms: C_29  and  C_31
REMARK                            x       y       z     vdW  Elec       q    Type
REMARK                         _______ _______ _______ _____ _____    ______ ____
ROOT
ATOM      1  N   UNL     1      -0.968   9.461  -0.982  0.00  0.00    +0.389 N 
ATOM      2  C   UNL     1       0.450   9.732  -0.706  0.00  0.00    -0.062 C 
ATOM      3  C   UNL     1       1.041  10.560  -1.849  0.00  0.00    +0.066 C 
ATOM      4  N   UNL     1       0.285  11.814  -1.983  0.00  0.00    -0.300 NA
ATOM      5  C   UNL     1      -1.133  11.544  -2.259  0.00  0.00    +0.066 C 
ATOM      6  C   UNL     1      -1.723  10.715  -1.116  0.00  0.00    -0.062 C 
ATOM      7  H   UNL     1      -1.030   8.923  -1.939  0.00  0.00    -0.081 HD
ENDROOT
BRANCH   1   9
ATOM      8  C   UNL     1      -0.813   7.263   0.086  0.00  0.00    -0.003 C 
ATOM      9  C   UNL     1      -1.552   8.603   0.057  0.00  0.00    +0.019 C 
BRANCH   9  10
ATOM     10  C   UNL     1      -3.009   8.366  -0.248  0.00  0.00    +0.214 A 
ATOM     11  N   UNL     1      -4.005   8.455   0.597  0.00  0.00    -0.193 NA
ATOM     12  C   UNL     1      -5.114   8.157  -0.116  0.00  0.00    +0.202 A 
ATOM     13  N   UNL     1      -4.731   7.915  -1.342  0.00  0.00    -0.056 NA
ATOM     14  O   UNL     1      -3.527   8.030  -1.434  0.00  0.00    -0.339 OA
BRANCH  12  15
ATOM     15  C   UNL     1      -6.507   8.119   0.396  0.00  0.00    +0.023 A 
ATOM     16  C   UNL     1      -6.768   8.402   1.735  0.00  0.00    +0.012 A 
ATOM     17  C   UNL     1      -8.065   8.371   2.204  0.00  0.00    +0.001 A 
ATOM     18  C   UNL     1      -9.105   8.048   1.351  0.00  0.00    +0.012 A 
ATOM     19  C   UNL     1      -8.851   7.765   0.021  0.00  0.00    +0.055 A 
ATOM     20  C   UNL     1      -7.558   7.799  -0.460  0.00  0.00    +0.024 A 
BRANCH  19  21
ATOM     21  C   UNL     1      -9.989   7.420  -0.904  0.00  0.00    +0.417 C 
ATOM     22  F   UNL     1     -11.194   7.450  -0.194  0.00  0.00    -0.166 F 
ATOM     23  F   UNL     1     -10.040   8.350  -1.948  0.00  0.00    -0.166 F 
ATOM     24  F   UNL     1      -9.791   6.139  -1.430  0.00  0.00    -0.166 F 
ENDBRANCH  19  21
ENDBRANCH  12  15
ENDBRANCH   9  10
ENDBRANCH   1   9
BRANCH   4  25
ATOM     25  C   UNL     1       0.870  12.672  -3.022  0.00  0.00    +0.140 C 
BRANCH  25  26
ATOM     26  C   UNL     1       2.239  13.128  -2.586  0.00  0.00    +0.063 A 
ATOM     27  C   UNL     1       3.343  12.444  -2.987  0.00  0.00    +0.072 A 
ATOM     28  S   UNL     1       4.630  13.403  -2.198  0.00  0.00    -0.072 S 
ATOM     29  C   UNL     1       3.561  14.607  -1.421  0.00  0.00    +0.144 A 
ATOM     30  N   UNL     1       2.366  14.188  -1.823  0.00  0.00    -0.240 NA
BRANCH  29  31
ATOM     31  C   UNL     1       3.911  15.756  -0.572  0.00  0.00    +0.160 A 
ATOM     32  C   UNL     1       5.170  16.123  -0.202  0.00  0.00    +0.052 A 
ATOM     33  C   UNL     1       5.036  17.271   0.603  0.00  0.00    +0.042 A 
ATOM     34  C   UNL     1       3.718  17.541   0.692  0.00  0.00    +0.196 A 
ATOM     35  O   UNL     1       3.042  16.625  -0.019  0.00  0.00    -0.461 OA
ENDBRANCH  29  31
ENDBRANCH  25  26
ENDBRANCH   4  25
TORSDOF 7
