REMARK  Name = ZINC29882431
REMARK  11 active torsions:
REMARK  status: ('A' for Active; 'I' for Inactive)
REMARK    1  A    between atoms: C_1  and  C_2
REMARK    2  A    between atoms: C_5  and  C_8
REMARK    3  A    between atoms: C_8  and  C_10
REMARK    4  A    between atoms: C_8  and  N_16
REMARK    5  A    between atoms: C_17  and  C_19
REMARK    6  A    between atoms: C_19  and  C_20
REMARK    7  A    between atoms: C_20  and  N_21
REMARK    8  A    between atoms: N_21  and  C_22
REMARK    9  A    between atoms: C_25  and  S_31
REMARK   10  A    between atoms: C_27  and  N_28
REMARK   11  A    between atoms: S_31  and  N_34
REMARK                            x       y       z     vdW  Elec       q    Type
REMARK                         _______ _______ _______ _____ _____    ______ ____
ROOT
ATOM      1  C   UNL     1      -3.160  -6.187   1.663  0.00  0.00    +0.114 C 
ENDROOT
BRANCH   1   3
ATOM      2  N   UNL     1      -2.152  -4.255   0.492  0.00  0.00    -0.304 N 
ATOM      3  C   UNL     1      -2.473  -5.564   0.475  0.00  0.00    +0.215 C 
ATOM      4  O   UNL     1      -2.210  -6.241  -0.497  0.00  0.00    -0.276 OA
ATOM      5  H   UNL     1      -2.362  -3.714   1.269  0.00  0.00    +0.150 HD
BRANCH   2   6
ATOM      6  C   UNL     1      -1.484  -3.650  -0.663  0.00  0.00    +0.134 C 
BRANCH   6  11
ATOM      7  C   UNL     1      -2.599   2.019  -0.777  0.00  0.00    +0.044 C 
ATOM      8  C   UNL     1      -2.308   0.541  -0.747  0.00  0.00    -0.050 A 
ATOM      9  C   UNL     1      -2.293  -0.184  -1.924  0.00  0.00    +0.004 A 
ATOM     10  C   UNL     1      -2.026  -1.540  -1.897  0.00  0.00    +0.006 A 
ATOM     11  C   UNL     1      -1.774  -2.171  -0.693  0.00  0.00    -0.023 A 
ATOM     12  C   UNL     1      -1.788  -1.446   0.484  0.00  0.00    +0.006 A 
ATOM     13  C   UNL     1      -2.051  -0.089   0.456  0.00  0.00    +0.004 A 
ENDBRANCH   6  11
BRANCH   6  14
ATOM     14  C   UNL     1       0.003  -3.868  -0.556  0.00  0.00    -0.023 A 
ATOM     15  C   UNL     1       0.630  -3.761   0.672  0.00  0.00    +0.006 A 
ATOM     16  C   UNL     1       1.994  -3.961   0.770  0.00  0.00    +0.000 A 
ATOM     17  C   UNL     1       2.731  -4.269  -0.358  0.00  0.00    +0.000 A 
ATOM     18  C   UNL     1       2.104  -4.377  -1.585  0.00  0.00    +0.000 A 
ATOM     19  C   UNL     1       0.739  -4.181  -1.683  0.00  0.00    +0.006 A 
ENDBRANCH   6  14
ENDBRANCH   2   6
ENDBRANCH   1   3
BRANCH   1  20
ATOM     20  C   UNL     1      -3.410  -7.671   1.388  0.00  0.00    +0.111 C 
BRANCH  20  21
ATOM     21  N   UNL     1      -4.077  -8.276   2.543  0.00  0.00    -0.342 N 
ATOM     22  H   UNL     1      -4.288  -7.735   3.320  0.00  0.00    +0.146 HD
BRANCH  21  23
ATOM     23  C   UNL     1      -4.410  -9.632   2.525  0.00  0.00    +0.058 A 
ATOM     24  C   UNL     1      -4.221 -10.381   1.370  0.00  0.00    +0.027 A 
ATOM     25  C   UNL     1      -4.551 -11.722   1.357  0.00  0.00    +0.030 A 
ATOM     26  C   UNL     1      -5.069 -12.320   2.491  0.00  0.00    +0.107 A 
ATOM     27  C   UNL     1      -5.259 -11.578   3.642  0.00  0.00    +0.063 A 
ATOM     28  C   UNL     1      -4.926 -10.237   3.664  0.00  0.00    +0.149 A 
BRANCH  28  29
ATOM     29  N   UNL     1      -5.124  -9.445   4.899  0.00  0.00    +0.058 N 
ATOM     30  O   UNL     1      -4.320  -8.596   5.208  0.00  0.00    -0.126 OA
ATOM     31  O   UNL     1      -6.089  -9.647   5.598  0.00  0.00    -0.126 OA
ENDBRANCH  28  29
BRANCH  26  32
ATOM     32  S   UNL     1      -5.489 -14.031   2.469  0.00  0.00    +0.056 S 
ATOM     33  O   UNL     1      -6.463 -14.223   3.486  0.00  0.00    -0.153 OA
ATOM     34  O   UNL     1      -5.727 -14.373   1.111  0.00  0.00    -0.153 OA
BRANCH  32  35
ATOM     35  N   UNL     1      -4.141 -14.871   2.939  0.00  0.00    -0.204 NA
ATOM     36  H   UNL     1      -3.326 -14.395   3.162  0.00  0.00    +0.144 HD
ATOM     37  H   UNL     1      -4.168 -15.839   2.992  0.00  0.00    +0.144 HD
ENDBRANCH  32  35
ENDBRANCH  26  32
ENDBRANCH  21  23
ENDBRANCH  20  21
ENDBRANCH   1  20
TORSDOF 10
