REMARK  Name = ZINC09868030
REMARK  9 active torsions:
REMARK  status: ('A' for Active; 'I' for Inactive)
REMARK    1  A    between atoms: C_1  and  N_64
REMARK    2  A    between atoms: C_2  and  N_64
REMARK    3  A    between atoms: C_3  and  C_5
REMARK    4  A    between atoms: C_3  and  C_29
REMARK    5  A    between atoms: C_3  and  N_64
REMARK    6  A    between atoms: C_5  and  N_6
REMARK    7  A    between atoms: C_7  and  C_9
REMARK    8  A    between atoms: N_12  and  S_15
REMARK    9  A    between atoms: S_15  and  C_18
REMARK                            x       y       z     vdW  Elec       q    Type
REMARK                         _______ _______ _______ _____ _____    ______ ____
ROOT
ATOM      1  C   UNL     1       3.394  -6.107  -2.231  0.00  0.00    +0.077 C 
ATOM      2  C   UNL     1       4.767  -6.241  -1.569  0.00  0.00    +0.030 C 
ATOM      3  C   UNL     1       5.088  -7.725  -1.363  0.00  0.00    +0.110 C 
ATOM      4  N   UNL     1       4.970  -8.418  -2.653  0.00  0.00    -0.177 NA
ATOM      5  C   UNL     1       3.722  -8.281  -3.417  0.00  0.00    +0.110 C 
ATOM      6  C   UNL     1       3.417  -6.791  -3.600  0.00  0.00    +0.030 C 
ENDROOT
BRANCH   1   8
ATOM      7  N   UNL     1       2.984  -3.841  -1.327  0.00  0.00    -0.316 N 
ATOM      8  C   UNL     1       3.061  -4.648  -2.404  0.00  0.00    +0.216 C 
ATOM      9  O   UNL     1       2.861  -4.199  -3.513  0.00  0.00    -0.276 OA
ATOM     10  H   UNL     1       3.144  -4.200  -0.440  0.00  0.00    +0.149 HD
BRANCH   7  11
ATOM     11  C   UNL     1       2.660  -2.423  -1.495  0.00  0.00    +0.094 C 
BRANCH  11  12
ATOM     12  C   UNL     1       2.725  -1.720  -0.137  0.00  0.00    -0.014 C 
BRANCH  12  13
ATOM     13  C   UNL     1       2.308  -0.281  -0.296  0.00  0.00    -0.022 A 
ATOM     14  C   UNL     1       3.061   0.842  -0.193  0.00  0.00    +0.009 A 
ATOM     15  C   UNL     1       2.459   2.072  -0.381  0.00  0.00    +0.008 A 
ATOM     16  C   UNL     1       1.134   2.119  -0.663  0.00  0.00    +0.045 A 
ATOM     17  S   UNL     1       0.696   0.389  -0.669  0.00  0.00    -0.103 S 
ENDBRANCH  12  13
BRANCH  12  20
ATOM     18  C   UNL     1       1.795  -1.695   2.099  0.00  0.00    -0.096 C 
ATOM     19  C   UNL     1       0.466  -2.505   0.244  0.00  0.00    -0.096 C 
ATOM     20  N   UNL     1       1.829  -2.417   0.809  0.00  0.00    +0.382 N 
ATOM     21  H   UNL     1       2.186  -3.367   0.968  0.00  0.00    -0.082 HD
ENDBRANCH  12  20
ENDBRANCH  11  12
ENDBRANCH   7  11
ENDBRANCH   1   8
BRANCH   4  22
ATOM     22  S   UNL     1       6.219  -9.335  -3.236  0.00  0.00    +0.061 S 
ATOM     23  O   UNL     1       6.993  -9.729  -2.111  0.00  0.00    -0.153 OA
ATOM     24  O   UNL     1       5.648 -10.276  -4.134  0.00  0.00    -0.153 OA
BRANCH  22  25
ATOM     25  C   UNL     1       7.240  -8.272  -4.201  0.00  0.00    +0.109 A 
ATOM     26  C   UNL     1       6.995  -8.124  -5.554  0.00  0.00    +0.032 A 
ATOM     27  C   UNL     1       7.789  -7.287  -6.317  0.00  0.00    +0.051 A 
ATOM     28  C   UNL     1       8.838  -6.605  -5.723  0.00  0.00    +0.162 A 
ATOM     29  C   UNL     1       9.087  -6.758  -4.367  0.00  0.00    +0.164 A 
ATOM     30  C   UNL     1       8.287  -7.592  -3.605  0.00  0.00    +0.078 A 
ATOM     31  O   UNL     1      10.122  -6.081  -3.791  0.00  0.00    -0.488 OA
ATOM     32  C   UNL     1      11.433  -6.491  -4.185  0.00  0.00    +0.232 C 
ATOM     33  C   UNL     1      11.848  -5.804  -5.476  0.00  0.00    +0.082 C 
ATOM     34  C   UNL     1      10.980  -6.213  -6.655  0.00  0.00    +0.232 C 
ATOM     35  O   UNL     1       9.631  -5.780  -6.466  0.00  0.00    -0.488 OA
ENDBRANCH  22  25
ENDBRANCH   4  22
TORSDOF 7
