REMARK  Name = ZINC35065883
REMARK  16 active torsions:
REMARK  status: ('A' for Active; 'I' for Inactive)
REMARK    1  A    between atoms: C_1  and  C_2
REMARK    2  A    between atoms: C_2  and  C_3
REMARK    3  A    between atoms: C_3  and  C_4
REMARK    4  A    between atoms: C_4  and  C_5
REMARK    5  A    between atoms: C_5  and  C_6
REMARK    6  A    between atoms: C_9  and  C_12
REMARK    7  A    between atoms: N_14  and  C_15
REMARK    8  A    between atoms: N_14  and  C_20
REMARK    9  A    between atoms: C_15  and  C_16
REMARK   10  A    between atoms: C_16  and  N_17
REMARK   11  A    between atoms: N_17  and  C_18
REMARK   12  A    between atoms: N_17  and  C_19
REMARK   13  A    between atoms: C_20  and  C_22
REMARK   14  A    between atoms: C_20  and  C_23
REMARK   15  A    between atoms: N_33  and  C_34
REMARK   16  A    between atoms: C_38  and  C_40
REMARK                            x       y       z     vdW  Elec       q    Type
REMARK                         _______ _______ _______ _____ _____    ______ ____
ROOT
ATOM      1  C   UNL     1       1.259  -8.230  -2.544  0.00  0.00    +0.247 C 
ATOM      2  O   UNL     1       1.268  -7.014  -2.530  0.00  0.00    -0.270 OA
ATOM      3  N   UNL     1       0.254  -8.889  -3.153  0.00  0.00    -0.290 N 
ENDROOT
BRANCH   1   7
ATOM      4  C   UNL     1       4.394 -10.398  -0.670  0.00  0.00    -0.047 A 
ATOM      5  C   UNL     1       4.676  -9.222  -1.343  0.00  0.00    +0.004 A 
ATOM      6  C   UNL     1       3.662  -8.513  -1.953  0.00  0.00    +0.013 A 
ATOM      7  C   UNL     1       2.350  -8.985  -1.892  0.00  0.00    +0.037 A 
ATOM      8  C   UNL     1       2.073 -10.172  -1.212  0.00  0.00    +0.013 A 
ATOM      9  C   UNL     1       3.096 -10.874  -0.611  0.00  0.00    +0.004 A 
BRANCH   4  10
ATOM     10  C   UNL     1       5.507 -11.167  -0.006  0.00  0.00    +0.035 C 
BRANCH  10  11
ATOM     11  C   UNL     1       6.099 -12.169  -0.999  0.00  0.00    +0.005 C 
BRANCH  11  12
ATOM     12  C   UNL     1       7.228 -12.950  -0.324  0.00  0.00    +0.000 C 
BRANCH  12  14
ATOM     13  C   UNL     1       8.950 -14.732  -0.643  0.00  0.00    +0.004 C 
ATOM     14  C   UNL     1       7.820 -13.951  -1.318  0.00  0.00    -0.003 C 
ENDBRANCH  12  14
ENDBRANCH  11  12
ENDBRANCH  10  11
ENDBRANCH   4  10
ENDBRANCH   1   7
BRANCH   3  15
ATOM     15  C   UNL     1       0.254 -10.354  -3.188  0.00  0.00    +0.140 C 
ATOM     16  C   UNL     1      -1.079 -10.877  -2.650  0.00  0.00    +0.036 C 
BRANCH  15  17
ATOM     17  C   UNL     1       0.440 -10.822  -4.608  0.00  0.00    +0.138 A 
ATOM     18  N   UNL     1       0.653  -9.931  -5.528  0.00  0.00    -0.231 NA
ATOM     19  C   UNL     1       0.830 -10.279  -6.827  0.00  0.00    +0.078 A 
ATOM     20  C   UNL     1       1.060  -9.321  -7.817  0.00  0.00    +0.028 A 
ATOM     21  C   UNL     1       1.235  -9.718  -9.124  0.00  0.00    +0.002 A 
ATOM     22  C   UNL     1       1.185 -11.062  -9.471  0.00  0.00    +0.001 A 
ATOM     23  C   UNL     1       0.959 -12.026  -8.513  0.00  0.00    +0.015 A 
ATOM     24  C   UNL     1       0.781 -11.645  -7.185  0.00  0.00    +0.065 A 
ATOM     25  C   UNL     1       0.538 -12.629  -6.120  0.00  0.00    +0.266 A 
ATOM     26  O   UNL     1       0.483 -13.821  -6.361  0.00  0.00    -0.267 OA
ATOM     27  N   UNL     1       0.382 -12.158  -4.860  0.00  0.00    -0.263 N 
BRANCH  27  28
ATOM     28  C   UNL     1       0.154 -13.054  -3.808  0.00  0.00    +0.051 A 
ATOM     29  C   UNL     1       1.069 -13.154  -2.768  0.00  0.00    +0.026 A 
ATOM     30  C   UNL     1       0.841 -14.038  -1.732  0.00  0.00    +0.002 A 
ATOM     31  C   UNL     1      -0.298 -14.823  -1.729  0.00  0.00    +0.003 A 
ATOM     32  C   UNL     1      -1.211 -14.725  -2.763  0.00  0.00    -0.048 A 
ATOM     33  C   UNL     1      -0.991 -13.839  -3.799  0.00  0.00    +0.029 A 
ATOM     34  C   UNL     1      -2.451 -15.583  -2.756  0.00  0.00    +0.044 C 
ENDBRANCH  27  28
ENDBRANCH  15  17
ENDBRANCH   3  15
BRANCH   3  35
ATOM     35  C   UNL     1      -0.839  -8.142  -3.781  0.00  0.00    +0.090 C 
BRANCH  35  36
ATOM     36  C   UNL     1      -1.889  -7.790  -2.725  0.00  0.00    -0.060 C 
BRANCH  36  37
ATOM     37  N   UNL     1      -3.042  -7.152  -3.375  0.00  0.00    +0.377 N 
ATOM     38  C   UNL     1      -4.099  -6.924  -2.381  0.00  0.00    -0.097 C 
ATOM     39  C   UNL     1      -2.628  -5.868  -3.955  0.00  0.00    -0.097 C 
ATOM     40  H   UNL     1      -3.391  -7.754  -4.106  0.00  0.00    -0.083 HD
ENDBRANCH  36  37
ENDBRANCH  35  36
ENDBRANCH   3  35
TORSDOF 11
