REMARK  Name = ZINC09291993
REMARK  5 active torsions:
REMARK  status: ('A' for Active; 'I' for Inactive)
REMARK    1  A    between atoms: C_1  and  O_2
REMARK    2  A    between atoms: O_2  and  C_3
REMARK    3  A    between atoms: C_3  and  C_5
REMARK    4  A    between atoms: C_8  and  C_11
REMARK    5  A    between atoms: C_29  and  C_31
REMARK                            x       y       z     vdW  Elec       q    Type
REMARK                         _______ _______ _______ _____ _____    ______ ____
ROOT
ATOM      1  C   UNL     1       0.851  -6.357   1.260  0.00  0.00    +0.234 C 
ATOM      2  C   UNL     1       2.196  -6.819   0.780  0.00  0.00    +0.028 C 
ATOM      3  C   UNL     1       3.220  -6.970   1.646  0.00  0.00    +0.083 C 
ATOM      4  C   UNL     1       2.958  -6.673   3.076  0.00  0.00    +0.044 A 
ATOM      5  C   UNL     1       3.994  -6.482   3.980  0.00  0.00    +0.033 A 
ATOM      6  C   UNL     1       3.703  -6.205   5.303  0.00  0.00    +0.042 A 
ATOM      7  C   UNL     1       2.387  -6.120   5.724  0.00  0.00    +0.023 A 
ATOM      8  C   UNL     1       1.350  -6.309   4.829  0.00  0.00    +0.048 A 
ATOM      9  C   UNL     1       1.626  -6.588   3.503  0.00  0.00    +0.131 A 
ATOM     10  O   UNL     1       0.632  -6.786   2.606  0.00  0.00    -0.479 OA
ATOM     11 CL   UNL     1       4.993  -5.966   6.441  0.00  0.00    -0.084 Cl
ATOM     12  N   UNL     1       4.442  -7.380   1.225  0.00  0.00    -0.216 NA
ATOM     13  C   UNL     1       4.735  -7.668  -0.023  0.00  0.00    +0.209 C 
ATOM     14  N   UNL     1       5.895  -8.093  -0.617  0.00  0.00    -0.275 N 
ATOM     15  C   UNL     1       5.655  -8.252  -1.960  0.00  0.00    +0.208 C 
ATOM     16  N   UNL     1       4.423  -7.948  -2.214  0.00  0.00    -0.169 NA
ATOM     17  N   UNL     1       3.807  -7.572  -1.019  0.00  0.00    -0.182 N 
ATOM     18  C   UNL     1       2.447  -7.130  -0.678  0.00  0.00    +0.163 C 
ATOM     19  H   UNL     1       6.739  -8.254  -0.167  0.00  0.00    +0.156 HD
ENDROOT
BRANCH   1  23
ATOM     20  C   UNL     1       0.680  -2.088   1.091  0.00  0.00    +0.059 A 
ATOM     21  C   UNL     1       0.101  -2.854   0.077  0.00  0.00    +0.015 A 
ATOM     22  C   UNL     1       0.160  -4.231   0.138  0.00  0.00    +0.008 A 
ATOM     23  C   UNL     1       0.791  -4.853   1.200  0.00  0.00    -0.003 A 
ATOM     24  C   UNL     1       1.366  -4.100   2.209  0.00  0.00    +0.008 A 
ATOM     25  C   UNL     1       1.320  -2.722   2.157  0.00  0.00    +0.015 A 
BRANCH  20  26
ATOM     26  C   UNL     1       0.620  -0.613   1.032  0.00  0.00    +0.339 C 
ATOM     27  O   UNL     1       1.129   0.051   1.913  0.00  0.00    -0.245 OA
BRANCH  26  29
ATOM     28  C   UNL     1      -0.017   1.425   0.010  0.00  0.00    +0.280 C 
ATOM     29  O   UNL     1       0.002  -0.004   0.002  0.00  0.00    -0.464 OA
ENDBRANCH  26  29
ENDBRANCH  20  26
ENDBRANCH   1  23
BRANCH  18  30
ATOM     30  C   UNL     1       2.140  -5.893  -1.482  0.00  0.00    -0.021 A 
ATOM     31  C   UNL     1       3.070  -4.873  -1.563  0.00  0.00    +0.006 A 
ATOM     32  C   UNL     1       2.789  -3.738  -2.300  0.00  0.00    +0.000 A 
ATOM     33  C   UNL     1       1.578  -3.623  -2.957  0.00  0.00    +0.000 A 
ATOM     34  C   UNL     1       0.648  -4.643  -2.876  0.00  0.00    +0.000 A 
ATOM     35  C   UNL     1       0.931  -5.780  -2.143  0.00  0.00    +0.006 A 
ENDBRANCH  18  30
TORSDOF 4
