REMARK  Name = ZINC35987521
REMARK  8 active torsions:
REMARK  status: ('A' for Active; 'I' for Inactive)
REMARK    1  A    between atoms: C_1  and  C_2
REMARK    2  A    between atoms: C_5  and  C_8
REMARK    3  A    between atoms: C_11  and  C_30
REMARK    4  A    between atoms: C_21  and  C_23
REMARK    5  A    between atoms: C_28  and  C_29
REMARK    6  A    between atoms: N_32  and  C_33
REMARK    7  A    between atoms: C_33  and  C_35
REMARK    8  A    between atoms: C_33  and  C_36
REMARK                            x       y       z     vdW  Elec       q    Type
REMARK                         _______ _______ _______ _____ _____    ______ ____
ROOT
ATOM      1  C   UNL     1       0.738  -3.427  -0.121  0.00  0.00    +0.249 C 
ATOM      2  O   UNL     1       0.946  -3.885  -1.228  0.00  0.00    -0.270 OA
ATOM      3  N   UNL     1       0.472  -4.252   0.911  0.00  0.00    -0.255 N 
ATOM      4  C   UNL     1       0.123  -3.862   2.295  0.00  0.00    +0.190 C 
ATOM      5  C   UNL     1      -0.585  -5.128   2.839  0.00  0.00    +0.194 C 
ATOM      6  O   UNL     1       0.163  -6.195   2.210  0.00  0.00    -0.353 OA
ATOM      7  C   UNL     1       0.464  -5.723   0.888  0.00  0.00    +0.142 C 
ATOM      8  C   UNL     1       1.840  -6.239   0.465  0.00  0.00    +0.074 C 
ATOM      9  C   UNL     1       2.175  -5.706  -0.932  0.00  0.00    +0.112 C 
ATOM     10  N   UNL     1       1.083  -6.064  -1.848  0.00  0.00    -0.297 N 
ATOM     11  C   UNL     1      -0.291  -5.683  -1.493  0.00  0.00    +0.112 C 
ATOM     12  C   UNL     1      -0.603  -6.216  -0.091  0.00  0.00    +0.074 C 
ATOM     13  C   UNL     1       1.337  -6.728  -2.993  0.00  0.00    +0.247 C 
ATOM     14  O   UNL     1       2.485  -6.951  -3.324  0.00  0.00    -0.270 OA
ENDROOT
BRANCH   1  19
ATOM     15  C   UNL     1       0.889   2.265   0.711  0.00  0.00    +0.044 C 
ATOM     16  C   UNL     1       0.849   0.774   0.493  0.00  0.00    -0.050 A 
ATOM     17  C   UNL     1       0.796   0.268  -0.793  0.00  0.00    +0.004 A 
ATOM     18  C   UNL     1       0.760  -1.096  -1.000  0.00  0.00    +0.013 A 
ATOM     19  C   UNL     1       0.777  -1.965   0.093  0.00  0.00    +0.037 A 
ATOM     20  C   UNL     1       0.831  -1.447   1.388  0.00  0.00    +0.013 A 
ATOM     21  C   UNL     1       0.872  -0.082   1.580  0.00  0.00    +0.004 A 
ENDBRANCH   1  19
BRANCH  13  22
ATOM     22  C   UNL     1       0.220  -7.184  -3.847  0.00  0.00    +0.040 A 
ATOM     23  C   UNL     1      -0.694  -6.261  -4.358  0.00  0.00    +0.013 A 
ATOM     24  C   UNL     1      -1.735  -6.694  -5.154  0.00  0.00    +0.001 A 
ATOM     25  C   UNL     1      -1.873  -8.040  -5.445  0.00  0.00    +0.000 A 
ATOM     26  C   UNL     1      -0.971  -8.959  -4.942  0.00  0.00    +0.004 A 
ATOM     27  C   UNL     1       0.077  -8.539  -4.149  0.00  0.00    -0.038 A 
ATOM     28  C   UNL     1       1.063  -9.542  -3.606  0.00  0.00    +0.044 C 
ENDBRANCH  13  22
BRANCH   4  29
ATOM     29  C   UNL     1      -0.812  -2.680   2.297  0.00  0.00    +0.236 C 
ATOM     30  O   UNL     1      -1.502  -2.451   1.326  0.00  0.00    -0.274 OA
ATOM     31  N   UNL     1      -0.881  -1.878   3.378  0.00  0.00    -0.307 N 
ATOM     32  H   UNL     1      -0.330  -2.061   4.154  0.00  0.00    +0.149 HD
BRANCH  31  33
ATOM     33  C   UNL     1      -1.790  -0.729   3.380  0.00  0.00    +0.100 C 
ATOM     34  C   UNL     1      -3.187  -1.184   3.809  0.00  0.00    +0.033 C 
BRANCH  33  35
ATOM     35  C   UNL     1      -1.282   0.312   4.344  0.00  0.00    -0.027 A 
ATOM     36  C   UNL     1      -0.740  -0.074   5.555  0.00  0.00    +0.005 A 
ATOM     37  C   UNL     1      -0.274   0.880   6.440  0.00  0.00    +0.000 A 
ATOM     38  C   UNL     1      -0.350   2.221   6.112  0.00  0.00    +0.000 A 
ATOM     39  C   UNL     1      -0.891   2.607   4.900  0.00  0.00    +0.000 A 
ATOM     40  C   UNL     1      -1.353   1.652   4.014  0.00  0.00    +0.005 A 
ENDBRANCH  33  35
ENDBRANCH  31  33
ENDBRANCH   4  29
TORSDOF 5
