REMARK  Name = ZINC35375420
REMARK  7 active torsions:
REMARK  status: ('A' for Active; 'I' for Inactive)
REMARK    1  A    between atoms: C_1  and  C_2
REMARK    2  A    between atoms: C_2  and  C_3
REMARK    3  A    between atoms: C_3  and  C_5
REMARK    4  A    between atoms: C_3  and  N_6
REMARK    5  A    between atoms: C_11  and  C_29
REMARK    6  A    between atoms: C_29  and  C_30
REMARK    7  A    between atoms: C_33  and  O_36
REMARK                            x       y       z     vdW  Elec       q    Type
REMARK                         _______ _______ _______ _____ _____    ______ ____
ROOT
ATOM      1  N   UNL     1      -2.105  -0.148  -1.230  0.00  0.00    -0.239 N 
ATOM      2  C   UNL     1      -1.677  -0.528  -2.471  0.00  0.00    +0.227 C 
ATOM      3  O   UNL     1      -0.900  -1.420  -2.735  0.00  0.00    -0.275 OA
ATOM      4  C   UNL     1      -2.370   0.389  -3.441  0.00  0.00    +0.107 C 
ATOM      5  C   UNL     1      -2.961  -0.193  -4.731  0.00  0.00    +0.072 C 
ATOM      6  N   UNL     1      -4.187   0.647  -4.940  0.00  0.00    -0.295 NA
ATOM      7  C   UNL     1      -4.633   1.125  -3.595  0.00  0.00    +0.136 C 
ATOM      8  C   UNL     1      -3.723   0.491  -2.627  0.00  0.00    +0.122 C 
ATOM      9  C   UNL     1      -3.237   0.628  -1.274  0.00  0.00    +0.228 C 
ATOM     10  O   UNL     1      -3.720   1.285  -0.377  0.00  0.00    -0.275 OA
ATOM     11  C   UNL     1      -4.587   2.631  -3.558  0.00  0.00    +0.005 A 
ATOM     12  C   UNL     1      -3.563   3.546  -3.673  0.00  0.00    +0.027 A 
ATOM     13  C   UNL     1      -3.834   4.901  -3.594  0.00  0.00    +0.041 A 
ATOM     14  C   UNL     1      -5.135   5.333  -3.402  0.00  0.00    +0.022 A 
ATOM     15  C   UNL     1      -6.162   4.419  -3.288  0.00  0.00    +0.025 A 
ATOM     16  C   UNL     1      -5.897   3.053  -3.366  0.00  0.00    +0.039 A 
ATOM     17  N   UNL     1      -6.752   1.952  -3.284  0.00  0.00    -0.283 N 
ATOM     18  C   UNL     1      -6.093   0.787  -3.408  0.00  0.00    +0.243 C 
ATOM     19  O   UNL     1      -6.578  -0.325  -3.377  0.00  0.00    -0.273 OA
ATOM     20 CL   UNL     1      -2.546   6.056  -3.737  0.00  0.00    -0.084 Cl
ATOM     21  H   UNL     1      -3.993   1.423  -5.554  0.00  0.00    +0.124 HD
ATOM     22  H   UNL     1      -7.711   2.020  -3.152  0.00  0.00    +0.155 HD
ENDROOT
BRANCH   1  23
ATOM     23  C   UNL     1      -1.433  -0.534   0.013  0.00  0.00    +0.081 C 
ATOM     24  C   UNL     1      -1.413  -2.059   0.130  0.00  0.00    +0.028 C 
BRANCH  23  26
ATOM     25  C   UNL     1      -0.019   1.526   0.010  0.00  0.00    +0.006 C 
ATOM     26  C   UNL     1       0.002  -0.004   0.002  0.00  0.00    +0.019 C 
ENDBRANCH  23  26
ENDBRANCH   1  23
BRANCH   5  27
ATOM     27  C   UNL     1      -1.983  -0.032  -5.897  0.00  0.00    +0.054 C 
BRANCH  27  28
ATOM     28  C   UNL     1      -2.538  -0.720  -7.117  0.00  0.00    -0.046 A 
ATOM     29  C   UNL     1      -2.247  -2.051  -7.351  0.00  0.00    +0.007 A 
ATOM     30  C   UNL     1      -2.754  -2.684  -8.469  0.00  0.00    +0.045 A 
ATOM     31  C   UNL     1      -3.557  -1.984  -9.357  0.00  0.00    +0.117 A 
ATOM     32  C   UNL     1      -3.849  -0.648  -9.120  0.00  0.00    +0.045 A 
ATOM     33  C   UNL     1      -3.343  -0.021  -7.997  0.00  0.00    +0.007 A 
BRANCH  31  34
ATOM     34  O   UNL     1      -4.057  -2.604 -10.458  0.00  0.00    -0.507 OA
ATOM     35  H   UNL     1      -4.918  -3.022 -10.317  0.00  0.00    +0.292 HD
ENDBRANCH  31  34
ENDBRANCH  27  28
ENDBRANCH   5  27
TORSDOF 5
