REMARK  Name = ZINC13272999
REMARK  11 active torsions:
REMARK  status: ('A' for Active; 'I' for Inactive)
REMARK    1  A    between atoms: C_1  and  C_2
REMARK    2  A    between atoms: C_2  and  C_4
REMARK    3  A    between atoms: C_2  and  N_51
REMARK    4  A    between atoms: C_7  and  S_16
REMARK    5  A    between atoms: N_8  and  C_9
REMARK    6  A    between atoms: S_16  and  C_17
REMARK    7  A    between atoms: C_20  and  C_26
REMARK    8  A    between atoms: C_22  and  N_23
REMARK    9  A    between atoms: C_27  and  C_28
REMARK   10  A    between atoms: C_30  and  N_51
REMARK   11  A    between atoms: C_31  and  N_51
REMARK                            x       y       z     vdW  Elec       q    Type
REMARK                         _______ _______ _______ _____ _____    ______ ____
ROOT
ATOM      1  C   UNL     1      -0.039  -0.854  -1.153  0.00  0.00    +0.125 A 
ATOM      2  N   UNL     1       0.198  -2.074  -0.758  0.00  0.00    -0.135 NA
ATOM      3  N   UNL     1       0.621  -2.071   0.456  0.00  0.00    -0.122 NA
ATOM      4  C   UNL     1       0.683  -0.838   0.904  0.00  0.00    +0.201 A 
ATOM      5  N   UNL     1       0.267  -0.021  -0.111  0.00  0.00    -0.275 N 
ENDROOT
BRANCH   5   6
ATOM      6  C   UNL     1       0.168   1.378  -0.086  0.00  0.00    +0.050 A 
ATOM      7  C   UNL     1      -1.073   1.989  -0.201  0.00  0.00    +0.028 A 
ATOM      8  C   UNL     1      -1.168   3.367  -0.173  0.00  0.00    +0.022 A 
ATOM      9  C   UNL     1      -0.026   4.138  -0.040  0.00  0.00    +0.041 A 
ATOM     10  C   UNL     1       1.212   3.530   0.070  0.00  0.00    +0.022 A 
ATOM     11  C   UNL     1       1.312   2.153   0.047  0.00  0.00    +0.028 A 
ATOM     12 CL   UNL     1      -0.149   5.869  -0.011  0.00  0.00    -0.084 Cl
ENDBRANCH   5   6
BRANCH   1  14
ATOM     13  C   UNL     1       0.574  -0.555  -3.537  0.00  0.00    -0.005 C 
ATOM     14  C   UNL     1      -0.552  -0.438  -2.508  0.00  0.00    -0.003 C 
BRANCH  14  17
ATOM     15  C   UNL     1      -2.269  -0.864  -4.161  0.00  0.00    -0.096 C 
ATOM     16  C   UNL     1      -1.229  -2.712  -2.993  0.00  0.00    -0.096 C 
ATOM     17  N   UNL     1      -1.686  -1.311  -2.879  0.00  0.00    +0.382 N 
ATOM     18  H   UNL     1      -2.405  -1.253  -2.147  0.00  0.00    -0.082 HD
ENDBRANCH  14  17
ENDBRANCH   1  14
BRANCH   4  19
ATOM     19  S   UNL     1       1.204  -0.333   2.510  0.00  0.00    -0.047 S 
BRANCH  19  20
ATOM     20  C   UNL     1       1.425  -1.907   3.270  0.00  0.00    +0.046 A 
ATOM     21  C   UNL     1       2.709  -2.422   3.440  0.00  0.00    +0.018 A 
ATOM     22  C   UNL     1       2.884  -3.641   4.029  0.00  0.00    +0.009 A 
ATOM     23  C   UNL     1       1.772  -4.375   4.463  0.00  0.00    -0.023 A 
ATOM     24  C   UNL     1       0.483  -3.853   4.290  0.00  0.00    +0.041 A 
ATOM     25  C   UNL     1       0.317  -2.630   3.704  0.00  0.00    +0.140 A 
BRANCH  25  26
ATOM     26  N   UNL     1      -1.044  -2.075   3.527  0.00  0.00    +0.058 N 
ATOM     27  O   UNL     1      -2.014  -2.707   3.906  0.00  0.00    -0.126 OA
ATOM     28  O   UNL     1      -1.194  -0.986   3.001  0.00  0.00    -0.126 OA
ENDBRANCH  25  26
BRANCH  23  29
ATOM     29  C   UNL     1       1.956  -5.686   5.098  0.00  0.00    +0.015 C 
ATOM     30  C   UNL     1       3.201  -6.187   5.264  0.00  0.00    +0.096 C 
BRANCH  30  31
ATOM     31  C   UNL     1       3.378  -7.452   5.876  0.00  0.00    +0.380 C 
ATOM     32  O   UNL     1       2.411  -8.088   6.252  0.00  0.00    -0.241 OA
ATOM     33  O   UNL     1       4.620  -7.953   6.043  0.00  0.00    -0.241 OA
ENDBRANCH  30  31
ENDBRANCH  23  29
ENDBRANCH  19  20
ENDBRANCH   4  19
TORSDOF 8
