REMARK  Name = ZINC13302525
REMARK  8 active torsions:
REMARK  status: ('A' for Active; 'I' for Inactive)
REMARK    1  A    between atoms: C_1  and  C_2
REMARK    2  A    between atoms: C_2  and  C_4
REMARK    3  A    between atoms: C_2  and  N_28
REMARK    4  A    between atoms: C_7  and  C_10
REMARK    5  A    between atoms: N_15  and  S_16
REMARK    6  A    between atoms: S_16  and  C_19
REMARK    7  A    between atoms: C_23  and  C_25
REMARK    8  A    between atoms: C_29  and  C_31
REMARK                            x       y       z     vdW  Elec       q    Type
REMARK                         _______ _______ _______ _____ _____    ______ ____
ROOT
ATOM      1  C   UNL     1       1.247  -2.165  -0.021  0.00  0.00    +0.080 A 
ATOM      2  C   UNL     1       2.438  -2.833  -0.036  0.00  0.00    +0.077 A 
ATOM      3  S   UNL     1       1.869  -4.528  -0.039  0.00  0.00    -0.059 S 
ATOM      4  C   UNL     1       0.116  -4.178  -0.020  0.00  0.00    +0.178 A 
ATOM      5  N   UNL     1       0.110  -2.858  -0.008  0.00  0.00    -0.224 NA
ATOM      6  N   UNL     1      -0.953  -5.059  -0.015  0.00  0.00    -0.194 N 
ATOM      7  H   UNL     1      -1.862  -4.719  -0.004  0.00  0.00    +0.176 HD
ENDROOT
BRANCH   1  11
ATOM      8  C   UNL     1       1.170   2.086   0.002  0.00  0.00    -0.027 A 
ATOM      9  C   UNL     1      -0.017   1.376   0.010  0.00  0.00    +0.006 A 
ATOM     10  C   UNL     1       0.002  -0.004   0.002  0.00  0.00    +0.010 A 
ATOM     11  C   UNL     1       1.220  -0.682  -0.013  0.00  0.00    +0.001 A 
ATOM     12  C   UNL     1       2.413   0.039  -0.021  0.00  0.00    +0.010 A 
ATOM     13  C   UNL     1       2.382   1.419  -0.013  0.00  0.00    +0.006 A 
BRANCH   8  15
ATOM     14  C   UNL     1       1.398   4.100   1.431  0.00  0.00    +0.033 C 
ATOM     15  C   UNL     1       1.143   3.593   0.010  0.00  0.00    +0.100 C 
BRANCH  15  16
ATOM     16  N   UNL     1       2.184   4.105  -0.885  0.00  0.00    -0.309 N 
ATOM     17  C   UNL     1       2.056   5.328  -1.437  0.00  0.00    +0.210 C 
ATOM     18  O   UNL     1       1.080   6.004  -1.194  0.00  0.00    -0.276 OA
ATOM     19  C   UNL     1       3.127   5.854  -2.358  0.00  0.00    +0.109 C 
ATOM     20  H   UNL     1       2.965   3.564  -1.080  0.00  0.00    +0.149 HD
ENDBRANCH  15  16
ENDBRANCH   8  15
ENDBRANCH   1  11
BRANCH   6  21
ATOM     21  S   UNL     1      -0.680  -6.692  -0.026  0.00  0.00    +0.074 S 
ATOM     22  O   UNL     1      -1.956  -7.317   0.010  0.00  0.00    -0.150 OA
ATOM     23  O   UNL     1       0.260  -6.940  -1.061  0.00  0.00    -0.150 OA
BRANCH  21  24
ATOM     24  C   UNL     1       0.121  -7.097   1.490  0.00  0.00    +0.110 A 
ATOM     25  C   UNL     1       1.504  -7.079   1.566  0.00  0.00    +0.031 A 
ATOM     26  C   UNL     1       2.142  -7.389   2.752  0.00  0.00    +0.041 A 
ATOM     27  C   UNL     1       1.403  -7.731   3.870  0.00  0.00    +0.138 A 
ATOM     28  C   UNL     1       0.006  -7.756   3.797  0.00  0.00    +0.100 A 
ATOM     29  C   UNL     1      -0.630  -7.436   2.595  0.00  0.00    +0.046 A 
ATOM     30  F   UNL     1       2.027  -8.039   5.027  0.00  0.00    -0.205 F 
BRANCH  28  31
ATOM     31  C   UNL     1      -0.791  -8.119   4.985  0.00  0.00    +0.389 C 
ATOM     32  O   UNL     1      -0.235  -8.398   6.028  0.00  0.00    -0.240 OA
ATOM     33  O   UNL     1      -2.137  -8.142   4.911  0.00  0.00    -0.240 OA
ENDBRANCH  28  31
ENDBRANCH  21  24
ENDBRANCH   6  21
TORSDOF 6
