REMARK  Name = ZINC34685766
REMARK  10 active torsions:
REMARK  status: ('A' for Active; 'I' for Inactive)
REMARK    1  A    between atoms: C_1  and  C_2
REMARK    2  A    between atoms: C_2  and  C_3
REMARK    3  A    between atoms: C_2  and  C_4
REMARK    4  A    between atoms: C_2  and  C_5
REMARK    5  A    between atoms: C_13  and  O_25
REMARK    6  A    between atoms: C_16  and  C_18
REMARK    7  A    between atoms: O_25  and  C_26
REMARK    8  A    between atoms: C_26  and  C_27
REMARK    9  A    between atoms: C_30  and  C_32
REMARK   10  A    between atoms: N_37  and  C_40
REMARK                            x       y       z     vdW  Elec       q    Type
REMARK                         _______ _______ _______ _____ _____    ______ ____
ROOT
ATOM      1  C   UNL     1       0.923  -0.039  -0.205  0.00  0.00    +0.222 C 
ATOM      2  O   UNL     1       1.472   0.706  -0.989  0.00  0.00    -0.275 OA
ATOM      3  N   UNL     1       0.688  -1.321  -0.545  0.00  0.00    -0.290 N 
ATOM      4  C   UNL     1       0.105  -2.273   0.415  0.00  0.00    +0.113 C 
ATOM      5  C   UNL     1      -1.259  -2.704  -0.121  0.00  0.00    +0.054 C 
ATOM      6  C   UNL     1      -1.169  -3.083  -1.576  0.00  0.00    -0.040 A 
ATOM      7  C   UNL     1      -2.179  -3.884  -2.096  0.00  0.00    +0.007 A 
ATOM      8  C   UNL     1      -2.165  -4.261  -3.421  0.00  0.00    +0.046 A 
ATOM      9  C   UNL     1      -1.134  -3.836  -4.247  0.00  0.00    +0.121 A 
ATOM     10  C   UNL     1      -0.126  -3.042  -3.729  0.00  0.00    +0.051 A 
ATOM     11  C   UNL     1      -0.140  -2.669  -2.393  0.00  0.00    -0.016 A 
ATOM     12  C   UNL     1       0.997  -1.823  -1.888  0.00  0.00    +0.137 C 
ENDROOT
BRANCH  12  13
ATOM     13  C   UNL     1       1.207  -0.659  -2.822  0.00  0.00    -0.020 A 
ATOM     14  C   UNL     1       0.274   0.359  -2.878  0.00  0.00    +0.006 A 
ATOM     15  C   UNL     1       0.465   1.427  -3.734  0.00  0.00    +0.003 A 
ATOM     16  C   UNL     1       1.590   1.478  -4.536  0.00  0.00    +0.038 A 
ATOM     17  C   UNL     1       2.525   0.459  -4.481  0.00  0.00    +0.124 A 
ATOM     18  C   UNL     1       2.335  -0.608  -3.618  0.00  0.00    +0.044 A 
ATOM     19  F   UNL     1       3.625   0.507  -5.264  0.00  0.00    -0.205 F 
ENDBRANCH  12  13
BRANCH   1  21
ATOM     20  C   UNL     1       0.751   1.978   1.227  0.00  0.00    +0.020 C 
ATOM     21  C   UNL     1       0.505   0.470   1.151  0.00  0.00    +0.039 C 
ATOM     22  C   UNL     1       1.323  -0.235   2.235  0.00  0.00    +0.020 C 
ATOM     23  C   UNL     1      -0.982   0.184   1.366  0.00  0.00    +0.020 C 
ENDBRANCH   1  21
BRANCH   9  24
ATOM     24  O   UNL     1      -1.114  -4.199  -5.557  0.00  0.00    -0.484 OA
BRANCH  24  25
ATOM     25  C   UNL     1      -2.188  -5.020  -6.019  0.00  0.00    +0.303 C 
BRANCH  25  26
ATOM     26  C   UNL     1      -1.998  -5.318  -7.484  0.00  0.00    +0.143 A 
ATOM     27  C   UNL     1      -1.327  -6.375  -7.992  0.00  0.00    +0.049 A 
ATOM     28  C   UNL     1      -1.391  -6.273  -9.390  0.00  0.00    +0.055 A 
ATOM     29  C   UNL     1      -2.107  -5.145  -9.669  0.00  0.00    +0.190 A 
ATOM     30  O   UNL     1      -2.471  -4.581  -8.498  0.00  0.00    -0.452 OA
BRANCH  29  31
ATOM     31  C   UNL     1      -2.429  -4.636 -11.006  0.00  0.00    +0.282 C 
ATOM     32  O   UNL     1      -2.161  -5.300 -11.990  0.00  0.00    -0.267 OA
ATOM     33  N   UNL     1      -3.022  -3.434 -11.146  0.00  0.00    -0.299 N 
ATOM     34  C   UNL     1      -3.227  -2.553  -9.986  0.00  0.00    +0.089 C 
ATOM     35  C   UNL     1      -2.692  -1.160 -10.334  0.00  0.00    -0.060 C 
ATOM     36  N   UNL     1      -3.325  -0.688 -11.572  0.00  0.00    +0.380 N 
ATOM     37  C   UNL     1      -2.934  -1.553 -12.693  0.00  0.00    -0.060 C 
ATOM     38  C   UNL     1      -3.476  -2.963 -12.463  0.00  0.00    +0.089 C 
ATOM     39  C   UNL     1      -2.895   0.690 -11.846  0.00  0.00    -0.096 C 
ATOM     40  H   UNL     1      -4.328  -0.711 -11.465  0.00  0.00    -0.082 HD
ENDBRANCH  29  31
ENDBRANCH  25  26
ENDBRANCH  24  25
ENDBRANCH   9  24
TORSDOF 6
