REMARK  Name = ZINC09348470
REMARK  5 active torsions:
REMARK  status: ('A' for Active; 'I' for Inactive)
REMARK    1  A    between atoms: C_1  and  C_2
REMARK    2  A    between atoms: C_7  and  C_8
REMARK    3  A    between atoms: C_7  and  N_54
REMARK    4  A    between atoms: C_9  and  O_31
REMARK    5  A    between atoms: C_18  and  C_19
REMARK                            x       y       z     vdW  Elec       q    Type
REMARK                         _______ _______ _______ _____ _____    ______ ____
ROOT
ATOM      1  C   UNL     1      -1.146   8.492   2.224  0.00  0.00    +0.020 A 
ATOM      2  C   UNL     1      -1.626   7.806   3.328  0.00  0.00    +0.122 A 
ATOM      3  C   UNL     1      -1.599   6.415   3.362  0.00  0.00    +0.046 A 
ATOM      4  C   UNL     1      -1.097   5.708   2.306  0.00  0.00    +0.016 A 
ATOM      5  C   UNL     1      -0.615   6.384   1.184  0.00  0.00    +0.026 A 
ATOM      6  C   UNL     1      -0.634   7.789   1.145  0.00  0.00    +0.144 A 
ATOM      7  O   UNL     1      -0.160   8.440   0.060  0.00  0.00    -0.422 OA
ATOM      8  C   UNL     1       0.342   7.786  -0.999  0.00  0.00    +0.338 A 
ATOM      9  O   UNL     1       0.755   8.427  -1.950  0.00  0.00    -0.245 OA
ATOM     10  C   UNL     1       0.405   6.385  -1.042  0.00  0.00    +0.101 A 
ATOM     11  C   UNL     1      -0.062   5.648   0.034  0.00  0.00    +0.006 A 
ENDROOT
BRANCH  11  12
ATOM     12  C   UNL     1      -0.013   4.173   0.025  0.00  0.00    +0.068 A 
ATOM     13  C   UNL     1       1.199   3.510   0.010  0.00  0.00    +0.027 A 
ATOM     14  C   UNL     1       1.200   2.091   0.002  0.00  0.00    +0.019 A 
ATOM     15  C   UNL     1       2.413   1.386  -0.013  0.00  0.00    +0.026 A 
ATOM     16  C   UNL     1       2.406   0.021  -0.020  0.00  0.00    +0.019 A 
ATOM     17  C   UNL     1       1.205  -0.677  -0.013  0.00  0.00    +0.019 A 
ATOM     18  C   UNL     1       0.002  -0.004   0.002  0.00  0.00    +0.048 A 
ATOM     19  C   UNL     1      -0.017   1.387   0.010  0.00  0.00    +0.139 A 
ATOM     20  O   UNL     1      -1.197   2.043   0.030  0.00  0.00    -0.422 OA
ATOM     21  C   UNL     1      -1.252   3.385   0.033  0.00  0.00    +0.345 A 
ATOM     22  O   UNL     1      -2.330   3.949   0.046  0.00  0.00    -0.245 OA
ATOM     23 BR   UNL     1       4.042  -0.927  -0.040  0.00  0.00    -0.050 Br
ENDBRANCH  11  12
BRANCH   2  24
ATOM     24  O   UNL     1      -2.128   8.496   4.384  0.00  0.00    -0.506 OA
ATOM     25  H   UNL     1      -3.077   8.672   4.325  0.00  0.00    +0.292 HD
ENDBRANCH   2  24
BRANCH   1  26
ATOM     26  C   UNL     1      -1.179   9.999   2.197  0.00  0.00    -0.036 C 
BRANCH  26  33
ATOM     27  C   UNL     1      -6.349  12.014   0.824  0.00  0.00    +0.007 C 
ATOM     28  C   UNL     1      -5.096  11.607   1.602  0.00  0.00    -0.018 C 
ATOM     29  C   UNL     1      -3.882  12.354   1.045  0.00  0.00    -0.016 C 
ATOM     30  C   UNL     1      -2.623  11.898   1.787  0.00  0.00    -0.078 C 
ATOM     31  C   UNL     1      -3.583   9.709   2.185  0.00  0.00    -0.078 C 
ATOM     32  C   UNL     1      -4.870  10.100   1.455  0.00  0.00    -0.016 C 
ATOM     33  N   UNL     1      -2.449  10.444   1.586  0.00  0.00    +0.383 N 
ATOM     34  H   UNL     1      -2.420  10.248   0.578  0.00  0.00    -0.081 HD
ENDBRANCH  26  33
ENDBRANCH   1  26
TORSDOF 4
