REMARK  Name = ZINC35992936
REMARK  10 active torsions:
REMARK  status: ('A' for Active; 'I' for Inactive)
REMARK    1  A    between atoms: C_1  and  C_2
REMARK    2  A    between atoms: C_2  and  O_3
REMARK    3  A    between atoms: O_3  and  C_4
REMARK    4  A    between atoms: C_4  and  C_6
REMARK    5  A    between atoms: C_7  and  C_21
REMARK    6  A    between atoms: N_8  and  C_20
REMARK    7  A    between atoms: C_12  and  C_14
REMARK    8  A    between atoms: C_21  and  N_22
REMARK    9  A    between atoms: N_26  and  S_29
REMARK   10  A    between atoms: S_29  and  C_32
REMARK                            x       y       z     vdW  Elec       q    Type
REMARK                         _______ _______ _______ _____ _____    ______ ____
ROOT
ATOM      1  C   UNL     1       0.803  -2.641  -3.229  0.00  0.00    +0.080 C 
ATOM      2  C   UNL     1       1.499  -3.695  -2.751  0.00  0.00    +0.041 C 
ATOM      3  N   UNL     1       2.809  -3.885  -3.087  0.00  0.00    -0.260 N 
ATOM      4  C   UNL     1       3.494  -3.066  -3.895  0.00  0.00    +0.307 C 
ATOM      5  O   UNL     1       4.659  -3.318  -4.136  0.00  0.00    -0.252 OA
ATOM      6  N   UNL     1       2.936  -1.972  -4.449  0.00  0.00    -0.288 N 
ATOM      7  C   UNL     1       1.522  -1.681  -4.154  0.00  0.00    +0.144 C 
ATOM      8  C   UNL     1       3.503  -5.050  -2.533  0.00  0.00    +0.139 C 
ATOM      9  H   UNL     1       3.451  -1.392  -5.031  0.00  0.00    +0.151 HD
ENDROOT
BRANCH   7  10
ATOM     10  C   UNL     1       1.455  -0.306  -3.540  0.00  0.00    -0.022 A 
ATOM     11  C   UNL     1       2.330   0.044  -2.529  0.00  0.00    +0.006 A 
ATOM     12  C   UNL     1       2.268   1.305  -1.967  0.00  0.00    +0.000 A 
ATOM     13  C   UNL     1       1.330   2.216  -2.415  0.00  0.00    +0.000 A 
ATOM     14  C   UNL     1       0.455   1.867  -3.427  0.00  0.00    +0.000 A 
ATOM     15  C   UNL     1       0.520   0.607  -3.992  0.00  0.00    +0.006 A 
ENDBRANCH   7  10
BRANCH   1  16
ATOM     16  C   UNL     1      -0.554  -2.444  -2.882  0.00  0.00    +0.339 C 
ATOM     17  O   UNL     1      -1.137  -3.272  -2.207  0.00  0.00    -0.245 OA
BRANCH  16  18
ATOM     18  O   UNL     1      -1.203  -1.337  -3.299  0.00  0.00    -0.462 OA
BRANCH  18  20
ATOM     19  C   UNL     1      -3.135   0.105  -3.474  0.00  0.00    +0.048 C 
ATOM     20  C   UNL     1      -2.572  -1.202  -2.912  0.00  0.00    +0.229 C 
ENDBRANCH  18  20
ENDBRANCH  16  18
ENDBRANCH   1  16
BRANCH   2  21
ATOM     21  C   UNL     1       0.820  -4.678  -1.832  0.00  0.00    +0.136 C 
BRANCH  21  22
ATOM     22  N   UNL     1      -0.050  -5.563  -2.618  0.00  0.00    -0.296 NA
ATOM     23  C   UNL     1       0.726  -6.405  -3.492  0.00  0.00    +0.086 C 
ATOM     24  C   UNL     1       0.035  -6.527  -4.873  0.00  0.00    +0.032 C 
ATOM     25  C   UNL     1      -1.501  -6.612  -4.683  0.00  0.00    +0.111 C 
ATOM     26  N   UNL     1      -1.960  -7.432  -3.597  0.00  0.00    -0.175 NA
ATOM     27  C   UNL     1      -2.142  -6.808  -2.243  0.00  0.00    +0.125 C 
ATOM     28  C   UNL     1      -0.802  -6.465  -1.749  0.00  0.00    +0.102 C 
BRANCH  26  29
ATOM     29  S   UNL     1      -2.284  -9.039  -3.833  0.00  0.00    +0.061 S 
ATOM     30  O   UNL     1      -3.204  -9.421  -2.820  0.00  0.00    -0.153 OA
ATOM     31  O   UNL     1      -2.566  -9.197  -5.217  0.00  0.00    -0.153 OA
BRANCH  29  32
ATOM     32  C   UNL     1      -0.793  -9.923  -3.519  0.00  0.00    +0.105 A 
ATOM     33  C   UNL     1       0.102 -10.157  -4.547  0.00  0.00    +0.028 A 
ATOM     34  C   UNL     1       1.272 -10.850  -4.300  0.00  0.00    +0.002 A 
ATOM     35  C   UNL     1       1.548 -11.309  -3.026  0.00  0.00    +0.000 A 
ATOM     36  C   UNL     1       0.654 -11.074  -1.998  0.00  0.00    +0.002 A 
ATOM     37  C   UNL     1      -0.514 -10.377  -2.244  0.00  0.00    +0.028 A 
ENDBRANCH  29  32
ENDBRANCH  26  29
ENDBRANCH  21  22
ENDBRANCH   2  21
TORSDOF 8
