REMARK  Name = ZINC04125683
REMARK  6 active torsions:
REMARK  status: ('A' for Active; 'I' for Inactive)
REMARK    1  A    between atoms: C_3  and  C_10
REMARK    2  A    between atoms: C_5  and  N_7
REMARK    3  A    between atoms: C_17  and  N_30
REMARK    4  A    between atoms: C_18  and  C_28
REMARK    5  A    between atoms: C_19  and  C_21
REMARK    6  A    between atoms: C_24  and  O_27
REMARK                            x       y       z     vdW  Elec       q    Type
REMARK                         _______ _______ _______ _____ _____    ______ ____
ROOT
ATOM      1  C   UNL     1       3.949   2.425   0.121  0.00  0.00    +0.100 A 
ATOM      2  C   UNL     1       4.047   3.523  -0.739  0.00  0.00    +0.054 A 
ATOM      3  C   UNL     1       5.307   4.035  -0.629  0.00  0.00    +0.223 A 
ATOM      4  N   UNL     1       5.977   3.286   0.271  0.00  0.00    -0.246 N 
ATOM      5  H   UNL     1       6.896   3.418   0.552  0.00  0.00    +0.192 HD
ATOM      6  N   UNL     1       5.109   2.285   0.734  0.00  0.00    -0.171 NA
ATOM      7  O   UNL     1       5.725   5.112  -1.340  0.00  0.00    -0.423 OA
ATOM      8  C   UNL     1       4.958   5.513  -2.374  0.00  0.00    +0.200 C 
ATOM      9  C   UNL     1       3.692   5.088  -2.581  0.00  0.00    +0.098 C 
ATOM     10  C   UNL     1       3.007   4.111  -1.658  0.00  0.00    +0.102 C 
ENDROOT
BRANCH   1  13
ATOM     11  C   UNL     1       0.874   0.384  -0.596  0.00  0.00    +0.003 A 
ATOM     12  C   UNL     1       1.988   1.177  -0.782  0.00  0.00    +0.010 A 
ATOM     13  C   UNL     1       2.750   1.573   0.315  0.00  0.00    +0.005 A 
ATOM     14  C   UNL     1       2.382   1.164   1.595  0.00  0.00    +0.042 A 
ATOM     15  C   UNL     1       1.267   0.370   1.770  0.00  0.00    +0.127 A 
ATOM     16  C   UNL     1       0.514  -0.019   0.677  0.00  0.00    +0.033 A 
BRANCH  15  17
ATOM     17  N   UNL     1       0.875  -0.065   3.129  0.00  0.00    +0.056 N 
ATOM     18  O   UNL     1       1.533   0.274   4.085  0.00  0.00    -0.126 OA
ATOM     19  O   UNL     1      -0.102  -0.760   3.284  0.00  0.00    -0.126 OA
ENDBRANCH  15  17
ENDBRANCH   1  13
BRANCH  10  20
ATOM     20  C   UNL     1       1.958   4.827  -0.847  0.00  0.00    -0.034 A 
ATOM     21  C   UNL     1       2.329   5.832   0.027  0.00  0.00    +0.008 A 
ATOM     22  C   UNL     1       1.369   6.490   0.772  0.00  0.00    +0.046 A 
ATOM     23  C   UNL     1       0.033   6.142   0.642  0.00  0.00    +0.117 A 
ATOM     24  C   UNL     1      -0.337   5.133  -0.236  0.00  0.00    +0.046 A 
ATOM     25  C   UNL     1       0.626   4.482  -0.983  0.00  0.00    +0.008 A 
BRANCH  23  26
ATOM     26  O   UNL     1      -0.913   6.787   1.374  0.00  0.00    -0.507 OA
ATOM     27  H   UNL     1      -1.279   7.570   0.940  0.00  0.00    +0.292 HD
ENDBRANCH  23  26
ENDBRANCH  10  20
BRANCH   8  28
ATOM     28  N   UNL     1       5.494   6.407  -3.268  0.00  0.00    -0.328 N 
ATOM     29  H   UNL     1       6.400   6.731  -3.146  0.00  0.00    +0.145 HD
ATOM     30  H   UNL     1       4.966   6.714  -4.021  0.00  0.00    +0.145 HD
ENDBRANCH   8  28
BRANCH   9  31
ATOM     31  C   UNL     1       2.975   5.582  -3.717  0.00  0.00    +0.101 C 
ATOM     32  N   UNL     1       2.406   5.975  -4.619  0.00  0.00    -0.191 NA
ENDBRANCH   9  31
TORSDOF 6
