REMARK  Name = ZINC01944544
REMARK  11 active torsions:
REMARK  status: ('A' for Active; 'I' for Inactive)
REMARK    1  A    between atoms: C_1  and  C_2
REMARK    2  A    between atoms: C_2  and  C_3
REMARK    3  A    between atoms: C_2  and  C_4
REMARK    4  A    between atoms: C_2  and  C_5
REMARK    5  A    between atoms: C_12  and  N_18
REMARK    6  A    between atoms: C_13  and  C_14
REMARK    7  A    between atoms: C_14  and  O_16
REMARK    8  A    between atoms: O_16  and  C_17
REMARK    9  A    between atoms: C_19  and  C_21
REMARK   10  A    between atoms: C_21  and  O_22
REMARK   11  A    between atoms: O_22  and  C_23
REMARK                            x       y       z     vdW  Elec       q    Type
REMARK                         _______ _______ _______ _____ _____    ______ ____
ROOT
ATOM      1  C   UNL     1       5.492   4.200   0.352  0.00  0.00    -0.000 C 
ATOM      2  C   UNL     1       5.854   2.977  -0.496  0.00  0.00    +0.009 C 
ATOM      3  C   UNL     1       5.038   1.767  -0.038  0.00  0.00    +0.037 C 
ATOM      4  C   UNL     1       3.563   2.149  -0.021  0.00  0.00    -0.021 A 
ATOM      5  C   UNL     1       3.180   3.444  -0.009  0.00  0.00    -0.004 A 
ATOM      6  S   UNL     1       1.410   3.392   0.007  0.00  0.00    -0.077 S 
ATOM      7  C   UNL     1       1.180   1.675  -0.000  0.00  0.00    +0.086 A 
ATOM      8  C   UNL     1       2.478   1.182  -0.010  0.00  0.00    +0.091 A 
ATOM      9  C   UNL     1       4.069   4.649  -0.010  0.00  0.00    +0.046 C 
ENDROOT
BRANCH   1  11
ATOM     10  C   UNL     1       6.102   6.561   0.897  0.00  0.00    +0.011 C 
ATOM     11  C   UNL     1       6.477   5.335   0.062  0.00  0.00    -0.035 C 
ATOM     12  C   UNL     1       7.894   4.885   0.424  0.00  0.00    +0.011 C 
ATOM     13  C   UNL     1       6.419   5.693  -1.424  0.00  0.00    +0.011 C 
ENDBRANCH   1  11
BRANCH   7  14
ATOM     14  N   UNL     1      -0.011   0.966   0.007  0.00  0.00    -0.277 N 
ATOM     15  C   UNL     1      -1.187   1.624   0.017  0.00  0.00    +0.255 C 
ATOM     16  O   UNL     1      -1.204   2.836   0.023  0.00  0.00    -0.272 OA
ATOM     17  H   UNL     1       0.004  -0.134   0.006  0.00  0.00    +0.155 HD
BRANCH  15  18
ATOM     18  C   UNL     1      -2.482   0.853   0.018  0.00  0.00    +0.324 C 
BRANCH  18  19
ATOM     19  O   UNL     1      -3.581   1.766   0.029  0.00  0.00    -0.483 OA
BRANCH  19  20
ATOM     20  C   UNL     1      -4.830   1.230   0.032  0.00  0.00    +0.121 A 
ATOM     21  C   UNL     1      -4.994  -0.148   0.019  0.00  0.00    +0.047 A 
ATOM     22  C   UNL     1      -6.264  -0.691   0.029  0.00  0.00    +0.019 A 
ATOM     23  C   UNL     1      -7.372   0.138   0.038  0.00  0.00    +0.018 A 
ATOM     24  C   UNL     1      -7.210   1.512   0.044  0.00  0.00    +0.019 A 
ATOM     25  C   UNL     1      -5.942   2.059   0.041  0.00  0.00    +0.047 A 
ATOM     26 BR   UNL     1      -9.109  -0.609   0.044  0.00  0.00    -0.050 Br
ENDBRANCH  19  20
ENDBRANCH  18  19
ENDBRANCH  15  18
ENDBRANCH   7  14
BRANCH   8  27
ATOM     27  C   UNL     1       2.744  -0.258  -0.013  0.00  0.00    +0.342 C 
ATOM     28  O   UNL     1       2.847  -0.855  -1.067  0.00  0.00    -0.245 OA
BRANCH  27  29
ATOM     29  O   UNL     1       2.873  -0.922   1.154  0.00  0.00    -0.464 OA
ATOM     30  C   UNL     1       3.136  -2.348   1.075  0.00  0.00    +0.280 C 
ENDBRANCH  27  29
ENDBRANCH   8  27
TORSDOF 7
