REMARK  Name = ZINC66740294
REMARK  3 active torsions:
REMARK  status: ('A' for Active; 'I' for Inactive)
REMARK    1  A    between atoms: C_1  and  C_2
REMARK    2  A    between atoms: C_11  and  C_14
REMARK    3  A    between atoms: C_17  and  C_19
REMARK                            x       y       z     vdW  Elec       q    Type
REMARK                         _______ _______ _______ _____ _____    ______ ____
ROOT
ATOM      1  C   UNL     1      -0.018   1.503   0.010  0.00  0.00    +0.067 C 
ATOM      2  C   UNL     1       0.002  -0.004   0.002  0.00  0.00    +0.055 A 
ATOM      3  C   UNL     1       0.008  -0.795  -1.075  0.00  0.00    +0.082 A 
ATOM      4  C   UNL     1       0.022  -2.138  -0.574  0.00  0.00    +0.168 A 
ATOM      5  N   UNL     1       0.032  -2.062   0.724  0.00  0.00    -0.167 NA
ATOM      6  N   UNL     1       0.024  -0.824   1.094  0.00  0.00    -0.279 N 
ATOM      7  H   UNL     1       0.030  -0.521   2.015  0.00  0.00    +0.189 HD
ATOM      8  C   UNL     1       0.015  -3.268  -1.523  0.00  0.00    +0.268 C 
ATOM      9  O   UNL     1      -0.148  -4.413  -1.149  0.00  0.00    -0.268 OA
ATOM     10  N   UNL     1       0.198  -2.968  -2.831  0.00  0.00    -0.287 N 
ATOM     11  C   UNL     1       0.567  -1.639  -3.303  0.00  0.00    +0.209 C 
ATOM     12  N   UNL     1       0.007  -0.571  -2.459  0.00  0.00    -0.318 N 
ATOM     13  H   UNL     1       0.077  -3.673  -3.486  0.00  0.00    +0.151 HD
ATOM     14  H   UNL     1      -0.344   0.248  -2.841  0.00  0.00    +0.148 HD
ENDROOT
BRANCH  11  15
ATOM     15  C   UNL     1       2.070  -1.522  -3.306  0.00  0.00    +0.087 A 
ATOM     16  C   UNL     1       2.837  -2.622  -3.516  0.00  0.00    +0.074 A 
ATOM     17  S   UNL     1       4.474  -1.909  -3.414  0.00  0.00    -0.075 S 
ATOM     18  C   UNL     1       3.959  -0.225  -3.103  0.00  0.00    +0.115 A 
ATOM     19  N   UNL     1       2.638  -0.354  -3.110  0.00  0.00    -0.240 NA
BRANCH  18  20
ATOM     20  C   UNL     1       4.779   0.980  -2.898  0.00  0.00    +0.044 A 
ATOM     21  C   UNL     1       6.145   1.107  -2.903  0.00  0.00    +0.018 A 
ATOM     22  C   UNL     1       6.694   2.350  -2.686  0.00  0.00    +0.008 A 
ATOM     23  C   UNL     1       5.870   3.410  -2.475  0.00  0.00    +0.046 A 
ATOM     24  S   UNL     1       4.255   2.658  -2.588  0.00  0.00    -0.095 S 
ENDBRANCH  18  20
ENDBRANCH  11  15
TORSDOF 2
