REMARK  Name = ZINC13803069
REMARK  4 active torsions:
REMARK  status: ('A' for Active; 'I' for Inactive)
REMARK    1  A    between atoms: C_10  and  C_11
REMARK    2  A    between atoms: N_16  and  C_30
REMARK    3  A    between atoms: C_20  and  C_24
REMARK    4  A    between atoms: C_30  and  C_31
REMARK                            x       y       z     vdW  Elec       q    Type
REMARK                         _______ _______ _______ _____ _____    ______ ____
ROOT
ATOM      1  C   UNL     1       4.944   0.132  -0.046  0.00  0.00    +0.248 C 
ATOM      2  O   UNL     1       4.930   1.346  -0.109  0.00  0.00    -0.270 OA
ATOM      3  N   UNL     1       6.119  -0.524   0.042  0.00  0.00    -0.292 N 
ATOM      4  C   UNL     1       7.367   0.238   0.149  0.00  0.00    +0.127 C 
ATOM      5  C   UNL     1       8.035   0.011   1.492  0.00  0.00    +0.124 C 
ATOM      6  N   UNL     1       8.353  -1.416   1.656  0.00  0.00    -0.322 N 
ATOM      7  C   UNL     1       7.375  -2.252   2.183  0.00  0.00    +0.035 A 
ATOM      8  C   UNL     1       7.536  -2.832   3.437  0.00  0.00    +0.024 A 
ATOM      9  C   UNL     1       6.534  -3.614   3.968  0.00  0.00    +0.012 A 
ATOM     10  C   UNL     1       5.354  -3.824   3.253  0.00  0.00    +0.001 A 
ATOM     11  C   UNL     1       5.202  -3.259   1.985  0.00  0.00    +0.017 A 
ATOM     12  C   UNL     1       6.216  -2.503   1.452  0.00  0.00    -0.008 A 
ATOM     13  C   UNL     1       6.131  -1.987   0.034  0.00  0.00    +0.145 C 
ENDROOT
BRANCH   1  23
ATOM     14  C   UNL     1       0.840  -0.164   2.985  0.00  0.00    +0.001 A 
ATOM     15  C   UNL     1       2.030   0.559   3.023  0.00  0.00    +0.001 A 
ATOM     16  C   UNL     1       2.965   0.423   2.041  0.00  0.00    +0.009 A 
ATOM     17  C   UNL     1       2.729  -0.456   0.975  0.00  0.00    -0.006 A 
ATOM     18  C   UNL     1       1.520  -1.192   0.934  0.00  0.00    -0.017 A 
ATOM     19  C   UNL     1       0.578  -1.027   1.965  0.00  0.00    +0.008 A 
ATOM     20  C   UNL     1       1.282  -2.074  -0.134  0.00  0.00    +0.008 A 
ATOM     21  C   UNL     1       2.210  -2.218  -1.122  0.00  0.00    +0.001 A 
ATOM     22  C   UNL     1       3.402  -1.505  -1.098  0.00  0.00    +0.014 A 
ATOM     23  C   UNL     1       3.678  -0.623  -0.064  0.00  0.00    +0.045 A 
ENDBRANCH   1  23
BRANCH  10  24
ATOM     24  C   UNL     1       4.267  -4.644   3.838  0.00  0.00    +0.071 A 
ATOM     25  C   UNL     1       4.380  -5.112   5.146  0.00  0.00    +0.028 A 
ATOM     26  C   UNL     1       3.357  -5.876   5.678  0.00  0.00    +0.004 A 
ATOM     27  C   UNL     1       2.251  -6.148   4.884  0.00  0.00    +0.020 A 
ATOM     28  C   UNL     1       2.204  -5.652   3.595  0.00  0.00    +0.111 A 
ATOM     29  N   UNL     1       3.190  -4.922   3.114  0.00  0.00    -0.255 NA
ENDBRANCH  10  24
BRANCH   6  30
ATOM     30  C   UNL     1       9.666  -1.942   1.274  0.00  0.00    +0.159 C 
BRANCH  30  31
ATOM     31  C   UNL     1      10.601  -1.863   2.453  0.00  0.00    +0.051 A 
ATOM     32  C   UNL     1      11.466  -0.864   2.713  0.00  0.00    +0.106 A 
ATOM     33  N   UNL     1      12.114  -1.192   3.873  0.00  0.00    -0.352 N 
ATOM     34  H   UNL     1      12.798  -0.667   4.318  0.00  0.00    +0.166 HD
ATOM     35  C   UNL     1      11.622  -2.381   4.282  0.00  0.00    +0.171 A 
ATOM     36  N   UNL     1      10.715  -2.774   3.431  0.00  0.00    -0.349 N 
ATOM     37  H   UNL     1      10.204  -3.597   3.494  0.00  0.00    +0.166 HD
ENDBRANCH  30  31
ENDBRANCH   6  30
TORSDOF 4
