REMARK  Name = ZINC04030450
REMARK  3 active torsions:
REMARK  status: ('A' for Active; 'I' for Inactive)
REMARK    1  A    between atoms: C_3  and  C_14
REMARK    2  A    between atoms: C_7  and  N_13
REMARK    3  A    between atoms: C_8  and  C_10
REMARK                            x       y       z     vdW  Elec       q    Type
REMARK                         _______ _______ _______ _____ _____    ______ ____
ROOT
ATOM      1  C   UNL     1      -1.136   2.320   0.031  0.00  0.00    +0.014 A 
ATOM      2  C   UNL     1      -0.924   3.679   0.031  0.00  0.00    +0.024 A 
ATOM      3  C   UNL     1       0.366   4.188   0.021  0.00  0.00    +0.049 A 
ATOM      4  N   UNL     1       1.405   3.375   0.007  0.00  0.00    -0.244 NA
ATOM      5  C   UNL     1       1.254   2.068   0.001  0.00  0.00    +0.111 A 
ATOM      6  C   UNL     1      -0.018   1.451   0.010  0.00  0.00    +0.029 A 
ATOM      7  C   UNL     1       0.002  -0.004   0.002  0.00  0.00    +0.053 A 
ATOM      8  C   UNL     1       1.223  -0.641  -0.013  0.00  0.00    +0.097 A 
ATOM      9  S   UNL     1       2.391   0.705  -0.017  0.00  0.00    -0.062 S 
ENDROOT
BRANCH   3  10
ATOM     10  C   UNL     1       0.583   5.679   0.026  0.00  0.00    +0.014 C 
ATOM     11  C   UNL     1      -0.343   6.325   1.059  0.00  0.00    +0.016 C 
ATOM     12  C   UNL     1      -0.123   7.839   1.064  0.00  0.00    -0.010 C 
ATOM     13  C   UNL     1       1.332   8.142   1.425  0.00  0.00    +0.007 C 
ATOM     14  C   UNL     1       2.258   7.496   0.393  0.00  0.00    -0.010 C 
ATOM     15  C   UNL     1       2.038   5.982   0.387  0.00  0.00    +0.016 C 
ATOM     16  C   UNL     1       1.948   8.061  -0.995  0.00  0.00    +0.007 C 
ATOM     17  C   UNL     1       0.493   7.759  -1.355  0.00  0.00    -0.010 C 
ATOM     18  C   UNL     1      -0.433   8.405  -0.323  0.00  0.00    +0.007 C 
ATOM     19  C   UNL     1       0.273   6.245  -1.361  0.00  0.00    +0.016 C 
ENDBRANCH   3  10
BRANCH   8  20
ATOM     20  C   UNL     1       1.487  -2.034  -0.024  0.00  0.00    +0.250 C 
ATOM     21  O   UNL     1       0.565  -2.829  -0.020  0.00  0.00    -0.270 OA
ATOM     22  N   UNL     1       2.760  -2.478  -0.038  0.00  0.00    -0.325 N 
ATOM     23  H   UNL     1       3.494  -1.845  -0.041  0.00  0.00    +0.145 HD
ATOM     24  H   UNL     1       2.941  -3.431  -0.045  0.00  0.00    +0.145 HD
ENDBRANCH   8  20
BRANCH   7  25
ATOM     25  N   UNL     1      -1.180  -0.732   0.010  0.00  0.00    -0.356 N 
ATOM     26  H   UNL     1      -2.033  -0.270   0.021  0.00  0.00    +0.142 HD
ATOM     27  H   UNL     1      -1.153  -1.701   0.004  0.00  0.00    +0.142 HD
ENDBRANCH   7  25
TORSDOF 3
