REMARK  Name = ZINC22325073
REMARK  8 active torsions:
REMARK  status: ('A' for Active; 'I' for Inactive)
REMARK    1  A    between atoms: C_1  and  C_2
REMARK    2  A    between atoms: C_5  and  C_37
REMARK    3  A    between atoms: N_8  and  C_10
REMARK    4  A    between atoms: C_10  and  C_11
REMARK    5  A    between atoms: N_16  and  C_17
REMARK    6  A    between atoms: C_17  and  C_19
REMARK    7  A    between atoms: N_28  and  C_30
REMARK    8  A    between atoms: C_30  and  C_31
REMARK                            x       y       z     vdW  Elec       q    Type
REMARK                         _______ _______ _______ _____ _____    ______ ____
ROOT
ATOM      1  C   UNL     1       7.188  -1.899   0.316  0.00  0.00    +0.290 C 
ATOM      2  O   UNL     1       7.472  -1.133   1.222  0.00  0.00    -0.266 OA
ENDROOT
BRANCH   1   3
ATOM      3  C   UNL     1       8.210  -2.268  -0.688  0.00  0.00    +0.156 A 
ATOM      4  C   UNL     1       9.531  -1.623  -0.667  0.00  0.00    +0.020 A 
ATOM      5  C   UNL     1       9.862  -0.658   0.283  0.00  0.00    +0.011 A 
ATOM      6  C   UNL     1      11.113  -0.082   0.261  0.00  0.00    +0.001 A 
ATOM      7  C   UNL     1      12.048  -0.453  -0.697  0.00  0.00    +0.001 A 
ATOM      8  C   UNL     1      11.743  -1.404  -1.645  0.00  0.00    +0.014 A 
ATOM      9  C   UNL     1      10.482  -2.000  -1.641  0.00  0.00    +0.050 A 
ATOM     10  C   UNL     1      10.102  -3.020  -2.627  0.00  0.00    +0.275 A 
ATOM     11  O   UNL     1      10.890  -3.375  -3.483  0.00  0.00    -0.266 OA
ATOM     12  N   UNL     1       8.866  -3.557  -2.568  0.00  0.00    -0.224 N 
ATOM     13  N   UNL     1       7.943  -3.175  -1.594  0.00  0.00    -0.163 NA
BRANCH  12  14
ATOM     14  C   UNL     1       8.485  -4.575  -3.550  0.00  0.00    +0.182 C 
BRANCH  14  15
ATOM     15  C   UNL     1       8.838  -5.941  -3.021  0.00  0.00    -0.026 A 
ATOM     16  C   UNL     1      10.084  -6.482  -3.280  0.00  0.00    +0.005 A 
ATOM     17  C   UNL     1      10.407  -7.735  -2.794  0.00  0.00    +0.000 A 
ATOM     18  C   UNL     1       9.486  -8.447  -2.050  0.00  0.00    +0.000 A 
ATOM     19  C   UNL     1       8.240  -7.906  -1.791  0.00  0.00    +0.000 A 
ATOM     20  C   UNL     1       7.918  -6.651  -2.272  0.00  0.00    +0.005 A 
ENDBRANCH  14  15
ENDBRANCH  12  14
ENDBRANCH   1   3
BRANCH   1  26
ATOM     21  C   UNL     1       2.964  -2.015   2.227  0.00  0.00    +0.008 A 
ATOM     22  C   UNL     1       3.533  -1.173   3.097  0.00  0.00    +0.067 A 
ATOM     23  S   UNL     1       5.193  -1.046   2.457  0.00  0.00    -0.061 S 
ATOM     24  C   UNL     1       5.035  -2.073   1.135  0.00  0.00    +0.163 A 
ATOM     25  N   UNL     1       3.741  -2.486   1.215  0.00  0.00    -0.341 N 
ATOM     26  N   UNL     1       5.955  -2.405   0.231  0.00  0.00    -0.151 NA
ATOM     27  H   UNL     1       3.378  -3.102   0.560  0.00  0.00    +0.167 HD
BRANCH  21  28
ATOM     28  C   UNL     1       1.522  -2.431   2.368  0.00  0.00    -0.024 C 
BRANCH  28  34
ATOM     29  C   UNL     1       0.012   1.590   0.018  0.00  0.00    +0.005 C 
ATOM     30  C   UNL     1       0.019   0.060  -0.004  0.00  0.00    -0.031 C 
ATOM     31  C   UNL     1      -1.421  -0.459   0.000  0.00  0.00    +0.003 C 
ATOM     32  C   UNL     1      -1.402  -1.989   0.058  0.00  0.00    -0.031 C 
ATOM     33  C   UNL     1      -0.621  -2.438   1.294  0.00  0.00    -0.075 C 
ATOM     34  N   UNL     1       0.755  -1.933   1.218  0.00  0.00    +0.384 N 
ATOM     35  C   UNL     1       0.749  -0.465   1.235  0.00  0.00    -0.075 C 
ATOM     36  C   UNL     1      -2.837  -2.515   0.140  0.00  0.00    +0.005 C 
ATOM     37  H   UNL     1       1.184  -2.256   0.364  0.00  0.00    -0.081 HD
ENDBRANCH  28  34
ENDBRANCH  21  28
ENDBRANCH   1  26
TORSDOF 6
