REMARK  Name = ZINC59170607
REMARK  6 active torsions:
REMARK  status: ('A' for Active; 'I' for Inactive)
REMARK    1  A    between atoms: C_1  and  C_2
REMARK    2  A    between atoms: C_9  and  C_23
REMARK    3  A    between atoms: N_11  and  C_12
REMARK    4  A    between atoms: C_15  and  S_18
REMARK    5  A    between atoms: S_18  and  N_21
REMARK    6  A    between atoms: N_25  and  C_26
REMARK                            x       y       z     vdW  Elec       q    Type
REMARK                         _______ _______ _______ _____ _____    ______ ____
ROOT
ATOM      1  C   UNL     1      -1.285   1.237   0.056  0.00  0.00    +0.044 C 
ATOM      2  C   UNL     1      -0.805  -0.190  -0.003  0.00  0.00    -0.050 A 
ATOM      3  C   UNL     1      -0.087  -0.629  -1.105  0.00  0.00    +0.007 A 
ATOM      4  C   UNL     1       0.361  -1.933  -1.180  0.00  0.00    +0.047 A 
ATOM      5  C   UNL     1       0.092  -2.814  -0.143  0.00  0.00    +0.137 A 
ATOM      6  C   UNL     1      -0.633  -2.366   0.977  0.00  0.00    +0.018 A 
ATOM      7  C   UNL     1      -1.075  -1.039   1.034  0.00  0.00    +0.015 A 
ATOM      8  C   UNL     1      -0.907  -3.296   2.075  0.00  0.00    +0.030 A 
ATOM      9  C   UNL     1      -0.208  -4.496   2.083  0.00  0.00    +0.098 A 
ATOM     10  C   UNL     1       0.748  -4.726   0.982  0.00  0.00    +0.212 A 
ATOM     11  N   UNL     1       1.789  -5.514   1.141  0.00  0.00    -0.325 N 
ATOM     12  O   UNL     1       0.520  -4.099  -0.200  0.00  0.00    -0.439 OA
ATOM     13  H   UNL     1       1.994  -5.875   2.018  0.00  0.00    +0.169 HD
ENDROOT
BRANCH  11  14
ATOM     14  C   UNL     1       2.582  -5.824   0.071  0.00  0.00    +0.042 A 
ATOM     15  C   UNL     1       2.005  -6.179  -1.151  0.00  0.00    +0.027 A 
ATOM     16  C   UNL     1       2.811  -6.490  -2.226  0.00  0.00    +0.030 A 
ATOM     17  C   UNL     1       4.188  -6.452  -2.096  0.00  0.00    +0.105 A 
ATOM     18  C   UNL     1       4.766  -6.102  -0.889  0.00  0.00    +0.030 A 
ATOM     19  C   UNL     1       3.973  -5.783   0.193  0.00  0.00    +0.027 A 
BRANCH  17  20
ATOM     20  S   UNL     1       5.210  -6.853  -3.475  0.00  0.00    +0.056 S 
ATOM     21  O   UNL     1       6.460  -7.272  -2.945  0.00  0.00    -0.153 OA
ATOM     22  O   UNL     1       4.431  -7.676  -4.332  0.00  0.00    -0.153 OA
BRANCH  20  23
ATOM     23  N   UNL     1       5.493  -5.445  -4.299  0.00  0.00    -0.204 NA
ATOM     24  H   UNL     1       5.111  -4.612  -3.982  0.00  0.00    +0.144 HD
ATOM     25  H   UNL     1       6.042  -5.453  -5.099  0.00  0.00    +0.144 HD
ENDBRANCH  20  23
ENDBRANCH  17  20
ENDBRANCH  11  14
BRANCH   9  26
ATOM     26  C   UNL     1      -0.412  -5.496   3.145  0.00  0.00    +0.253 C 
ATOM     27  O   UNL     1      -1.111  -5.231   4.104  0.00  0.00    -0.270 OA
ATOM     28  N   UNL     1       0.176  -6.705   3.054  0.00  0.00    -0.280 N 
ATOM     29  H   UNL     1       0.777  -6.898   2.317  0.00  0.00    +0.155 HD
BRANCH  28  30
ATOM     30  C   UNL     1      -0.080  -7.683   4.021  0.00  0.00    +0.054 A 
ATOM     31  C   UNL     1      -0.413  -7.309   5.317  0.00  0.00    +0.025 A 
ATOM     32  C   UNL     1      -0.666  -8.275   6.270  0.00  0.00    +0.003 A 
ATOM     33  C   UNL     1      -0.587  -9.615   5.938  0.00  0.00    +0.021 A 
ATOM     34  C   UNL     1      -0.255  -9.993   4.648  0.00  0.00    +0.061 A 
ATOM     35  C   UNL     1      -0.007  -9.029   3.687  0.00  0.00    +0.080 A 
ATOM     36 CL   UNL     1       0.402  -9.502   2.067  0.00  0.00    -0.080 Cl
ATOM     37 CL   UNL     1      -0.157 -11.676   4.235  0.00  0.00    -0.082 Cl
ENDBRANCH  28  30
ENDBRANCH   9  26
TORSDOF 5
