REMARK  Name = ZINC35548007
REMARK  10 active torsions:
REMARK  status: ('A' for Active; 'I' for Inactive)
REMARK    1  A    between atoms: C_1  and  C_2
REMARK    2  A    between atoms: C_2  and  C_3
REMARK    3  A    between atoms: N_7  and  C_27
REMARK    4  A    between atoms: C_11  and  N_16
REMARK    5  A    between atoms: N_16  and  S_17
REMARK    6  A    between atoms: S_17  and  C_20
REMARK    7  A    between atoms: C_27  and  C_28
REMARK    8  A    between atoms: C_28  and  C_29
REMARK    9  A    between atoms: C_29  and  O_30
REMARK   10  A    between atoms: O_30  and  C_31
REMARK                            x       y       z     vdW  Elec       q    Type
REMARK                         _______ _______ _______ _____ _____    ______ ____
ROOT
ATOM      1  C   UNL     1       0.665  -0.327  -1.148  0.00  0.00    +0.258 C 
ATOM      2  C   UNL     1       0.492  -1.815  -1.183  0.00  0.00    +0.257 C 
ATOM      3  O   UNL     1      -0.351  -2.186  -1.971  0.00  0.00    -0.272 OA
ATOM      4  N   UNL     1       1.053  -2.765  -0.553  0.00  0.00    -0.294 N 
ATOM      5  C   UNL     1       2.221  -2.837   0.259  0.00  0.00    +0.146 C 
ATOM      6  C   UNL     1       3.067  -1.612   0.425  0.00  0.00    +0.013 A 
ATOM      7  C   UNL     1       4.145  -1.809   1.303  0.00  0.00    +0.033 A 
ATOM      8  C   UNL     1       5.006  -0.780   1.627  0.00  0.00    +0.049 A 
ATOM      9  C   UNL     1       4.786   0.476   1.075  0.00  0.00    +0.028 A 
ATOM     10  C   UNL     1       3.744   0.652   0.203  0.00  0.00    +0.048 A 
ATOM     11  C   UNL     1       2.882  -0.412  -0.157  0.00  0.00    +0.126 A 
ATOM     12  O   UNL     1       2.037   0.013  -1.142  0.00  0.00    -0.479 OA
ENDROOT
BRANCH   1  14
ATOM     13  C   UNL     1       0.055   1.757   0.087  0.00  0.00    +0.008 C 
ATOM     14  C   UNL     1       0.003   0.228   0.114  0.00  0.00    +0.051 C 
ENDBRANCH   1  14
BRANCH   8  15
ATOM     15  N   UNL     1       6.080  -0.998   2.497  0.00  0.00    -0.216 N 
ATOM     16  H   UNL     1       5.943  -1.485   3.325  0.00  0.00    +0.174 HD
BRANCH  15  17
ATOM     17  S   UNL     1       7.585  -0.423   2.114  0.00  0.00    +0.072 S 
ATOM     18  O   UNL     1       7.428   0.956   1.811  0.00  0.00    -0.150 OA
ATOM     19  O   UNL     1       8.467  -0.885   3.129  0.00  0.00    -0.150 OA
BRANCH  17  20
ATOM     20  C   UNL     1       8.080  -1.214   0.619  0.00  0.00    +0.109 A 
ATOM     21  C   UNL     1       8.673  -2.462   0.661  0.00  0.00    +0.030 A 
ATOM     22  C   UNL     1       9.061  -3.083  -0.511  0.00  0.00    +0.022 A 
ATOM     23  C   UNL     1       8.856  -2.455  -1.727  0.00  0.00    +0.041 A 
ATOM     24  C   UNL     1       8.262  -1.206  -1.768  0.00  0.00    +0.022 A 
ATOM     25  C   UNL     1       7.870  -0.588  -0.595  0.00  0.00    +0.030 A 
ATOM     26 CL   UNL     1       9.344  -3.233  -3.200  0.00  0.00    -0.084 Cl
ENDBRANCH  17  20
ENDBRANCH  15  17
ENDBRANCH   8  15
BRANCH   4  27
ATOM     27  C   UNL     1       0.356  -4.047  -0.689  0.00  0.00    +0.110 C 
BRANCH  27  28
ATOM     28  C   UNL     1       0.905  -4.800  -1.903  0.00  0.00    +0.047 C 
BRANCH  28  29
ATOM     29  C   UNL     1       0.177  -6.138  -2.044  0.00  0.00    +0.161 C 
BRANCH  29  30
ATOM     30  O   UNL     1       0.690  -6.841  -3.178  0.00  0.00    -0.383 OA
ATOM     31  C   UNL     1       0.074  -8.111  -3.401  0.00  0.00    +0.193 C 
ENDBRANCH  29  30
ENDBRANCH  28  29
ENDBRANCH  27  28
ENDBRANCH   4  27
TORSDOF 8
