REMARK  Name = ZINC13065284
REMARK  12 active torsions:
REMARK  status: ('A' for Active; 'I' for Inactive)
REMARK    1  A    between atoms: C_1  and  C_2
REMARK    2  A    between atoms: C_2  and  C_3
REMARK    3  A    between atoms: C_3  and  C_5
REMARK    4  A    between atoms: C_3  and  N_72
REMARK    5  A    between atoms: N_9  and  C_10
REMARK    6  A    between atoms: C_10  and  C_11
REMARK    7  A    between atoms: C_11  and  C_12
REMARK    8  A    between atoms: C_18  and  C_19
REMARK    9  A    between atoms: C_18  and  N_72
REMARK   10  A    between atoms: C_22  and  C_32
REMARK   11  A    between atoms: C_25  and  C_31
REMARK   12  A    between atoms: C_33  and  N_72
REMARK                            x       y       z     vdW  Elec       q    Type
REMARK                         _______ _______ _______ _____ _____    ______ ____
ROOT
ATOM      1  N   UNL     1       1.798  -2.136  -1.282  0.00  0.00    +0.391 N 
ATOM      2  H   UNL     1       0.922  -1.725  -1.624  0.00  0.00    -0.080 HD
ENDROOT
BRANCH   1   3
ATOM      3  C   UNL     1       2.915  -1.651  -2.121  0.00  0.00    -0.067 C 
ATOM      4  C   UNL     1       2.789  -0.125  -2.305  0.00  0.00    -0.015 C 
ATOM      5  C   UNL     1       3.228   0.118  -3.771  0.00  0.00    -0.002 C 
ATOM      6  C   UNL     1       2.634  -1.105  -4.514  0.00  0.00    -0.002 C 
ATOM      7  C   UNL     1       2.817  -2.274  -3.525  0.00  0.00    -0.015 C 
ENDBRANCH   1   3
BRANCH   1   8
ATOM      8  C   UNL     1       1.704  -3.609  -1.369  0.00  0.00    +0.003 C 
BRANCH   8   9
ATOM      9  C   UNL     1       2.944  -4.252  -0.803  0.00  0.00    +0.138 A 
ATOM     10  N   UNL     1       3.803  -3.704   0.022  0.00  0.00    -0.115 NA
ATOM     11  N   UNL     1       4.721  -4.572   0.274  0.00  0.00    -0.023 NA
ATOM     12  N   UNL     1       4.475  -5.656  -0.375  0.00  0.00    -0.044 NA
ATOM     13  N   UNL     1       3.387  -5.498  -1.051  0.00  0.00    -0.231 N 
BRANCH  13  14
ATOM     14  C   UNL     1       2.754  -6.490  -1.924  0.00  0.00    +0.152 C 
BRANCH  14  15
ATOM     15  C   UNL     1       3.162  -6.227  -3.375  0.00  0.00    +0.058 C 
BRANCH  15  16
ATOM     16  C   UNL     1       2.531  -7.263  -4.269  0.00  0.00    -0.046 A 
ATOM     17  C   UNL     1       3.202  -8.441  -4.543  0.00  0.00    +0.004 A 
ATOM     18  C   UNL     1       2.621  -9.393  -5.359  0.00  0.00    +0.000 A 
ATOM     19  C   UNL     1       1.374  -9.163  -5.911  0.00  0.00    +0.000 A 
ATOM     20  C   UNL     1       0.707  -7.983  -5.642  0.00  0.00    +0.000 A 
ATOM     21  C   UNL     1       1.285  -7.033  -4.821  0.00  0.00    +0.004 A 
ENDBRANCH  15  16
ENDBRANCH  14  15
ENDBRANCH  13  14
ENDBRANCH   8   9
BRANCH   8  23
ATOM     22  C   UNL     1      -0.778  -3.425  -1.154  0.00  0.00    +0.002 C 
ATOM     23  C   UNL     1       0.481  -4.074  -0.577  0.00  0.00    -0.011 C 
ENDBRANCH   8  23
ENDBRANCH   1   8
BRANCH   1  24
ATOM     24  C   UNL     1       2.006  -1.725   0.122  0.00  0.00    -0.036 C 
BRANCH  24  25
ATOM     25  C   UNL     1       1.612  -0.278   0.264  0.00  0.00    +0.001 A 
ATOM     26  C   UNL     1       0.300   0.064   0.308  0.00  0.00    +0.017 A 
ATOM     27  C   UNL     1      -0.050   1.479   0.446  0.00  0.00    +0.002 A 
ATOM     28  C   UNL     1      -1.385   1.892   0.502  0.00  0.00    -0.041 A 
ATOM     29  C   UNL     1      -1.678   3.221   0.626  0.00  0.00    +0.004 A 
ATOM     30  C   UNL     1      -0.662   4.164   0.708  0.00  0.00    +0.005 A 
ATOM     31  C   UNL     1       0.660   3.779   0.660  0.00  0.00    -0.026 A 
ATOM     32  C   UNL     1       0.983   2.432   0.529  0.00  0.00    +0.052 A 
ATOM     33  N   UNL     1       2.297   2.019   0.479  0.00  0.00    -0.322 N 
ATOM     34  H   UNL     1       3.008   2.677   0.536  0.00  0.00    +0.169 HD
ATOM     35  C   UNL     1       2.609   0.717   0.352  0.00  0.00    +0.251 A 
ATOM     36  O   UNL     1       3.782   0.388   0.310  0.00  0.00    -0.268 OA
ATOM     37  C   UNL     1       1.753   4.813   0.750  0.00  0.00    +0.046 C 
ATOM     38  C   UNL     1      -2.495   0.877   0.420  0.00  0.00    +0.044 C 
ENDBRANCH  24  25
ENDBRANCH   1  24
TORSDOF 9
