REMARK  Name = ZINC12476025
REMARK  7 active torsions:
REMARK  status: ('A' for Active; 'I' for Inactive)
REMARK    1  A    between atoms: C_1  and  C_2
REMARK    2  A    between atoms: C_2  and  O_3
REMARK    3  A    between atoms: O_3  and  C_4
REMARK    4  A    between atoms: C_7  and  C_10
REMARK    5  A    between atoms: C_24  and  C_25
REMARK    6  A    between atoms: C_24  and  N_55
REMARK    7  A    between atoms: N_28  and  C_30
REMARK                            x       y       z     vdW  Elec       q    Type
REMARK                         _______ _______ _______ _____ _____    ______ ____
ROOT
ATOM      1  C   UNL     1      -2.513   0.977   0.019  0.00  0.00    +0.011 C 
ATOM      2  C   UNL     1      -3.069   0.921   1.422  0.00  0.00    +0.011 A 
ATOM      3  C   UNL     1      -4.377   1.120   1.705  0.00  0.00    -0.022 A 
ATOM      4  C   UNL     1      -4.528   0.991   3.137  0.00  0.00    +0.003 A 
ATOM      5  C   UNL     1      -5.632   1.093   3.990  0.00  0.00    +0.010 A 
ATOM      6  C   UNL     1      -5.401   0.904   5.330  0.00  0.00    +0.001 A 
ATOM      7  C   UNL     1      -4.139   0.624   5.828  0.00  0.00    +0.002 A 
ATOM      8  C   UNL     1      -3.029   0.518   5.008  0.00  0.00    +0.026 A 
ATOM      9  C   UNL     1      -3.233   0.705   3.642  0.00  0.00    +0.047 A 
ATOM     10  N   UNL     1      -2.379   0.671   2.577  0.00  0.00    -0.359 N 
ATOM     11  H   UNL     1      -1.426   0.497   2.631  0.00  0.00    +0.166 HD
ATOM     12  C   UNL     1      -5.419   1.415   0.656  0.00  0.00    +0.019 C 
ATOM     13  C   UNL     1      -4.829   1.053  -0.714  0.00  0.00    -0.072 C 
ATOM     14  N   UNL     1      -3.496   1.684  -0.837  0.00  0.00    +0.391 N 
ATOM     15  H   UNL     1      -3.561   2.662  -0.531  0.00  0.00    -0.080 HD
ENDROOT
BRANCH   1  19
ATOM     16  C   UNL     1       1.155   3.169   0.008  0.00  0.00    +0.121 A 
ATOM     17  C   UNL     1       1.175   1.782   0.000  0.00  0.00    +0.046 A 
ATOM     18  C   UNL     1      -0.013   1.076   0.008  0.00  0.00    +0.006 A 
ATOM     19  C   UNL     1      -1.220   1.750   0.017  0.00  0.00    -0.055 A 
ATOM     20  C   UNL     1      -1.242   3.133   0.031  0.00  0.00    +0.006 A 
ATOM     21  C   UNL     1      -0.057   3.844   0.023  0.00  0.00    +0.046 A 
BRANCH  16  22
ATOM     22  O   UNL     1       2.322   3.866   0.000  0.00  0.00    -0.492 OA
BRANCH  22  24
ATOM     23  C   UNL     1       3.630   5.898  -0.002  0.00  0.00    +0.048 C 
ATOM     24  C   UNL     1       2.225   5.292   0.009  0.00  0.00    +0.225 C 
ENDBRANCH  22  24
ENDBRANCH  16  22
ENDBRANCH   1  19
BRANCH  14  25
ATOM     25  C   UNL     1      -3.052   1.651  -2.246  0.00  0.00    -0.039 C 
BRANCH  25  26
ATOM     26  C   UNL     1      -4.178   2.125  -3.129  0.00  0.00    -0.026 A 
ATOM     27  C   UNL     1      -4.431   3.450  -3.499  0.00  0.00    +0.136 A 
ATOM     28  N   UNL     1      -5.489   3.464  -4.269  0.00  0.00    -0.180 NA
ATOM     29  N   UNL     1      -5.943   2.146  -4.413  0.00  0.00    -0.274 N 
ATOM     30  C   UNL     1      -5.118   1.343  -3.708  0.00  0.00    +0.109 A 
ATOM     31  C   UNL     1      -7.104   1.715  -5.196  0.00  0.00    +0.172 C 
ENDBRANCH  25  26
ENDBRANCH  14  25
TORSDOF 5
