REMARK  Name = ZINC37311598
REMARK  2 active torsions:
REMARK  status: ('A' for Active; 'I' for Inactive)
REMARK    1  A    between atoms: C_3  and  O_22
REMARK    2  A    between atoms: C_6  and  C_7
REMARK                            x       y       z     vdW  Elec       q    Type
REMARK                         _______ _______ _______ _____ _____    ______ ____
ROOT
ATOM      1  C   UNL     1      -1.267  -0.762   0.011  0.00  0.00    +0.139 A 
ATOM      2  N   UNL     1      -1.368  -2.128   0.010  0.00  0.00    -0.338 N 
ATOM      3  H   UNL     1      -0.632  -2.760   0.003  0.00  0.00    +0.167 HD
ATOM      4  C   UNL     1      -2.716  -2.438   0.021  0.00  0.00    +0.070 A 
ATOM      5  C   UNL     1      -3.427  -3.631   0.026  0.00  0.00    +0.077 A 
ATOM      6  C   UNL     1      -4.808  -3.604   0.039  0.00  0.00    +0.164 A 
ATOM      7  C   UNL     1      -5.492  -2.390   0.045  0.00  0.00    +0.164 A 
ATOM      8  C   UNL     1      -4.801  -1.198   0.039  0.00  0.00    +0.079 A 
ATOM      9  C   UNL     1      -3.400  -1.210   0.027  0.00  0.00    +0.093 A 
ATOM     10  N   UNL     1      -2.464  -0.229   0.026  0.00  0.00    -0.228 NA
ATOM     11  O   UNL     1      -6.858  -2.387   0.059  0.00  0.00    -0.488 OA
ATOM     12  C   UNL     1      -7.496  -2.862  -1.127  0.00  0.00    +0.232 C 
ATOM     13  C   UNL     1      -7.613  -4.378  -1.107  0.00  0.00    +0.082 C 
ATOM     14  C   UNL     1      -6.256  -5.064  -1.139  0.00  0.00    +0.232 C 
ATOM     15  O   UNL     1      -5.513  -4.773   0.047  0.00  0.00    -0.488 OA
ENDROOT
BRANCH   1  21
ATOM     16  C   UNL     1      -0.017   1.392   0.010  0.00  0.00    +0.015 A 
ATOM     17  C   UNL     1       1.168   2.095   0.002  0.00  0.00    +0.046 A 
ATOM     18  C   UNL     1       2.380   1.417  -0.013  0.00  0.00    +0.117 A 
ATOM     19  C   UNL     1       2.403   0.029  -0.021  0.00  0.00    +0.046 A 
ATOM     20  C   UNL     1       1.222  -0.682  -0.013  0.00  0.00    +0.015 A 
ATOM     21  C   UNL     1       0.002  -0.004   0.002  0.00  0.00    +0.018 A 
BRANCH  18  22
ATOM     22  O   UNL     1       3.546   2.114  -0.021  0.00  0.00    -0.507 OA
ATOM     23  H   UNL     1       3.892   2.311   0.860  0.00  0.00    +0.292 HD
ENDBRANCH  18  22
ENDBRANCH   1  21
TORSDOF 2
