REMARK  Name = ZINC13813280
REMARK  4 active torsions:
REMARK  status: ('A' for Active; 'I' for Inactive)
REMARK    1  A    between atoms: C_1  and  C_2
REMARK    2  A    between atoms: C_2  and  C_16
REMARK    3  A    between atoms: C_16  and  N_17
REMARK    4  A    between atoms: C_20  and  N_23
REMARK                            x       y       z     vdW  Elec       q    Type
REMARK                         _______ _______ _______ _____ _____    ______ ____
ROOT
ATOM      1  N   UNL     1       2.062   0.112  -1.317  0.00  0.00    +0.382 N 
ATOM      2  C   UNL     1       2.905  -0.453  -0.255  0.00  0.00    -0.077 C 
ATOM      3  C   UNL     1       4.272   0.233  -0.265  0.00  0.00    +0.006 C 
ATOM      4  C   UNL     1       4.941   0.007  -1.624  0.00  0.00    +0.089 C 
ATOM      5  C   UNL     1       4.020   0.533  -2.729  0.00  0.00    +0.006 C 
ATOM      6  C   UNL     1       2.662  -0.164  -2.628  0.00  0.00    -0.077 C 
ATOM      7  H   UNL     1       1.985   1.109  -1.186  0.00  0.00    -0.082 HD
ENDROOT
BRANCH   4   8
ATOM      8  N   UNL     1       6.218   0.725  -1.667  0.00  0.00    -0.289 N 
ATOM      9  C   UNL     1       7.470   0.149  -1.867  0.00  0.00    +0.070 A 
ATOM     10  C   UNL     1       7.896  -1.155  -2.072  0.00  0.00    +0.028 A 
ATOM     11  C   UNL     1       9.241  -1.419  -2.243  0.00  0.00    +0.002 A 
ATOM     12  C   UNL     1      10.165  -0.389  -2.211  0.00  0.00    +0.002 A 
ATOM     13  C   UNL     1       9.750   0.913  -2.007  0.00  0.00    +0.028 A 
ATOM     14  C   UNL     1       8.402   1.188  -1.835  0.00  0.00    +0.067 A 
ATOM     15  N   UNL     1       7.687   2.363  -1.616  0.00  0.00    -0.306 N 
ATOM     16  H   UNL     1       8.065   3.253  -1.545  0.00  0.00    +0.170 HD
ATOM     17  C   UNL     1       6.380   2.054  -1.526  0.00  0.00    +0.328 A 
ATOM     18  O   UNL     1       5.481   2.853  -1.341  0.00  0.00    -0.247 OA
ENDBRANCH   4   8
BRANCH   1  19
ATOM     19  C   UNL     1       0.726  -0.494  -1.254  0.00  0.00    -0.037 C 
BRANCH  19  21
ATOM     20  C   UNL     1       0.071   1.475   0.134  0.00  0.00    +0.046 C 
ATOM     21  C   UNL     1       0.025  -0.051   0.032  0.00  0.00    +0.093 C 
ATOM     22  C   UNL     1      -1.408  -0.504  -0.004  0.00  0.00    +0.053 A 
ATOM     23  C   UNL     1      -2.517   0.202   0.270  0.00  0.00    +0.026 A 
ATOM     24  C   UNL     1      -3.621  -0.661   0.093  0.00  0.00    +0.020 A 
ATOM     25  C   UNL     1      -3.140  -1.867  -0.284  0.00  0.00    +0.091 A 
ATOM     26  N   UNL     1      -1.791  -1.775  -0.344  0.00  0.00    -0.317 N 
ATOM     27  C   UNL     1      -0.827  -2.740  -0.680  0.00  0.00    +0.052 A 
ATOM     28  C   UNL     1      -0.972  -3.581  -1.765  0.00  0.00    +0.026 A 
ATOM     29  C   UNL     1       0.040  -4.472  -2.077  0.00  0.00    +0.002 A 
ATOM     30  C   UNL     1       1.188  -4.512  -1.306  0.00  0.00    +0.000 A 
ATOM     31  C   UNL     1       1.323  -3.684  -0.206  0.00  0.00    +0.008 A 
ATOM     32  C   UNL     1       0.306  -2.813   0.126  0.00  0.00    +0.002 A 
ATOM     33  C   UNL     1       0.355  -1.999   1.385  0.00  0.00    +0.198 C 
ATOM     34  O   UNL     1       0.699  -0.624   1.163  0.00  0.00    -0.365 OA
ENDBRANCH  19  21
ENDBRANCH   1  19
TORSDOF 3
