REMARK  Name = ZINC35544529
REMARK  8 active torsions:
REMARK  status: ('A' for Active; 'I' for Inactive)
REMARK    1  A    between atoms: C_1  and  C_2
REMARK    2  A    between atoms: C_2  and  O_3
REMARK    3  A    between atoms: O_3  and  C_4
REMARK    4  A    between atoms: C_4  and  C_6
REMARK    5  A    between atoms: C_13  and  C_15
REMARK    6  A    between atoms: C_20  and  N_38
REMARK    7  A    between atoms: N_28  and  C_31
REMARK    8  A    between atoms: C_31  and  C_32
REMARK                            x       y       z     vdW  Elec       q    Type
REMARK                         _______ _______ _______ _____ _____    ______ ____
ROOT
ATOM      1  C   UNL     1       3.513  -5.920  -5.000  0.00  0.00    +0.098 C 
ATOM      2  C   UNL     1       4.053  -4.819  -5.889  0.00  0.00    +0.051 C 
ATOM      3  C   UNL     1       5.412  -4.356  -5.453  0.00  0.00    -0.023 A 
ATOM      4  C   UNL     1       5.804  -3.051  -5.691  0.00  0.00    +0.038 A 
ATOM      5  C   UNL     1       7.055  -2.618  -5.296  0.00  0.00    +0.127 A 
ATOM      6  C   UNL     1       7.921  -3.487  -4.659  0.00  0.00    +0.034 A 
ATOM      7  C   UNL     1       7.537  -4.791  -4.417  0.00  0.00    +0.025 A 
ATOM      8  C   UNL     1       6.278  -5.230  -4.812  0.00  0.00    +0.033 A 
ATOM      9  N   UNL     1       5.889  -6.539  -4.557  0.00  0.00    -0.329 N 
ATOM     10  C   UNL     1       4.512  -6.992  -4.661  0.00  0.00    +0.069 C 
ATOM     11  C   UNL     1       4.452  -8.169  -5.634  0.00  0.00    -0.055 C 
ATOM     12  N   UNL     1       5.393  -9.207  -5.187  0.00  0.00    +0.385 N 
ATOM     13  C   UNL     1       6.769  -8.698  -5.208  0.00  0.00    -0.059 C 
ATOM     14  C   UNL     1       6.907  -7.551  -4.206  0.00  0.00    +0.087 C 
ATOM     15  H   UNL     1       5.156  -9.488  -4.247  0.00  0.00    -0.081 HD
ENDROOT
BRANCH   1  22
ATOM     16  C   UNL     1      -0.397  -5.282  -4.590  0.00  0.00    +0.115 C 
ATOM     17  C   UNL     1      -1.014  -4.639  -3.346  0.00  0.00    +0.018 C 
ATOM     18  C   UNL     1      -0.107  -4.888  -2.139  0.00  0.00    +0.020 C 
ATOM     19  C   UNL     1       1.260  -4.242  -2.389  0.00  0.00    +0.108 C 
ATOM     20  N   UNL     1       1.795  -4.748  -3.660  0.00  0.00    -0.300 N 
ATOM     21  C   UNL     1       0.967  -4.642  -4.869  0.00  0.00    +0.122 C 
ATOM     22  C   UNL     1       3.024  -5.300  -3.717  0.00  0.00    +0.221 C 
ATOM     23  O   UNL     1       3.735  -5.297  -2.735  0.00  0.00    -0.275 OA
BRANCH  16  24
ATOM     24  C   UNL     1      -1.306  -5.064  -5.773  0.00  0.00    +0.312 C 
ATOM     25  O   UNL     1      -0.905  -4.461  -6.740  0.00  0.00    -0.250 OA
BRANCH  24  26
ATOM     26  O   UNL     1      -2.560  -5.541  -5.751  0.00  0.00    -0.465 OA
BRANCH  26  28
ATOM     27  C   UNL     1      -4.753  -5.911  -6.698  0.00  0.00    +0.048 C 
ATOM     28  C   UNL     1      -3.366  -5.298  -6.906  0.00  0.00    +0.229 C 
ENDBRANCH  26  28
ENDBRANCH  24  26
ENDBRANCH  16  24
ENDBRANCH   1  22
BRANCH   5  29
ATOM     29  N   UNL     1       7.468  -1.220  -5.553  0.00  0.00    +0.056 N 
ATOM     30  O   UNL     1       6.711  -0.459  -6.110  0.00  0.00    -0.126 OA
ATOM     31  O   UNL     1       8.562  -0.840  -5.208  0.00  0.00    -0.126 OA
ENDBRANCH   5  29
BRANCH  12  32
ATOM     32  C   UNL     1       5.292 -10.370  -6.079  0.00  0.00    -0.043 C 
BRANCH  32  33
ATOM     33  C   UNL     1       6.163 -11.482  -5.554  0.00  0.00    -0.064 A 
ATOM     34  C   UNL     1       7.483 -11.574  -5.954  0.00  0.00    +0.002 A 
ATOM     35  C   UNL     1       8.281 -12.595  -5.473  0.00  0.00    +0.000 A 
ATOM     36  C   UNL     1       7.760 -13.523  -4.592  0.00  0.00    +0.000 A 
ATOM     37  C   UNL     1       6.441 -13.431  -4.191  0.00  0.00    +0.000 A 
ATOM     38  C   UNL     1       5.643 -12.408  -4.669  0.00  0.00    +0.002 A 
ENDBRANCH  32  33
ENDBRANCH  12  32
TORSDOF 7
