REMARK  Name = ZINC08717990
REMARK  11 active torsions:
REMARK  status: ('A' for Active; 'I' for Inactive)
REMARK    1  A    between atoms: C_1  and  C_2
REMARK    2  A    between atoms: C_2  and  C_3
REMARK    3  A    between atoms: C_12  and  C_14
REMARK    4  A    between atoms: N_16  and  C_17
REMARK    5  A    between atoms: C_17  and  C_18
REMARK    6  A    between atoms: C_18  and  C_20
REMARK    7  A    between atoms: C_18  and  N_62
REMARK    8  A    between atoms: N_24  and  C_25
REMARK    9  A    between atoms: C_28  and  C_31
REMARK   10  A    between atoms: C_32  and  N_62
REMARK   11  A    between atoms: C_33  and  N_62
REMARK                            x       y       z     vdW  Elec       q    Type
REMARK                         _______ _______ _______ _____ _____    ______ ____
ROOT
ATOM      1  C   UNL     1      -3.011   1.768   3.274  0.00  0.00    +0.095 C 
ENDROOT
BRANCH   1   4
ATOM      2  C   UNL     1      -2.868   2.278   5.653  0.00  0.00    +0.279 C 
ATOM      3  O   UNL     1      -2.239   1.250   5.805  0.00  0.00    -0.267 OA
ATOM      4  N   UNL     1      -3.300   2.628   4.425  0.00  0.00    -0.310 N 
ATOM      5  H   UNL     1      -3.802   3.449   4.303  0.00  0.00    +0.149 HD
BRANCH   2  15
ATOM      6  C   UNL     1      -4.810   6.881   9.675  0.00  0.00    -0.047 A 
ATOM      7  C   UNL     1      -5.210   7.152   8.374  0.00  0.00    +0.007 A 
ATOM      8  C   UNL     1      -4.896   6.289   7.346  0.00  0.00    +0.047 A 
ATOM      9  C   UNL     1      -4.171   5.131   7.611  0.00  0.00    +0.139 A 
ATOM     10  C   UNL     1      -3.770   4.864   8.931  0.00  0.00    +0.064 A 
ATOM     11  C   UNL     1      -4.096   5.750   9.958  0.00  0.00    +0.019 A 
ATOM     12  C   UNL     1      -3.002   3.632   9.195  0.00  0.00    +0.193 A 
ATOM     13  O   UNL     1      -2.625   3.343  10.317  0.00  0.00    -0.287 OA
ATOM     14  C   UNL     1      -2.713   2.771   8.039  0.00  0.00    +0.103 A 
ATOM     15  C   UNL     1      -3.160   3.147   6.817  0.00  0.00    +0.193 A 
ATOM     16  O   UNL     1      -3.851   4.279   6.618  0.00  0.00    -0.450 OA
BRANCH   6  18
ATOM     17  C   UNL     1      -6.514   7.446  11.385  0.00  0.00    +0.009 C 
ATOM     18  C   UNL     1      -5.165   7.840  10.782  0.00  0.00    +0.032 C 
ENDBRANCH   6  18
ENDBRANCH   2  15
ENDBRANCH   1   4
BRANCH   1  19
ATOM     19  C   UNL     1      -3.748   2.300   2.043  0.00  0.00    -0.004 C 
BRANCH  19  20
ATOM     20  C   UNL     1      -3.325   1.517   0.827  0.00  0.00    +0.012 A 
ATOM     21  C   UNL     1      -3.852   0.345   0.418  0.00  0.00    +0.021 A 
ATOM     22  C   UNL     1      -3.166  -0.042  -0.751  0.00  0.00    +0.020 A 
ATOM     23  C   UNL     1      -2.249   0.910  -1.016  0.00  0.00    +0.091 A 
ATOM     24  N   UNL     1      -2.342   1.873  -0.052  0.00  0.00    -0.322 N 
BRANCH  24  25
ATOM     25  C   UNL     1      -1.556   3.031   0.025  0.00  0.00    +0.046 A 
ATOM     26  C   UNL     1      -0.174   2.941  -0.065  0.00  0.00    +0.026 A 
ATOM     27  C   UNL     1       0.598   4.085   0.006  0.00  0.00    +0.005 A 
ATOM     28  C   UNL     1      -0.005   5.318   0.172  0.00  0.00    -0.050 A 
ATOM     29  C   UNL     1      -1.382   5.410   0.268  0.00  0.00    +0.005 A 
ATOM     30  C   UNL     1      -2.158   4.270   0.198  0.00  0.00    +0.026 A 
ATOM     31  C   UNL     1       0.839   6.564   0.249  0.00  0.00    +0.044 C 
ENDBRANCH  24  25
ENDBRANCH  19  20
BRANCH  19  34
ATOM     32  C   UNL     1      -5.504   0.951   3.023  0.00  0.00    -0.096 C 
ATOM     33  C   UNL     1      -5.766   3.353   2.870  0.00  0.00    -0.096 C 
ATOM     34  N   UNL     1      -5.209   2.151   2.213  0.00  0.00    +0.383 N 
ATOM     35  H   UNL     1      -5.643   2.045   1.289  0.00  0.00    -0.082 HD
ENDBRANCH  19  34
ENDBRANCH   1  19
TORSDOF 7
