REMARK  Name = ZINC09309070
REMARK  9 active torsions:
REMARK  status: ('A' for Active; 'I' for Inactive)
REMARK    1  A    between atoms: C_1  and  C_2
REMARK    2  A    between atoms: C_2  and  O_3
REMARK    3  A    between atoms: O_3  and  C_4
REMARK    4  A    between atoms: C_7  and  C_10
REMARK    5  A    between atoms: C_12  and  C_22
REMARK    6  A    between atoms: N_14  and  C_16
REMARK    7  A    between atoms: C_23  and  C_24
REMARK    8  A    between atoms: C_25  and  C_38
REMARK    9  A    between atoms: C_25  and  C_39
REMARK                            x       y       z     vdW  Elec       q    Type
REMARK                         _______ _______ _______ _____ _____    ______ ____
ROOT
ATOM      1  C   UNL     1       1.109  -6.040  -1.847  0.00  0.00    +0.134 C 
ATOM      2  C   UNL     1       0.087  -6.534  -2.849  0.00  0.00    -0.009 C 
ATOM      3  C   UNL     1       0.778  -7.076  -3.860  0.00  0.00    +0.099 C 
ATOM      4  N   UNL     1       2.132  -6.996  -3.643  0.00  0.00    -0.242 N 
ATOM      5  N   UNL     1       2.411  -6.386  -2.451  0.00  0.00    -0.224 NA
ATOM      6  H   UNL     1       2.939  -6.997  -1.846  0.00  0.00    +0.146 HD
ENDROOT
BRANCH   1  10
ATOM      7  C   UNL     1       0.777  -1.810  -1.336  0.00  0.00    +0.121 A 
ATOM      8  C   UNL     1       0.243  -2.669  -0.386  0.00  0.00    +0.046 A 
ATOM      9  C   UNL     1       0.351  -4.036  -0.554  0.00  0.00    +0.009 A 
ATOM     10  C   UNL     1       0.992  -4.548  -1.667  0.00  0.00    -0.024 A 
ATOM     11  C   UNL     1       1.525  -3.694  -2.615  0.00  0.00    +0.009 A 
ATOM     12  C   UNL     1       1.414  -2.327  -2.455  0.00  0.00    +0.046 A 
BRANCH   7  13
ATOM     13  O   UNL     1       0.671  -0.465  -1.174  0.00  0.00    -0.492 OA
BRANCH  13  15
ATOM     14  C   UNL     1      -0.019   1.526   0.010  0.00  0.00    +0.048 C 
ATOM     15  C   UNL     1       0.002  -0.004   0.002  0.00  0.00    +0.225 C 
ENDBRANCH  13  15
ENDBRANCH   7  13
ENDBRANCH   1  10
BRANCH   4  16
ATOM     16  C   UNL     1       3.101  -7.477  -4.526  0.00  0.00    +0.049 A 
ATOM     17  C   UNL     1       4.449  -7.355  -4.214  0.00  0.00    +0.025 A 
ATOM     18  C   UNL     1       5.405  -7.833  -5.089  0.00  0.00    +0.002 A 
ATOM     19  C   UNL     1       5.021  -8.432  -6.275  0.00  0.00    +0.000 A 
ATOM     20  C   UNL     1       3.679  -8.555  -6.589  0.00  0.00    +0.002 A 
ATOM     21  C   UNL     1       2.719  -8.084  -5.716  0.00  0.00    +0.025 A 
ENDBRANCH   4  16
BRANCH   2  22
ATOM     22  C   UNL     1      -1.373  -6.439  -2.734  0.00  0.00    +0.006 C 
ATOM     23  C   UNL     1      -1.920  -5.870  -1.662  0.00  0.00    +0.019 C 
BRANCH  23  24
ATOM     24  C   UNL     1      -3.420  -5.772  -1.544  0.00  0.00    +0.130 C 
ATOM     25  C   UNL     1      -3.916  -6.577  -0.334  0.00  0.00    +0.034 C 
ATOM     26  C   UNL     1      -4.639  -7.746  -0.941  0.00  0.00    -0.017 A 
ATOM     27  C   UNL     1      -5.211  -8.841  -0.320  0.00  0.00    +0.006 A 
ATOM     28  C   UNL     1      -5.811  -9.791  -1.136  0.00  0.00    +0.000 A 
ATOM     29  C   UNL     1      -5.833  -9.649  -2.509  0.00  0.00    +0.002 A 
ATOM     30  C   UNL     1      -5.266  -8.554  -3.140  0.00  0.00    +0.023 A 
ATOM     31  C   UNL     1      -4.665  -7.585  -2.330  0.00  0.00    +0.035 A 
ATOM     32  N   UNL     1      -4.072  -6.401  -2.709  0.00  0.00    -0.304 N 
ATOM     33  C   UNL     1      -4.093  -5.740  -4.024  0.00  0.00    +0.117 C 
ATOM     34  C   UNL     1      -4.796  -4.390  -3.827  0.00  0.00    +0.115 C 
ATOM     35  C   UNL     1      -4.395  -3.754  -2.532  0.00  0.00    +0.216 C 
ATOM     36  O   UNL     1      -4.581  -2.560  -2.424  0.00  0.00    -0.276 OA
ATOM     37  N   UNL     1      -3.837  -4.376  -1.498  0.00  0.00    -0.290 N 
ATOM     38  C   UNL     1      -2.734  -7.057   0.511  0.00  0.00    +0.020 C 
ATOM     39  C   UNL     1      -4.873  -5.735   0.512  0.00  0.00    +0.020 C 
ATOM     40  H   UNL     1      -3.725  -3.883  -0.670  0.00  0.00    +0.151 HD
ENDBRANCH  23  24
ENDBRANCH   2  22
TORSDOF 6
