REMARK  Name = ZINC34699018
REMARK  7 active torsions:
REMARK  status: ('A' for Active; 'I' for Inactive)
REMARK    1  A    between atoms: C_4  and  C_7
REMARK    2  A    between atoms: N_10  and  C_30
REMARK    3  A    between atoms: C_12  and  C_14
REMARK    4  A    between atoms: C_14  and  N_15
REMARK    5  A    between atoms: N_15  and  C_16
REMARK    6  A    between atoms: C_22  and  C_24
REMARK    7  A    between atoms: C_30  and  C_31
REMARK                            x       y       z     vdW  Elec       q    Type
REMARK                         _______ _______ _______ _____ _____    ______ ____
ROOT
ATOM      1  C   UNL     1       5.613  -3.751   0.755  0.00  0.00    +0.005 C 
ATOM      2  C   UNL     1       5.260  -5.160   0.231  0.00  0.00    -0.070 C 
ATOM      3  N   UNL     1       4.919  -5.938   1.450  0.00  0.00    +0.384 N 
ATOM      4  C   UNL     1       4.155  -4.981   2.292  0.00  0.00    -0.073 C 
ATOM      5  C   UNL     1       4.888  -3.632   2.111  0.00  0.00    -0.005 C 
ATOM      6  H   UNL     1       5.758  -6.234   1.926  0.00  0.00    -0.081 HD
ENDROOT
BRANCH   1  10
ATOM      7  C   UNL     1       4.199  -0.765  -1.953  0.00  0.00    +0.000 A 
ATOM      8  C   UNL     1       5.274  -0.496  -1.127  0.00  0.00    +0.000 A 
ATOM      9  C   UNL     1       5.732  -1.462  -0.251  0.00  0.00    +0.004 A 
ATOM     10  C   UNL     1       5.114  -2.698  -0.200  0.00  0.00    -0.046 A 
ATOM     11  C   UNL     1       4.038  -2.967  -1.026  0.00  0.00    +0.004 A 
ATOM     12  C   UNL     1       3.582  -2.001  -1.903  0.00  0.00    +0.000 A 
ENDBRANCH   1  10
BRANCH   5  13
ATOM     13  C   UNL     1       3.882  -2.480   2.076  0.00  0.00    +0.110 C 
BRANCH  13  14
ATOM     14  N   UNL     1       3.241  -2.352   3.387  0.00  0.00    -0.294 N 
ATOM     15  C   UNL     1       2.109  -3.034   3.654  0.00  0.00    +0.247 C 
ATOM     16  O   UNL     1       1.234  -3.111   2.813  0.00  0.00    -0.270 OA
BRANCH  14  17
ATOM     17  C   UNL     1       3.830  -1.482   4.409  0.00  0.00    +0.076 C 
ATOM     18  C   UNL     1       4.787  -2.297   5.282  0.00  0.00    +0.022 C 
ATOM     19  C   UNL     1       5.401  -1.389   6.349  0.00  0.00    +0.002 C 
ATOM     20  C   UNL     1       4.290  -0.802   7.221  0.00  0.00    +0.000 C 
ATOM     21  C   UNL     1       3.333   0.013   6.348  0.00  0.00    +0.002 C 
ATOM     22  C   UNL     1       2.718  -0.895   5.281  0.00  0.00    +0.022 C 
ENDBRANCH  14  17
BRANCH  15  23
ATOM     23  C   UNL     1       1.932  -3.688   4.967  0.00  0.00    +0.037 A 
ATOM     24  C   UNL     1       2.558  -3.166   6.101  0.00  0.00    +0.013 A 
ATOM     25  C   UNL     1       2.388  -3.781   7.324  0.00  0.00    +0.001 A 
ATOM     26  C   UNL     1       1.600  -4.913   7.428  0.00  0.00    +0.000 A 
ATOM     27  C   UNL     1       0.977  -5.436   6.309  0.00  0.00    +0.001 A 
ATOM     28  C   UNL     1       1.134  -4.827   5.081  0.00  0.00    +0.013 A 
ENDBRANCH  15  23
ENDBRANCH  13  14
ENDBRANCH   5  13
BRANCH   3  29
ATOM     29  C   UNL     1       4.085  -7.096   1.104  0.00  0.00    -0.025 C 
BRANCH  29  30
ATOM     30  C   UNL     1       4.889  -8.065   0.276  0.00  0.00    -0.001 A 
ATOM     31  C   UNL     1       4.915  -8.122  -1.071  0.00  0.00    +0.020 A 
ATOM     32  C   UNL     1       5.791  -9.165  -1.432  0.00  0.00    +0.019 A 
ATOM     33  C   UNL     1       6.266  -9.706  -0.291  0.00  0.00    +0.082 A 
ATOM     34  N   UNL     1       5.721  -9.031   0.760  0.00  0.00    -0.366 N 
ATOM     35  H   UNL     1       5.894  -9.210   1.698  0.00  0.00    +0.165 HD
ENDBRANCH  29  30
ENDBRANCH   3  29
TORSDOF 7
