REMARK  Name = ZINC37929857
REMARK  3 active torsions:
REMARK  status: ('A' for Active; 'I' for Inactive)
REMARK    1  A    between atoms: C_3  and  N_23
REMARK    2  A    between atoms: C_4  and  S_8
REMARK    3  A    between atoms: S_8  and  N_11
REMARK                            x       y       z     vdW  Elec       q    Type
REMARK                         _______ _______ _______ _____ _____    ______ ____
ROOT
ATOM      1  S   UNL     1       3.991  -0.826  -0.096  0.00  0.00    +0.063 S 
ATOM      2  O   UNL     1       2.907  -1.718  -0.318  0.00  0.00    -0.153 OA
ATOM      3  O   UNL     1       3.807   0.480   0.431  0.00  0.00    -0.153 OA
ENDROOT
BRANCH   1   4
ATOM      4  N   UNL     1       4.759  -0.644  -1.552  0.00  0.00    -0.173 NA
ATOM      5  C   UNL     1       4.386  -1.469  -2.712  0.00  0.00    +0.110 C 
ATOM      6  C   UNL     1       5.640  -2.147  -3.270  0.00  0.00    +0.017 C 
ATOM      7  C   UNL     1       6.711  -1.091  -3.560  0.00  0.00    +0.006 C 
ATOM      8  C   UNL     1       7.073  -0.373  -2.261  0.00  0.00    +0.008 C 
ATOM      9  C   UNL     1       5.827   0.347  -1.722  0.00  0.00    +0.083 C 
ATOM     10  C   UNL     1       6.166   1.005  -0.386  0.00  0.00    +0.021 C 
ATOM     11  C   UNL     1       7.277   2.036  -0.606  0.00  0.00    +0.002 C 
ATOM     12  C   UNL     1       8.518   1.349  -1.176  0.00  0.00    +0.000 C 
ATOM     13  C   UNL     1       8.171   0.661  -2.504  0.00  0.00    +0.005 C 
ENDBRANCH   1   4
BRANCH   1  17
ATOM     14  C   UNL     1       6.872  -2.952   2.682  0.00  0.00    +0.017 A 
ATOM     15  C   UNL     1       6.392  -3.603   1.563  0.00  0.00    +0.026 A 
ATOM     16  C   UNL     1       5.509  -2.955   0.709  0.00  0.00    +0.051 A 
ATOM     17  C   UNL     1       5.111  -1.653   0.984  0.00  0.00    +0.127 A 
ATOM     18  C   UNL     1       5.594  -1.006   2.105  0.00  0.00    +0.045 A 
ATOM     19  C   UNL     1       6.474  -1.655   2.953  0.00  0.00    +0.020 A 
ATOM     20 BR   UNL     1       7.133  -0.766   4.487  0.00  0.00    -0.050 Br
BRANCH  16  21
ATOM     21  N   UNL     1       5.022  -3.611  -0.424  0.00  0.00    -0.356 N 
ATOM     22  H   UNL     1       5.373  -4.481  -0.669  0.00  0.00    +0.142 HD
ATOM     23  H   UNL     1       4.332  -3.196  -0.966  0.00  0.00    +0.142 HD
ENDBRANCH  16  21
ENDBRANCH   1  17
TORSDOF 3
