REMARK  Name = ZINC17183178
REMARK  12 active torsions:
REMARK  status: ('A' for Active; 'I' for Inactive)
REMARK    1  A    between atoms: C_1  and  C_2
REMARK    2  A    between atoms: N_11  and  S_12
REMARK    3  A    between atoms: S_12  and  C_15
REMARK    4  A    between atoms: C_19  and  C_21
REMARK    5  A    between atoms: C_21  and  O_23
REMARK    6  A    between atoms: O_23  and  C_24
REMARK    7  A    between atoms: C_24  and  C_25
REMARK    8  A    between atoms: N_27  and  C_28
REMARK    9  A    between atoms: C_30  and  C_33
REMARK   10  A    between atoms: C_33  and  C_34
REMARK   11  A    between atoms: C_33  and  C_35
REMARK   12  A    between atoms: C_33  and  C_36
REMARK                            x       y       z     vdW  Elec       q    Type
REMARK                         _______ _______ _______ _____ _____    ______ ____
ROOT
ATOM      1  C   UNL     1      -0.954   1.915  -1.397  0.00  0.00    +0.110 A 
ATOM      2  C   UNL     1      -0.757   3.170  -1.948  0.00  0.00    +0.029 A 
ATOM      3  C   UNL     1      -1.489   3.569  -3.052  0.00  0.00    +0.003 A 
ATOM      4  C   UNL     1      -2.419   2.719  -3.612  0.00  0.00    +0.015 A 
ATOM      5  C   UNL     1      -2.622   1.452  -3.061  0.00  0.00    +0.061 A 
ATOM      6  C   UNL     1      -1.877   1.053  -1.950  0.00  0.00    +0.043 A 
ENDROOT
BRANCH   1   7
ATOM      7  S   UNL     1      -0.017   1.417   0.010  0.00  0.00    +0.075 S 
ATOM      8  O   UNL     1       0.002  -0.004   0.002  0.00  0.00    -0.150 OA
ATOM      9  O   UNL     1       1.172   2.195   0.003  0.00  0.00    -0.150 OA
BRANCH   7  19
ATOM     10  C   UNL     1       0.690   3.336   2.560  0.00  0.00    +0.030 C 
ATOM     11  C   UNL     1      -0.737   3.160   2.038  0.00  0.00    +0.099 C 
ATOM     12  C   UNL     1      -1.733   3.100   3.208  0.00  0.00    +0.061 C 
ATOM     13  C   UNL     1      -2.368   1.732   3.096  0.00  0.00    -0.023 A 
ATOM     14  C   UNL     1      -3.330   1.114   3.872  0.00  0.00    +0.005 A 
ATOM     15  C   UNL     1      -3.756  -0.164   3.562  0.00  0.00    +0.000 A 
ATOM     16  C   UNL     1      -3.217  -0.823   2.472  0.00  0.00    +0.002 A 
ATOM     17  C   UNL     1      -2.257  -0.211   1.695  0.00  0.00    +0.025 A 
ATOM     18  C   UNL     1      -1.822   1.080   2.002  0.00  0.00    +0.055 A 
ATOM     19  N   UNL     1      -0.872   1.871   1.353  0.00  0.00    -0.200 N 
ENDBRANCH   7  19
ENDBRANCH   1   7
BRANCH   5  20
ATOM     20  C   UNL     1      -3.617   0.535  -3.656  0.00  0.00    +0.340 C 
ATOM     21  O   UNL     1      -3.791  -0.566  -3.174  0.00  0.00    -0.245 OA
BRANCH  20  22
ATOM     22  O   UNL     1      -4.330   0.921  -4.731  0.00  0.00    -0.452 OA
BRANCH  22  23
ATOM     23  C   UNL     1      -5.289  -0.031  -5.262  0.00  0.00    +0.328 C 
BRANCH  23  24
ATOM     24  C   UNL     1      -5.987   0.571  -6.455  0.00  0.00    +0.257 C 
ATOM     25  O   UNL     1      -5.704   1.692  -6.821  0.00  0.00    -0.272 OA
ATOM     26  N   UNL     1      -6.926  -0.137  -7.114  0.00  0.00    -0.251 N 
ATOM     27  H   UNL     1      -7.152  -1.033  -6.821  0.00  0.00    +0.158 HD
BRANCH  26  28
ATOM     28  C   UNL     1      -7.569   0.418  -8.211  0.00  0.00    +0.224 A 
ATOM     29  C   UNL     1      -8.534  -0.169  -8.978  0.00  0.00    +0.092 A 
ATOM     30  C   UNL     1      -8.841   0.810  -9.945  0.00  0.00    +0.091 A 
ATOM     31  N   UNL     1      -8.078   1.835  -9.689  0.00  0.00    -0.081 NA
ATOM     32  O   UNL     1      -7.369   1.640  -8.729  0.00  0.00    -0.339 OA
BRANCH  30  33
ATOM     33  C   UNL     1      -9.852   0.694 -11.056  0.00  0.00    +0.008 C 
ATOM     34  C   UNL     1     -11.262   0.831 -10.479  0.00  0.00    +0.017 C 
ATOM     35  C   UNL     1      -9.611   1.802 -12.083  0.00  0.00    +0.017 C 
ATOM     36  C   UNL     1      -9.710  -0.670 -11.735  0.00  0.00    +0.017 C 
ENDBRANCH  30  33
ENDBRANCH  26  28
ENDBRANCH  23  24
ENDBRANCH  22  23
ENDBRANCH  20  22
ENDBRANCH   5  20
TORSDOF 8
