REMARK  Name = ZINC39000231
REMARK  8 active torsions:
REMARK  status: ('A' for Active; 'I' for Inactive)
REMARK    1  A    between atoms: C_1  and  C_2
REMARK    2  A    between atoms: C_5  and  O_35
REMARK    3  A    between atoms: C_6  and  C_8
REMARK    4  A    between atoms: C_11  and  C_13
REMARK    5  A    between atoms: N_15  and  C_16
REMARK    6  A    between atoms: C_18  and  C_26
REMARK    7  A    between atoms: N_28  and  C_29
REMARK    8  A    between atoms: C_29  and  C_30
REMARK                            x       y       z     vdW  Elec       q    Type
REMARK                         _______ _______ _______ _____ _____    ______ ____
ROOT
ATOM      1  C   UNL     1       0.584  -3.754   6.147  0.00  0.00    +0.261 C 
ATOM      2  O   UNL     1       1.025  -2.841   6.819  0.00  0.00    -0.269 OA
ATOM      3  N   UNL     1       0.099  -4.860   6.746  0.00  0.00    -0.297 N 
ATOM      4  H   UNL     1      -0.253  -5.587   6.210  0.00  0.00    +0.150 HD
ENDROOT
BRANCH   3   5
ATOM      5  C   UNL     1       0.104  -4.962   8.207  0.00  0.00    +0.152 C 
ATOM      6  C   UNL     1      -1.052  -5.853   8.718  0.00  0.00    +0.132 C 
ATOM      7  C   UNL     1      -1.643  -5.314  10.007  0.00  0.00    -0.046 C 
ATOM      8  C   UNL     1      -1.413  -4.047  10.301  0.00  0.00    -0.013 C 
ATOM      9  S   UNL     1      -0.395  -3.377   8.998  0.00  0.00    -0.106 S 
ATOM     10  C   UNL     1      -2.073  -3.630  11.594  0.00  0.00    +0.042 C 
ATOM     11  C   UNL     1      -3.117  -4.733  11.870  0.00  0.00    +0.009 C 
ATOM     12  C   UNL     1      -2.497  -5.929  11.122  0.00  0.00    +0.033 C 
BRANCH   6  13
ATOM     13  C   UNL     1      -2.132  -5.907   7.668  0.00  0.00    +0.223 C 
ATOM     14  O   UNL     1      -2.975  -5.037   7.620  0.00  0.00    -0.275 OA
ATOM     15  N   UNL     1      -2.161  -6.923   6.783  0.00  0.00    -0.308 N 
ATOM     16  H   UNL     1      -1.531  -7.657   6.866  0.00  0.00    +0.149 HD
BRANCH  15  17
ATOM     17  C   UNL     1      -3.143  -6.920   5.696  0.00  0.00    +0.178 C 
BRANCH  17  18
ATOM     18  C   UNL     1      -2.965  -8.158   4.855  0.00  0.00    +0.122 A 
ATOM     19  C   UNL     1      -3.583  -9.337   5.050  0.00  0.00    +0.046 A 
ATOM     20  C   UNL     1      -3.126 -10.211   4.037  0.00  0.00    +0.041 A 
ATOM     21  C   UNL     1      -2.256  -9.514   3.284  0.00  0.00    +0.195 A 
ATOM     22  O   UNL     1      -2.167  -8.269   3.780  0.00  0.00    -0.466 OA
ENDBRANCH  17  18
ENDBRANCH  15  17
ENDBRANCH   6  13
ENDBRANCH   3   5
BRANCH   1  26
ATOM     23  C   UNL     1       0.798  -3.001   2.432  0.00  0.00    +0.080 C 
ATOM     24  N   UNL     1       0.260  -4.188   2.604  0.00  0.00    -0.153 NA
ATOM     25  N   UNL     1       0.144  -4.536   3.826  0.00  0.00    -0.148 NA
ATOM     26  C   UNL     1       0.579  -3.651   4.684  0.00  0.00    +0.131 C 
ATOM     27  C   UNL     1       1.086  -2.497   3.836  0.00  0.00    +0.120 C 
BRANCH  23  33
ATOM     28  C   UNL     1       2.537   0.957  -0.041  0.00  0.00    +0.044 C 
ATOM     29  C   UNL     1       1.904  -0.411  -0.036  0.00  0.00    -0.050 A 
ATOM     30  C   UNL     1       1.574  -1.022  -1.236  0.00  0.00    +0.007 A 
ATOM     31  C   UNL     1       0.993  -2.275  -1.248  0.00  0.00    +0.046 A 
ATOM     32  C   UNL     1       0.734  -2.933  -0.056  0.00  0.00    +0.126 A 
ATOM     33  C   UNL     1       1.066  -2.318   1.165  0.00  0.00    +0.040 A 
ATOM     34  C   UNL     1       1.660  -1.048   1.159  0.00  0.00    +0.016 A 
BRANCH  32  35
ATOM     35  O   UNL     1       0.163  -4.163  -0.067  0.00  0.00    -0.506 OA
ATOM     36  H   UNL     1       0.798  -4.891  -0.101  0.00  0.00    +0.292 HD
ENDBRANCH  32  35
ENDBRANCH  23  33
ENDBRANCH   1  26
TORSDOF 7
