REMARK  Name = ZINC64392361
REMARK  11 active torsions:
REMARK  status: ('A' for Active; 'I' for Inactive)
REMARK    1  A    between atoms: C_1  and  C_2
REMARK    2  A    between atoms: C_5  and  C_9
REMARK    3  A    between atoms: C_7  and  C_8
REMARK    4  A    between atoms: C_11  and  C_14
REMARK    5  A    between atoms: C_14  and  S_15
REMARK    6  A    between atoms: S_15  and  C_16
REMARK    7  A    between atoms: C_26  and  C_28
REMARK    8  A    between atoms: C_31  and  O_36
REMARK    9  A    between atoms: C_32  and  O_34
REMARK   10  A    between atoms: O_34  and  C_35
REMARK   11  A    between atoms: O_36  and  C_37
REMARK                            x       y       z     vdW  Elec       q    Type
REMARK                         _______ _______ _______ _____ _____    ______ ____
ROOT
ATOM      1  C   UNL     1       1.660  -9.319  -3.235  0.00  0.00    +0.272 C 
ATOM      2  N   UNL     1       0.892  -8.921  -4.428  0.00  0.00    -0.163 NA
ATOM      3  N   UNL     1       0.117  -9.676  -5.021  0.00  0.00    -0.081 NA
ATOM      4  C   UNL     1      -0.090 -10.970  -4.668  0.00  0.00    +0.276 C 
ATOM      5  O   UNL     1      -0.935 -11.649  -5.201  0.00  0.00    -0.270 OA
ATOM      6  C   UNL     1       0.789 -11.510  -3.581  0.00  0.00    +0.193 C 
ATOM      7  N   UNL     1       0.927 -10.390  -2.595  0.00  0.00    -0.178 NA
ATOM      8  N   UNL     1       1.399 -11.058  -1.518  0.00  0.00    -0.274 N 
ATOM      9  C   UNL     1       0.613 -12.232  -1.448  0.00  0.00    +0.047 C 
ATOM     10  C   UNL     1       0.195 -12.579  -2.705  0.00  0.00    +0.027 C 
ATOM     11  H   UNL     1       2.119 -10.791  -0.924  0.00  0.00    +0.167 HD
ENDROOT
BRANCH   9  12
ATOM     12  C   UNL     1       0.299 -12.980  -0.209  0.00  0.00    +0.000 A 
ATOM     13  C   UNL     1      -0.485 -14.132  -0.267  0.00  0.00    +0.013 A 
ATOM     14  C   UNL     1      -0.777 -14.827   0.888  0.00  0.00    +0.050 A 
ATOM     15  C   UNL     1      -0.293 -14.383   2.109  0.00  0.00    +0.162 A 
ATOM     16  C   UNL     1       0.491 -13.234   2.174  0.00  0.00    +0.162 A 
ATOM     17  C   UNL     1       0.791 -12.536   1.018  0.00  0.00    +0.059 A 
BRANCH  16  18
ATOM     18  O   UNL     1       0.964 -12.800   3.373  0.00  0.00    -0.491 OA
ATOM     19  C   UNL     1       1.761 -11.614   3.365  0.00  0.00    +0.277 C 
ENDBRANCH  16  18
BRANCH  15  20
ATOM     20  O   UNL     1      -0.583 -15.072   3.245  0.00  0.00    -0.491 OA
ATOM     21  C   UNL     1      -1.391 -16.242   3.106  0.00  0.00    +0.277 C 
ENDBRANCH  15  20
ENDBRANCH   9  12
BRANCH   1  22
ATOM     22  S   UNL     1       1.816  -7.911  -2.102  0.00  0.00    -0.106 S 
BRANCH  22  23
ATOM     23  C   UNL     1       0.100  -7.463  -1.720  0.00  0.00    +0.171 C 
BRANCH  23  26
ATOM     24  C   UNL     1       0.058  -4.256  -0.021  0.00  0.00    +0.202 A 
ATOM     25  N   UNL     1       0.068  -5.035  -1.118  0.00  0.00    -0.191 NA
ATOM     26  C   UNL     1       0.085  -6.291  -0.774  0.00  0.00    +0.238 A 
ATOM     27  O   UNL     1       0.087  -6.364   0.564  0.00  0.00    -0.337 OA
ATOM     28  N   UNL     1       0.074  -5.026   1.038  0.00  0.00    -0.056 NA
BRANCH  24  33
ATOM     29  C   UNL     1      -0.018   1.503   0.010  0.00  0.00    +0.044 C 
ATOM     30  C   UNL     1       0.002  -0.004   0.002  0.00  0.00    -0.047 A 
ATOM     31  C   UNL     1       0.006  -0.687  -1.201  0.00  0.00    +0.004 A 
ATOM     32  C   UNL     1       0.024  -2.067  -1.215  0.00  0.00    +0.012 A 
ATOM     33  C   UNL     1       0.039  -2.772  -0.013  0.00  0.00    +0.023 A 
ATOM     34  C   UNL     1       0.036  -2.080   1.196  0.00  0.00    +0.015 A 
ATOM     35  C   UNL     1       0.023  -0.699   1.197  0.00  0.00    -0.047 A 
ATOM     36  C   UNL     1       0.025   0.051   2.504  0.00  0.00    +0.044 C 
ENDBRANCH  24  33
ENDBRANCH  23  26
ENDBRANCH  22  23
ENDBRANCH   1  22
TORSDOF 7
