REMARK  Name = ZINC01197461
REMARK  7 active torsions:
REMARK  status: ('A' for Active; 'I' for Inactive)
REMARK    1  A    between atoms: C_1  and  C_2
REMARK    2  A    between atoms: C_2  and  C_3
REMARK    3  A    between atoms: C_3  and  C_4
REMARK    4  A    between atoms: C_11  and  N_27
REMARK    5  A    between atoms: C_12  and  C_25
REMARK    6  A    between atoms: C_13  and  C_15
REMARK    7  A    between atoms: C_18  and  N_22
REMARK                            x       y       z     vdW  Elec       q    Type
REMARK                         _______ _______ _______ _____ _____    ______ ____
ROOT
ATOM      1  C   UNL     1      -1.413  -2.041   0.005  0.00  0.00    +0.071 A 
ATOM      2  C   UNL     1      -1.407  -2.849  -1.124  0.00  0.00    +0.049 A 
ATOM      3  C   UNL     1      -1.388  -4.152  -0.711  0.00  0.00    +0.222 A 
ATOM      4  N   UNL     1      -1.381  -4.152   0.632  0.00  0.00    -0.246 N 
ATOM      5  H   UNL     1      -1.367  -4.936   1.203  0.00  0.00    +0.192 HD
ATOM      6  N   UNL     1      -1.392  -2.816   1.062  0.00  0.00    -0.176 NA
ATOM      7  O   UNL     1      -1.381  -5.196  -1.577  0.00  0.00    -0.423 OA
ATOM      8  C   UNL     1      -1.670  -4.936  -2.869  0.00  0.00    +0.200 C 
ATOM      9  C   UNL     1      -1.706  -3.692  -3.396  0.00  0.00    +0.098 C 
ATOM     10  C   UNL     1      -1.417  -2.458  -2.579  0.00  0.00    +0.101 C 
ENDROOT
BRANCH  10  11
ATOM     11  C   UNL     1      -0.073  -1.895  -2.963  0.00  0.00    -0.033 A 
ATOM     12  C   UNL     1       1.062  -2.674  -2.844  0.00  0.00    +0.007 A 
ATOM     13  C   UNL     1       2.295  -2.158  -3.196  0.00  0.00    +0.034 A 
ATOM     14  C   UNL     1       2.393  -0.862  -3.669  0.00  0.00    +0.144 A 
ATOM     15  C   UNL     1       1.257  -0.082  -3.789  0.00  0.00    +0.071 A 
ATOM     16  C   UNL     1       0.022  -0.601  -3.441  0.00  0.00    +0.027 A 
ATOM     17 CL   UNL     1       1.380   1.545  -4.381  0.00  0.00    -0.081 Cl
BRANCH  14  18
ATOM     18  N   UNL     1       3.714  -0.310  -4.046  0.00  0.00    +0.058 N 
ATOM     19  O   UNL     1       4.707  -0.992  -3.941  0.00  0.00    -0.126 OA
ATOM     20  O   UNL     1       3.799   0.823  -4.459  0.00  0.00    -0.126 OA
ENDBRANCH  14  18
ENDBRANCH  10  11
BRANCH   8  21
ATOM     21  N   UNL     1      -1.942  -5.997  -3.696  0.00  0.00    -0.328 N 
ATOM     22  H   UNL     1      -1.924  -6.902  -3.347  0.00  0.00    +0.145 HD
ATOM     23  H   UNL     1      -2.153  -5.842  -4.630  0.00  0.00    +0.145 HD
ENDBRANCH   8  21
BRANCH   9  24
ATOM     24  C   UNL     1      -2.030  -3.541  -4.783  0.00  0.00    +0.101 C 
ATOM     25  N   UNL     1      -2.287  -3.420  -5.883  0.00  0.00    -0.191 NA
ENDBRANCH   9  24
BRANCH   1  26
ATOM     26  C   UNL     1      -1.433  -0.534   0.013  0.00  0.00    +0.057 C 
BRANCH  26  28
ATOM     27  C   UNL     1      -0.019   1.526   0.010  0.00  0.00    +0.004 C 
ATOM     28  C   UNL     1       0.002  -0.004   0.002  0.00  0.00    +0.003 C 
ENDBRANCH  26  28
ENDBRANCH   1  26
TORSDOF 6
