REMARK  Name = ZINC14039104
REMARK  15 active torsions:
REMARK  status: ('A' for Active; 'I' for Inactive)
REMARK    1  A    between atoms: C_1  and  C_2
REMARK    2  A    between atoms: C_2  and  C_3
REMARK    3  A    between atoms: C_2  and  O_4
REMARK    4  A    between atoms: O_4  and  C_5
REMARK    5  A    between atoms: C_8  and  C_11
REMARK    6  A    between atoms: N_13  and  C_14
REMARK    7  A    between atoms: C_14  and  N_16
REMARK    8  A    between atoms: N_16  and  N_17
REMARK    9  A    between atoms: C_18  and  C_20
REMARK   10  A    between atoms: C_20  and  O_21
REMARK   11  A    between atoms: O_21  and  C_22
REMARK   12  A    between atoms: C_25  and  C_29
REMARK   13  A    between atoms: C_29  and  C_30
REMARK   14  A    between atoms: C_29  and  C_31
REMARK   15  A    between atoms: C_29  and  C_32
REMARK                            x       y       z     vdW  Elec       q    Type
REMARK                         _______ _______ _______ _____ _____    ______ ____
ROOT
ATOM      1  N   UNL     1       3.591  -4.818   0.381  0.00  0.00    -0.245 N 
ATOM      2  H   UNL     1       3.607  -5.788   0.377  0.00  0.00    +0.172 HD
ENDROOT
BRANCH   1   3
ATOM      3  N   UNL     1       4.774  -4.098   0.593  0.00  0.00    -0.232 N 
ATOM      4  C   UNL     1       5.935  -4.754   0.792  0.00  0.00    +0.267 C 
ATOM      5  O   UNL     1       5.955  -5.967   0.787  0.00  0.00    -0.271 OA
ATOM      6  H   UNL     1       4.758  -3.129   0.596  0.00  0.00    +0.173 HD
BRANCH   4   7
ATOM      7  C   UNL     1       7.207  -3.980   1.020  0.00  0.00    +0.326 C 
BRANCH   7   8
ATOM      8  O   UNL     1       8.293  -4.891   1.204  0.00  0.00    -0.482 OA
BRANCH   8   9
ATOM      9  C   UNL     1       9.521  -4.352   1.423  0.00  0.00    +0.135 A 
ATOM     10  C   UNL     1       9.678  -2.975   1.460  0.00  0.00    +0.047 A 
ATOM     11  C   UNL     1      10.928  -2.429   1.683  0.00  0.00    +0.008 A 
ATOM     12  C   UNL     1      12.021  -3.255   1.870  0.00  0.00    -0.041 A 
ATOM     13  C   UNL     1      11.867  -4.628   1.834  0.00  0.00    +0.023 A 
ATOM     14  C   UNL     1      10.619  -5.179   1.616  0.00  0.00    +0.060 A 
ATOM     15 BR   UNL     1      10.408  -7.058   1.574  0.00  0.00    -0.047 Br
BRANCH  12  16
ATOM     16  C   UNL     1      13.383  -2.656   2.113  0.00  0.00    -0.013 C 
ATOM     17  C   UNL     1      13.344  -1.800   3.381  0.00  0.00    +0.015 C 
ATOM     18  C   UNL     1      14.409  -3.778   2.287  0.00  0.00    +0.015 C 
ATOM     19  C   UNL     1      13.777  -1.784   0.920  0.00  0.00    +0.015 C 
ENDBRANCH  12  16
ENDBRANCH   8   9
ENDBRANCH   7   8
ENDBRANCH   4   7
ENDBRANCH   1   3
BRANCH   1  20
ATOM     20  C   UNL     1       2.430  -4.162   0.182  0.00  0.00    +0.153 C 
ATOM     21  S   UNL     1       0.984  -5.042  -0.078  0.00  0.00    -0.017 S 
BRANCH  20  24
ATOM     22  C   UNL     1       1.247  -2.159  -0.013  0.00  0.00    +0.250 C 
ATOM     23  O   UNL     1       0.220  -2.784  -0.197  0.00  0.00    -0.270 OA
ATOM     24  N   UNL     1       2.408  -2.815   0.186  0.00  0.00    -0.263 N 
ATOM     25  H   UNL     1       3.227  -2.317   0.333  0.00  0.00    +0.157 HD
BRANCH  22  29
ATOM     26  C   UNL     1       1.176   2.086   0.004  0.00  0.00    +0.121 A 
ATOM     27  C   UNL     1       0.001   1.374  -0.207  0.00  0.00    +0.046 A 
ATOM     28  C   UNL     1       0.020  -0.003  -0.213  0.00  0.00    +0.016 A 
ATOM     29  C   UNL     1       1.222  -0.684  -0.007  0.00  0.00    +0.037 A 
ATOM     30  C   UNL     1       2.402   0.035   0.205  0.00  0.00    +0.016 A 
ATOM     31  C   UNL     1       2.375   1.412   0.210  0.00  0.00    +0.046 A 
BRANCH  26  32
ATOM     32  O   UNL     1       1.154   3.443   0.010  0.00  0.00    -0.489 OA
BRANCH  32  34
ATOM     33  C   UNL     1       2.297   5.510  -0.499  0.00  0.00    +0.051 C 
ATOM     34  C   UNL     1       2.412   4.112   0.112  0.00  0.00    +0.167 C 
ATOM     35  C   UNL     1       2.808   4.230   1.585  0.00  0.00    +0.051 C 
ENDBRANCH  32  34
ENDBRANCH  26  32
ENDBRANCH  22  29
ENDBRANCH  20  24
ENDBRANCH   1  20
TORSDOF 10
