REMARK  Name = ZINC25180946
REMARK  8 active torsions:
REMARK  status: ('A' for Active; 'I' for Inactive)
REMARK    1  A    between atoms: C_1  and  C_2
REMARK    2  A    between atoms: C_2  and  C_26
REMARK    3  A    between atoms: C_8  and  C_9
REMARK    4  A    between atoms: C_8  and  C_10
REMARK    5  A    between atoms: N_14  and  C_15
REMARK    6  A    between atoms: C_15  and  C_16
REMARK    7  A    between atoms: C_19  and  C_22
REMARK    8  A    between atoms: N_28  and  C_29
REMARK                            x       y       z     vdW  Elec       q    Type
REMARK                         _______ _______ _______ _____ _____    ______ ____
ROOT
ATOM      1  C   UNL     1       0.600   1.977   0.156  0.00  0.00    +0.042 C 
ATOM      2  C   UNL     1       0.358   0.459   0.206  0.00  0.00    +0.111 C 
ATOM      3  C   UNL     1       1.163  -0.209  -0.939  0.00  0.00    +0.039 C 
ATOM      4  C   UNL     1       1.818  -1.419  -0.222  0.00  0.00    +0.002 C 
ATOM      5  C   UNL     1       0.746  -2.470   0.174  0.00  0.00    +0.007 C 
ATOM      6  C   UNL     1       1.868  -2.830  -0.726  0.00  0.00    -0.028 C 
ATOM      7  C   UNL     1       1.538  -3.061  -2.200  0.00  0.00    +0.011 C 
ATOM      8  C   UNL     1       2.965  -3.725  -0.148  0.00  0.00    +0.011 C 
ATOM      9  C   UNL     1       0.435  -2.445   1.627  0.00  0.00    +0.100 C 
ATOM     10  C   UNL     1       0.825  -1.100   2.204  0.00  0.00    +0.217 C 
ATOM     11  O   UNL     1       1.179  -1.023   3.372  0.00  0.00    -0.276 OA
ATOM     12  N   UNL     1       0.787  -0.028   1.484  0.00  0.00    -0.283 N 
ENDROOT
BRANCH   2  13
ATOM     13  C   UNL     1      -1.116   0.201   0.021  0.00  0.00    +0.241 C 
ATOM     14  O   UNL     1      -1.553  -0.050  -1.082  0.00  0.00    -0.273 OA
ATOM     15  N   UNL     1      -1.947   0.249   1.080  0.00  0.00    -0.284 N 
ATOM     16  H   UNL     1      -1.587   0.364   1.974  0.00  0.00    +0.155 HD
BRANCH  15  17
ATOM     17  C   UNL     1      -3.329   0.133   0.892  0.00  0.00    +0.034 A 
ATOM     18  C   UNL     1      -4.112  -0.492   1.853  0.00  0.00    +0.024 A 
ATOM     19  C   UNL     1      -5.475  -0.605   1.665  0.00  0.00    +0.017 A 
ATOM     20  C   UNL     1      -6.061  -0.097   0.519  0.00  0.00    +0.018 A 
ATOM     21  C   UNL     1      -5.283   0.526  -0.441  0.00  0.00    +0.017 A 
ATOM     22  C   UNL     1      -3.920   0.647  -0.255  0.00  0.00    +0.024 A 
ATOM     23 BR   UNL     1      -7.928  -0.254   0.264  0.00  0.00    -0.050 Br
ENDBRANCH  15  17
ENDBRANCH   2  13
BRANCH  12  24
ATOM     24  C   UNL     1       1.391   1.081   2.249  0.00  0.00    +0.144 C 
BRANCH  24  25
ATOM     25  C   UNL     1       2.893   0.975   2.187  0.00  0.00    -0.030 A 
ATOM     26  C   UNL     1       3.586   0.356   3.211  0.00  0.00    +0.006 A 
ATOM     27  C   UNL     1       4.963   0.258   3.153  0.00  0.00    +0.013 A 
ATOM     28  C   UNL     1       5.649   0.780   2.072  0.00  0.00    +0.055 A 
ATOM     29  C   UNL     1       4.956   1.399   1.048  0.00  0.00    +0.013 A 
ATOM     30  C   UNL     1       3.578   1.493   1.104  0.00  0.00    +0.006 A 
BRANCH  28  31
ATOM     31  C   UNL     1       7.151   0.675   2.010  0.00  0.00    +0.417 C 
ATOM     32  F   UNL     1       7.509  -0.513   1.365  0.00  0.00    -0.166 F 
ATOM     33  F   UNL     1       7.666   1.765   1.300  0.00  0.00    -0.166 F 
ATOM     34  F   UNL     1       7.672   0.676   3.309  0.00  0.00    -0.166 F 
ENDBRANCH  28  31
ENDBRANCH  24  25
ENDBRANCH  12  24
TORSDOF 5
