REMARK  Name = ZINC64871250
REMARK  6 active torsions:
REMARK  status: ('A' for Active; 'I' for Inactive)
REMARK    1  A    between atoms: C_4  and  C_7
REMARK    2  A    between atoms: C_7  and  C_8
REMARK    3  A    between atoms: C_8  and  N_9
REMARK    4  A    between atoms: C_15  and  C_22
REMARK    5  A    between atoms: C_25  and  C_29
REMARK    6  A    between atoms: C_33  and  C_35
REMARK                            x       y       z     vdW  Elec       q    Type
REMARK                         _______ _______ _______ _____ _____    ______ ____
ROOT
ATOM      1  N   UNL     1       5.446  -1.683   1.254  0.00  0.00    -0.260 N 
ATOM      2  C   UNL     1       5.453  -3.029   1.368  0.00  0.00    +0.264 A 
ATOM      3  O   UNL     1       4.414  -3.651   1.478  0.00  0.00    -0.267 OA
ATOM      4  C   UNL     1       6.753  -3.724   1.354  0.00  0.00    +0.063 A 
ATOM      5  C   UNL     1       6.844  -5.109   1.466  0.00  0.00    +0.016 A 
ATOM      6  C   UNL     1       8.085  -5.712   1.448  0.00  0.00    +0.008 A 
ATOM      7  C   UNL     1       9.234  -4.948   1.319  0.00  0.00    -0.000 A 
ATOM      8  C   UNL     1       9.158  -3.574   1.207  0.00  0.00    +0.034 A 
ATOM      9  C   UNL     1       7.919  -2.950   1.223  0.00  0.00    +0.056 A 
ATOM     10  N   UNL     1       7.798  -1.573   1.113  0.00  0.00    -0.307 N 
ATOM     11  H   UNL     1       8.594  -1.026   1.022  0.00  0.00    +0.170 HD
ATOM     12  C   UNL     1       6.587  -0.989   1.126  0.00  0.00    +0.330 A 
ATOM     13  O   UNL     1       6.524   0.221   1.022  0.00  0.00    -0.246 OA
ENDROOT
BRANCH   7  14
ATOM     14  C   UNL     1      10.581  -5.624   1.302  0.00  0.00    +0.242 C 
ATOM     15  N   UNL     1      11.458  -5.026   2.334  0.00  0.00    -0.265 NA
ATOM     16  C   UNL     1      12.802  -5.003   1.698  0.00  0.00    +0.180 C 
ATOM     17  N   UNL     1      12.475  -4.691   0.281  0.00  0.00    -0.177 NA
ATOM     18  O   UNL     1      11.214  -5.418   0.030  0.00  0.00    -0.274 OA
ATOM     19  H   UNL     1      11.154  -4.093   2.571  0.00  0.00    +0.127 HD
ATOM     20  H   UNL     1      12.353  -3.698   0.149  0.00  0.00    +0.156 HD
BRANCH  16  21
ATOM     21  C   UNL     1      13.664  -3.926   2.304  0.00  0.00    -0.014 A 
ATOM     22  C   UNL     1      13.486  -3.560   3.626  0.00  0.00    +0.006 A 
ATOM     23  C   UNL     1      14.277  -2.572   4.182  0.00  0.00    +0.001 A 
ATOM     24  C   UNL     1      15.246  -1.950   3.417  0.00  0.00    +0.012 A 
ATOM     25  C   UNL     1      15.425  -2.317   2.096  0.00  0.00    +0.055 A 
ATOM     26  C   UNL     1      14.637  -3.308   1.541  0.00  0.00    +0.019 A 
BRANCH  25  27
ATOM     27  C   UNL     1      16.481  -1.639   1.262  0.00  0.00    +0.417 C 
ATOM     28  F   UNL     1      17.145  -0.682   2.037  0.00  0.00    -0.166 F 
ATOM     29  F   UNL     1      17.400  -2.591   0.808  0.00  0.00    -0.166 F 
ATOM     30  F   UNL     1      15.878  -1.013   0.165  0.00  0.00    -0.166 F 
ENDBRANCH  25  27
ENDBRANCH  16  21
ENDBRANCH   7  14
BRANCH   1  31
ATOM     31  C   UNL     1       4.167  -0.968   1.264  0.00  0.00    +0.134 C 
BRANCH  31  32
ATOM     32  C   UNL     1       3.639  -0.847  -0.167  0.00  0.00    +0.057 C 
BRANCH  32  36
ATOM     33  C   UNL     1      -0.089   1.237  -0.140  0.00  0.00    +0.000 A 
ATOM     34  C   UNL     1       1.094   1.940  -0.270  0.00  0.00    +0.000 A 
ATOM     35  C   UNL     1       2.301   1.265  -0.278  0.00  0.00    +0.004 A 
ATOM     36  C   UNL     1       2.324  -0.112  -0.157  0.00  0.00    -0.046 A 
ATOM     37  C   UNL     1       1.140  -0.814  -0.026  0.00  0.00    +0.004 A 
ATOM     38  C   UNL     1      -0.066  -0.140  -0.019  0.00  0.00    +0.000 A 
ENDBRANCH  32  36
ENDBRANCH  31  32
ENDBRANCH   1  31
TORSDOF 6
