REMARK  Name = ZINC63557149
REMARK  8 active torsions:
REMARK  status: ('A' for Active; 'I' for Inactive)
REMARK    1  A    between atoms: C_1  and  C_2
REMARK    2  A    between atoms: C_2  and  C_3
REMARK    3  A    between atoms: C_2  and  C_4
REMARK    4  A    between atoms: C_2  and  C_5
REMARK    5  A    between atoms: C_12  and  C_14
REMARK    6  A    between atoms: N_19  and  C_21
REMARK    7  A    between atoms: C_21  and  C_22
REMARK    8  A    between atoms: C_22  and  C_23
REMARK                            x       y       z     vdW  Elec       q    Type
REMARK                         _______ _______ _______ _____ _____    ______ ____
ROOT
ATOM      1  C   UNL     1       2.808   3.368  -6.013  0.00  0.00    +0.101 C 
ATOM      2  C   UNL     1       1.879   4.601  -5.932  0.00  0.00    +0.110 C 
ATOM      3  C   UNL     1       2.678   5.710  -6.580  0.00  0.00    +0.216 C 
ATOM      4  O   UNL     1       2.217   6.762  -6.970  0.00  0.00    -0.276 OA
ATOM      5  N   UNL     1       3.974   5.361  -6.660  0.00  0.00    -0.300 N 
ATOM      6  C   UNL     1       4.203   4.027  -6.090  0.00  0.00    +0.121 C 
ENDROOT
BRANCH   1  13
ATOM      7  C   UNL     1       0.718  -0.497  -1.257  0.00  0.00    +0.159 C 
ATOM      8  N   UNL     1       2.082   0.070  -1.359  0.00  0.00    -0.253 N 
ATOM      9  N   UNL     1       2.304   0.868  -2.459  0.00  0.00    -0.163 NA
ATOM     10  C   UNL     1       1.399   1.117  -3.353  0.00  0.00    +0.179 C 
ATOM     11  S   UNL     1      -0.033   0.215  -2.778  0.00  0.00    -0.064 S 
ATOM     12  N   UNL     1       1.515   1.904  -4.495  0.00  0.00    -0.263 N 
ATOM     13  C   UNL     1       2.683   2.516  -4.776  0.00  0.00    +0.224 C 
ATOM     14  O   UNL     1       3.632   2.381  -4.033  0.00  0.00    -0.275 OA
ATOM     15  H   UNL     1       2.769  -0.107  -0.698  0.00  0.00    +0.169 HD
ATOM     16  H   UNL     1       0.756   2.012  -5.089  0.00  0.00    +0.157 HD
BRANCH   7  18
ATOM     17  C   UNL     1      -0.019   1.526   0.010  0.00  0.00    +0.013 C 
ATOM     18  C   UNL     1       0.002  -0.004   0.002  0.00  0.00    -0.008 C 
ATOM     19  C   UNL     1       0.742  -0.511   1.242  0.00  0.00    +0.013 C 
ATOM     20  C   UNL     1      -1.433  -0.534   0.013  0.00  0.00    +0.013 C 
ENDBRANCH   7  18
ENDBRANCH   1  13
BRANCH   5  21
ATOM     21  C   UNL     1       5.022   6.202  -7.242  0.00  0.00    +0.112 C 
BRANCH  21  22
ATOM     22  C   UNL     1       5.628   7.089  -6.152  0.00  0.00    +0.052 C 
BRANCH  22  23
ATOM     23  C   UNL     1       6.707   7.955  -6.751  0.00  0.00    -0.040 C 
ATOM     24  C   UNL     1       6.575   9.224  -7.199  0.00  0.00    +0.000 A 
ATOM     25  C   UNL     1       5.433  10.143  -7.261  0.00  0.00    +0.030 A 
ATOM     26  C   UNL     1       5.614  11.382  -7.777  0.00  0.00    +0.042 A 
ATOM     27  C   UNL     1       6.864  11.807  -8.252  0.00  0.00    +0.022 A 
ATOM     28  C   UNL     1       7.959  11.019  -8.228  0.00  0.00    +0.027 A 
ATOM     29  C   UNL     1       7.883   9.697  -7.707  0.00  0.00    +0.043 A 
ATOM     30  N   UNL     1       8.787   8.757  -7.578  0.00  0.00    -0.380 N 
ATOM     31  C   UNL     1       8.156   7.582  -6.967  0.00  0.00    +0.144 C 
ATOM     32 CL   UNL     1       4.265  12.472  -7.852  0.00  0.00    -0.084 Cl
ATOM     33  H   UNL     1       9.719   8.828  -7.839  0.00  0.00    +0.160 HD
ENDBRANCH  22  23
ENDBRANCH  21  22
ENDBRANCH   5  21
TORSDOF 5
