REMARK  Name = ZINC36063462
REMARK  9 active torsions:
REMARK  status: ('A' for Active; 'I' for Inactive)
REMARK    1  A    between atoms: C_1  and  C_2
REMARK    2  A    between atoms: C_3  and  C_27
REMARK    3  A    between atoms: C_4  and  C_22
REMARK    4  A    between atoms: C_7  and  C_12
REMARK    5  A    between atoms: C_13  and  N_15
REMARK    6  A    between atoms: N_18  and  C_21
REMARK    7  A    between atoms: C_27  and  O_29
REMARK    8  A    between atoms: O_29  and  C_30
REMARK    9  A    between atoms: C_30  and  C_31
REMARK                            x       y       z     vdW  Elec       q    Type
REMARK                         _______ _______ _______ _____ _____    ______ ____
ROOT
ATOM      1  C   UNL     1      -0.042   1.583   0.808  0.00  0.00    +0.066 C 
ATOM      2  C   UNL     1      -0.063   0.089   0.611  0.00  0.00    +0.053 C 
ATOM      3  C   UNL     1      -1.270  -0.583   0.588  0.00  0.00    +0.083 C 
ATOM      4  C   UNL     1      -1.239  -2.082   0.387  0.00  0.00    +0.156 C 
ATOM      5  N   UNL     1       0.097  -2.715   0.229  0.00  0.00    -0.267 N 
ATOM      6  C   UNL     1       0.363  -4.056   0.036  0.00  0.00    +0.048 C 
ATOM      7  C   UNL     1       1.657  -4.428  -0.085  0.00  0.00    +0.072 C 
ATOM      8  S   UNL     1       2.505  -2.869   0.076  0.00  0.00    -0.060 S 
ATOM      9  C   UNL     1       1.171  -1.871   0.282  0.00  0.00    +0.166 C 
ATOM     10  N   UNL     1       1.074  -0.569   0.456  0.00  0.00    -0.230 NA
ENDROOT
BRANCH   4  11
ATOM     11  C   UNL     1      -2.051  -2.402  -0.841  0.00  0.00    +0.015 A 
ATOM     12  C   UNL     1      -3.283  -2.961  -0.928  0.00  0.00    +0.013 A 
ATOM     13  C   UNL     1      -3.841  -3.163  -2.176  0.00  0.00    +0.008 A 
ATOM     14  C   UNL     1      -3.140  -2.797  -3.277  0.00  0.00    +0.045 A 
ATOM     15  S   UNL     1      -1.645  -2.137  -2.559  0.00  0.00    -0.099 S 
ENDBRANCH   4  11
BRANCH   6  16
ATOM     16  C   UNL     1      -0.722  -5.045  -0.035  0.00  0.00    +0.091 C 
ATOM     17  C   UNL     1      -0.434  -6.360  -0.067  0.00  0.00    +0.241 C 
ATOM     18  O   UNL     1       0.845  -6.778   0.093  0.00  0.00    -0.271 OA
BRANCH  17  19
ATOM     19  N   UNL     1      -1.445  -7.286  -0.264  0.00  0.00    -0.302 N 
ATOM     20  C   UNL     1      -2.642  -6.944  -1.047  0.00  0.00    +0.089 C 
ATOM     21  C   UNL     1      -2.866  -8.038  -2.096  0.00  0.00    -0.060 C 
ATOM     22  N   UNL     1      -2.930  -9.346  -1.431  0.00  0.00    +0.380 N 
ATOM     23  C   UNL     1      -1.637  -9.654  -0.809  0.00  0.00    -0.060 C 
ATOM     24  C   UNL     1      -1.349  -8.642   0.299  0.00  0.00    +0.089 C 
ATOM     25  C   UNL     1      -3.253 -10.381  -2.422  0.00  0.00    -0.096 C 
ATOM     26  H   UNL     1      -3.647  -9.327  -0.722  0.00  0.00    -0.082 HD
ENDBRANCH  17  19
ENDBRANCH   6  16
BRANCH   3  27
ATOM     27  C   UNL     1      -2.482   0.101   0.746  0.00  0.00    +0.339 C 
ATOM     28  O   UNL     1      -2.484   1.309   0.907  0.00  0.00    -0.245 OA
BRANCH  27  29
ATOM     29  O   UNL     1      -3.650  -0.579   0.720  0.00  0.00    -0.457 OA
BRANCH  29  30
ATOM     30  C   UNL     1      -4.847   0.182   0.887  0.00  0.00    +0.268 C 
BRANCH  30  31
ATOM     31  C   UNL     1      -6.039  -0.738   0.830  0.00  0.00    -0.010 A 
ATOM     32  C   UNL     1      -6.648  -1.007  -0.381  0.00  0.00    +0.007 A 
ATOM     33  C   UNL     1      -7.741  -1.851  -0.434  0.00  0.00    +0.000 A 
ATOM     34  C   UNL     1      -8.226  -2.427   0.726  0.00  0.00    +0.000 A 
ATOM     35  C   UNL     1      -7.617  -2.159   1.938  0.00  0.00    +0.000 A 
ATOM     36  C   UNL     1      -6.521  -1.318   1.989  0.00  0.00    +0.007 A 
ENDBRANCH  30  31
ENDBRANCH  29  30
ENDBRANCH  27  29
ENDBRANCH   3  27
TORSDOF 7
