REMARK  Name = ZINC21755376
REMARK  12 active torsions:
REMARK  status: ('A' for Active; 'I' for Inactive)
REMARK    1  A    between atoms: C_1  and  C_2
REMARK    2  A    between atoms: C_4  and  C_35
REMARK    3  A    between atoms: C_5  and  S_9
REMARK    4  A    between atoms: C_7  and  C_8
REMARK    5  A    between atoms: S_9  and  N_12
REMARK    6  A    between atoms: N_12  and  C_13
REMARK    7  A    between atoms: C_13  and  C_14
REMARK    8  A    between atoms: C_14  and  C_16
REMARK    9  A    between atoms: C_14  and  N_25
REMARK   10  A    between atoms: C_19  and  N_22
REMARK   11  A    between atoms: N_22  and  C_23
REMARK   12  A    between atoms: N_22  and  C_24
REMARK                            x       y       z     vdW  Elec       q    Type
REMARK                         _______ _______ _______ _____ _____    ______ ____
ROOT
ATOM      1  C   UNL     1      -4.853   2.067  -2.829  0.00  0.00    -0.021 C 
ENDROOT
BRANCH   1   2
ATOM      2  N   UNL     1      -6.054   2.865  -2.551  0.00  0.00    +0.388 N 
ATOM      3  C   UNL     1      -7.114   2.583  -3.532  0.00  0.00    -0.073 C 
ATOM      4  C   UNL     1      -8.432   3.142  -2.996  0.00  0.00    +0.017 C 
ATOM      5  C   UNL     1      -8.247   4.576  -2.570  0.00  0.00    -0.048 A 
ATOM      6  C   UNL     1      -9.375   5.364  -2.391  0.00  0.00    +0.004 A 
ATOM      7  C   UNL     1      -9.250   6.679  -1.993  0.00  0.00    +0.000 A 
ATOM      8  C   UNL     1      -7.995   7.215  -1.771  0.00  0.00    +0.000 A 
ATOM      9  C   UNL     1      -6.872   6.433  -1.951  0.00  0.00    +0.002 A 
ATOM     10  C   UNL     1      -6.995   5.111  -2.352  0.00  0.00    -0.061 A 
ATOM     11  C   UNL     1      -5.741   4.298  -2.539  0.00  0.00    -0.042 C 
ATOM     12  H   UNL     1      -6.417   2.584  -1.552  0.00  0.00    -0.080 HD
ENDBRANCH   1   2
BRANCH   1  13
ATOM     13  C   UNL     1      -5.194   0.601  -2.745  0.00  0.00    -0.060 A 
ATOM     14  C   UNL     1      -6.039   0.146  -1.750  0.00  0.00    +0.004 A 
ATOM     15  C   UNL     1      -6.358  -1.196  -1.674  0.00  0.00    +0.023 A 
ATOM     16  C   UNL     1      -5.819  -2.090  -2.590  0.00  0.00    +0.029 A 
ATOM     17  C   UNL     1      -4.966  -1.630  -3.585  0.00  0.00    +0.023 A 
ATOM     18  C   UNL     1      -4.656  -0.286  -3.659  0.00  0.00    +0.004 A 
BRANCH  16  19
ATOM     19  N   UNL     1      -6.135  -3.448  -2.512  0.00  0.00    -0.336 N 
ATOM     20  C   UNL     1      -5.566  -4.389  -3.479  0.00  0.00    +0.129 C 
ATOM     21  C   UNL     1      -7.035  -3.932  -1.462  0.00  0.00    +0.129 C 
ENDBRANCH  16  19
ENDBRANCH   1  13
BRANCH   1  22
ATOM     22  C   UNL     1      -3.770   2.398  -1.801  0.00  0.00    +0.095 C 
BRANCH  22  23
ATOM     23  N   UNL     1      -2.540   1.677  -2.137  0.00  0.00    -0.191 NA
ATOM     24  H   UNL     1      -2.592   0.736  -2.703  0.00  0.00    +0.148 HD
BRANCH  23  25
ATOM     25  S   UNL     1      -1.100   2.137  -1.461  0.00  0.00    +0.059 S 
ATOM     26  O   UNL     1      -0.993   3.541  -1.648  0.00  0.00    -0.153 OA
ATOM     27  O   UNL     1      -0.118   1.228  -1.939  0.00  0.00    -0.153 OA
BRANCH  25  32
ATOM     28  C   UNL     1      -1.548   1.219   4.486  0.00  0.00    +0.044 C 
ATOM     29  C   UNL     1      -1.436   1.448   3.001  0.00  0.00    -0.047 A 
ATOM     30  C   UNL     1      -1.516   0.379   2.128  0.00  0.00    +0.009 A 
ATOM     31  C   UNL     1      -1.408   0.589   0.766  0.00  0.00    -0.024 A 
ATOM     32  C   UNL     1      -1.230   1.869   0.276  0.00  0.00    +0.108 A 
ATOM     33  C   UNL     1      -1.151   2.938   1.148  0.00  0.00    +0.032 A 
ATOM     34  C   UNL     1      -1.254   2.728   2.511  0.00  0.00    -0.046 A 
ATOM     35  C   UNL     1      -1.168   3.894   3.462  0.00  0.00    +0.044 C 
ATOM     36  C   UNL     1      -1.488  -0.578  -0.184  0.00  0.00    +0.046 C 
ENDBRANCH  25  32
ENDBRANCH  23  25
ENDBRANCH  22  23
ENDBRANCH   1  22
TORSDOF 7
