REMARK  Name = ZINC37603729
REMARK  11 active torsions:
REMARK  status: ('A' for Active; 'I' for Inactive)
REMARK    1  A    between atoms: C_1  and  C_2
REMARK    2  A    between atoms: C_2  and  N_3
REMARK    3  A    between atoms: N_3  and  C_4
REMARK    4  A    between atoms: C_4  and  C_5
REMARK    5  A    between atoms: C_6  and  C_8
REMARK    6  A    between atoms: C_11  and  C_13
REMARK    7  A    between atoms: C_13  and  O_14
REMARK    8  A    between atoms: O_14  and  C_15
REMARK    9  A    between atoms: C_21  and  C_33
REMARK   10  A    between atoms: C_26  and  C_28
REMARK   11  A    between atoms: C_36  and  C_39
REMARK                            x       y       z     vdW  Elec       q    Type
REMARK                         _______ _______ _______ _____ _____    ______ ____
ROOT
ATOM      1  C   UNL     1      -5.549   2.569  -0.223  0.00  0.00    +0.121 A 
ATOM      2  C   UNL     1      -6.422   1.737   0.462  0.00  0.00    +0.046 A 
ATOM      3  C   UNL     1      -7.396   2.283   1.269  0.00  0.00    +0.007 A 
ATOM      4  C   UNL     1      -7.512   3.662   1.408  0.00  0.00    -0.040 A 
ATOM      5  C   UNL     1      -6.639   4.488   0.735  0.00  0.00    -0.016 A 
ATOM      6  C   UNL     1      -5.658   3.942  -0.080  0.00  0.00    +0.051 A 
ATOM      7  C   UNL     1      -6.690   5.990   0.863  0.00  0.00    +0.137 C 
ATOM      8  N   UNL     1      -7.928   6.387   1.542  0.00  0.00    -0.290 N 
ATOM      9  C   UNL     1      -8.321   5.618   2.734  0.00  0.00    +0.113 C 
ATOM     10  C   UNL     1      -8.611   4.184   2.295  0.00  0.00    +0.054 C 
ATOM     11  C   UNL     1      -8.677   7.413   1.091  0.00  0.00    +0.219 C 
ATOM     12  O   UNL     1      -8.331   8.030   0.106  0.00  0.00    -0.275 OA
ENDROOT
BRANCH   7  13
ATOM     13  C   UNL     1      -5.506   6.466   1.664  0.00  0.00    -0.023 A 
ATOM     14  C   UNL     1      -4.658   7.425   1.142  0.00  0.00    +0.006 A 
ATOM     15  C   UNL     1      -3.572   7.862   1.877  0.00  0.00    +0.004 A 
ATOM     16  C   UNL     1      -3.333   7.339   3.135  0.00  0.00    -0.050 A 
ATOM     17  C   UNL     1      -4.181   6.380   3.657  0.00  0.00    +0.004 A 
ATOM     18  C   UNL     1      -5.270   5.947   2.924  0.00  0.00    +0.006 A 
ATOM     19  C   UNL     1      -2.148   7.814   3.936  0.00  0.00    +0.044 C 
ENDBRANCH   7  13
BRANCH  11  20
ATOM     20  C   UNL     1      -9.944   7.795   1.812  0.00  0.00    +0.075 C 
ATOM     21  C   UNL     1     -10.954   6.629   1.759  0.00  0.00    +0.013 C 
ATOM     22  C   UNL     1     -12.329   7.325   1.598  0.00  0.00    +0.001 C 
ATOM     23  C   UNL     1     -12.005   8.506   0.650  0.00  0.00    +0.001 C 
ATOM     24  C   UNL     1     -10.613   8.988   1.107  0.00  0.00    +0.013 C 
ENDBRANCH  11  20
BRANCH   1  25
ATOM     25  O   UNL     1      -4.588   2.040  -1.025  0.00  0.00    -0.485 OA
BRANCH  25  26
ATOM     26  C   UNL     1      -4.536   0.616  -1.123  0.00  0.00    +0.291 C 
BRANCH  26  30
ATOM     27  C   UNL     1      -1.335  -0.373  -2.732  0.00  0.00    +0.133 A 
ATOM     28  C   UNL     1      -1.877  -0.434  -3.988  0.00  0.00    +0.080 A 
ATOM     29  S   UNL     1      -3.481  -0.018  -3.710  0.00  0.00    -0.076 S 
ATOM     30  C   UNL     1      -3.417   0.215  -2.049  0.00  0.00    +0.116 A 
ATOM     31  N   UNL     1      -2.172  -0.035  -1.746  0.00  0.00    -0.236 NA
BRANCH  27  33
ATOM     32  N   UNL     1       0.600  -0.505  -1.246  0.00  0.00    -0.297 N 
ATOM     33  C   UNL     1       0.086  -0.666  -2.481  0.00  0.00    +0.265 C 
ATOM     34  O   UNL     1       0.796  -1.055  -3.389  0.00  0.00    -0.268 OA
BRANCH  32  36
ATOM     35  C   UNL     1       2.316  -2.105  -0.554  0.00  0.00    +0.024 C 
ATOM     36  C   UNL     1       2.038  -0.675  -1.022  0.00  0.00    +0.105 C 
ENDBRANCH  32  36
BRANCH  32  37
ATOM     37  C   UNL     1      -0.280  -0.160  -0.126  0.00  0.00    +0.105 C 
ATOM     38  C   UNL     1      -0.489   1.356  -0.091  0.00  0.00    +0.024 C 
ENDBRANCH  32  37
ENDBRANCH  27  33
ENDBRANCH  26  30
ENDBRANCH  25  26
ENDBRANCH   1  25
TORSDOF 8
