REMARK  Name = ZINC08610217
REMARK  12 active torsions:
REMARK  status: ('A' for Active; 'I' for Inactive)
REMARK    1  A    between atoms: C_1  and  C_2
REMARK    2  A    between atoms: C_2  and  C_3
REMARK    3  A    between atoms: C_3  and  C_4
REMARK    4  A    between atoms: C_3  and  C_5
REMARK    5  A    between atoms: C_3  and  N_6
REMARK    6  A    between atoms: C_7  and  C_9
REMARK    7  A    between atoms: N_12  and  S_15
REMARK    8  A    between atoms: S_15  and  C_18
REMARK    9  A    between atoms: C_19  and  C_32
REMARK   10  A    between atoms: C_22  and  C_23
REMARK   11  A    between atoms: C_24  and  C_25
REMARK   12  A    between atoms: C_28  and  C_31
REMARK                            x       y       z     vdW  Elec       q    Type
REMARK                         _______ _______ _______ _____ _____    ______ ____
ROOT
ATOM      1  S   UNL     1       3.879  -7.731  -2.335  0.00  0.00    +0.066 S 
ATOM      2  O   UNL     1       4.535  -7.572  -3.586  0.00  0.00    -0.153 OA
ATOM      3  O   UNL     1       4.558  -7.585  -1.095  0.00  0.00    -0.153 OA
ENDROOT
BRANCH   1   7
ATOM      4  C   UNL     1       1.341  -4.130  -2.293  0.00  0.00    +0.077 C 
ATOM      5  C   UNL     1       2.080  -4.636  -1.052  0.00  0.00    +0.030 C 
ATOM      6  C   UNL     1       2.069  -6.168  -1.046  0.00  0.00    +0.110 C 
ATOM      7  N   UNL     1       2.625  -6.650  -2.318  0.00  0.00    -0.176 NA
ATOM      8  C   UNL     1       2.046  -6.155  -3.575  0.00  0.00    +0.110 C 
ATOM      9  C   UNL     1       2.058  -4.623  -3.552  0.00  0.00    +0.030 C 
BRANCH   4  11
ATOM     10  N   UNL     1       0.738  -1.962  -1.265  0.00  0.00    -0.310 N 
ATOM     11  C   UNL     1       1.321  -2.623  -2.285  0.00  0.00    +0.217 C 
ATOM     12  O   UNL     1       1.829  -2.004  -3.196  0.00  0.00    -0.275 OA
ATOM     13  H   UNL     1       0.332  -2.457  -0.536  0.00  0.00    +0.149 HD
BRANCH  10  14
ATOM     14  C   UNL     1       0.718  -0.497  -1.257  0.00  0.00    +0.029 C 
ATOM     15  C   UNL     1      -0.022   0.009  -2.496  0.00  0.00    +0.031 C 
ATOM     16  C   UNL     1       2.154   0.032  -1.268  0.00  0.00    +0.031 C 
BRANCH  14  18
ATOM     17  C   UNL     1      -0.019   1.526   0.010  0.00  0.00    +0.006 C 
ATOM     18  C   UNL     1       0.002  -0.004   0.002  0.00  0.00    +0.022 C 
ENDBRANCH  14  18
ENDBRANCH  10  14
ENDBRANCH   4  11
ENDBRANCH   1   7
BRANCH   1  19
ATOM     19  C   UNL     1       3.175  -9.346  -2.337  0.00  0.00    +0.174 A 
ATOM     20  C   UNL     1       2.850 -10.105  -1.206  0.00  0.00    +0.107 A 
ATOM     21  N   UNL     1       2.352 -11.243  -1.603  0.00  0.00    -0.081 NA
ATOM     22  O   UNL     1       2.339 -11.253  -3.018  0.00  0.00    -0.353 OA
ATOM     23  C   UNL     1       2.844 -10.077  -3.443  0.00  0.00    +0.187 A 
ATOM     24  C   UNL     1       3.045  -9.679   0.227  0.00  0.00    +0.071 C 
BRANCH  23  25
ATOM     25  C   UNL     1       3.010  -9.660  -4.838  0.00  0.00    +0.051 C 
ATOM     26  C   UNL     1       2.639 -10.485  -5.837  0.00  0.00    +0.011 C 
BRANCH  26  27
ATOM     27  C   UNL     1       2.807 -10.066  -7.238  0.00  0.00    -0.025 A 
ATOM     28  C   UNL     1       3.355  -8.815  -7.537  0.00  0.00    +0.008 A 
ATOM     29  C   UNL     1       3.509  -8.429  -8.852  0.00  0.00    +0.004 A 
ATOM     30  C   UNL     1       3.121  -9.277  -9.875  0.00  0.00    -0.050 A 
ATOM     31  C   UNL     1       2.577 -10.517  -9.587  0.00  0.00    +0.004 A 
ATOM     32  C   UNL     1       2.423 -10.919  -8.277  0.00  0.00    +0.008 A 
ATOM     33  C   UNL     1       3.291  -8.848 -11.309  0.00  0.00    +0.044 C 
ENDBRANCH  26  27
ENDBRANCH  23  25
ENDBRANCH   1  19
TORSDOF 7
