REMARK  Name = ZINC36378643
REMARK  8 active torsions:
REMARK  status: ('A' for Active; 'I' for Inactive)
REMARK    1  A    between atoms: C_1  and  C_2
REMARK    2  A    between atoms: C_2  and  O_4
REMARK    3  A    between atoms: O_4  and  C_5
REMARK    4  A    between atoms: C_11  and  C_24
REMARK    5  A    between atoms: C_11  and  O_31
REMARK    6  A    between atoms: C_15  and  C_23
REMARK    7  A    between atoms: C_24  and  C_25
REMARK    8  A    between atoms: C_25  and  C_26
REMARK                            x       y       z     vdW  Elec       q    Type
REMARK                         _______ _______ _______ _____ _____    ______ ____
ROOT
ATOM      1  C   UNL     1       1.471  -3.933  -1.055  0.00  0.00    +0.184 C 
ATOM      2  C   UNL     1       2.926  -3.761  -1.498  0.00  0.00    +0.085 C 
ATOM      3  C   UNL     1       2.965  -2.792  -2.683  0.00  0.00    +0.125 C 
ATOM      4  C   UNL     1       4.283  -2.084  -2.988  0.00  0.00    +0.198 C 
ATOM      5  O   UNL     1       3.164  -1.407  -2.409  0.00  0.00    -0.365 OA
ATOM      6  C   UNL     1       2.062  -3.171  -3.858  0.00  0.00    +0.106 C 
ATOM      7  C   UNL     1       0.631  -3.374  -3.349  0.00  0.00    +0.044 C 
ATOM      8  C   UNL     1       0.627  -4.422  -2.234  0.00  0.00    +0.059 C 
ATOM      9  C   UNL     1      -0.822  -4.606  -1.749  0.00  0.00    +0.072 C 
ATOM     10  C   UNL     1      -1.661  -5.142  -2.915  0.00  0.00    +0.018 C 
ATOM     11  C   UNL     1      -1.669  -4.097  -4.034  0.00  0.00    +0.002 C 
ATOM     12  C   UNL     1      -0.241  -3.855  -4.511  0.00  0.00    +0.013 C 
ATOM     13  C   UNL     1      -1.354  -3.237  -1.375  0.00  0.00    +0.313 C 
ATOM     14  O   UNL     1      -1.876  -3.040  -0.303  0.00  0.00    -0.250 OA
ATOM     15  O   UNL     1      -1.223  -2.246  -2.281  0.00  0.00    -0.464 OA
ATOM     16  C   UNL     1       0.090  -2.049  -2.809  0.00  0.00    +0.242 C 
ATOM     17  C   UNL     1      -0.875  -5.566  -0.559  0.00  0.00    +0.023 C 
ENDROOT
BRANCH   6  18
ATOM     18  O   UNL     1       2.534  -4.381  -4.452  0.00  0.00    -0.385 OA
ATOM     19  H   UNL     1       3.438  -4.326  -4.793  0.00  0.00    +0.210 HD
ENDBRANCH   6  18
BRANCH   1  20
ATOM     20  O   UNL     1       0.963  -2.680  -0.594  0.00  0.00    -0.461 OA
BRANCH  20  22
ATOM     21  C   UNL     1       0.606  -1.099   1.269  0.00  0.00    +0.136 C 
ATOM     22  C   UNL     1       1.117  -2.402   0.711  0.00  0.00    +0.304 C 
ATOM     23  O   UNL     1       1.665  -3.198   1.437  0.00  0.00    -0.251 OA
ENDBRANCH  20  22
ENDBRANCH   1  20
BRANCH   6  24
ATOM     24  C   UNL     1       2.080  -2.049  -4.898  0.00  0.00    +0.043 C 
BRANCH  24  25
ATOM     25  C   UNL     1       1.345  -2.509  -6.158  0.00  0.00    +0.041 C 
BRANCH  25  26
ATOM     26  C   UNL     1       2.086  -2.026  -7.378  0.00  0.00    -0.010 A 
ATOM     27  C   UNL     1       1.892  -0.796  -8.049  0.00  0.00    +0.044 A 
ATOM     28  C   UNL     1       2.758  -0.773  -9.078  0.00  0.00    +0.195 A 
ATOM     29  O   UNL     1       3.462  -1.917  -9.065  0.00  0.00    -0.471 OA
ATOM     30  C   UNL     1       3.062  -2.678  -8.034  0.00  0.00    +0.198 A 
ENDBRANCH  25  26
ENDBRANCH  24  25
ENDBRANCH   6  24
TORSDOF 6
