REMARK  Name = ZINC40388592
REMARK  5 active torsions:
REMARK  status: ('A' for Active; 'I' for Inactive)
REMARK    1  A    between atoms: C_1  and  C_2
REMARK    2  A    between atoms: C_5  and  C_37
REMARK    3  A    between atoms: C_22  and  C_24
REMARK    4  A    between atoms: N_26  and  C_27
REMARK    5  A    between atoms: C_32  and  C_33
REMARK                            x       y       z     vdW  Elec       q    Type
REMARK                         _______ _______ _______ _____ _____    ______ ____
ROOT
ATOM      1  C   UNL     1      -3.021  -2.586   2.131  0.00  0.00    +0.009 C 
ATOM      2  C   UNL     1      -1.598  -2.042   2.280  0.00  0.00    +0.004 C 
ATOM      3  C   UNL     1      -1.614  -0.520   2.125  0.00  0.00    +0.009 C 
ATOM      4  C   UNL     1      -0.197   0.028   2.307  0.00  0.00    +0.004 C 
ATOM      5  C   UNL     1       0.716  -0.559   1.226  0.00  0.00    +0.111 C 
ATOM      6  N   UNL     1       0.625  -2.025   1.274  0.00  0.00    -0.301 N 
ATOM      7  C   UNL     1      -0.701  -2.654   1.199  0.00  0.00    +0.111 C 
ATOM      8  C   UNL     1       1.754  -2.791   1.387  0.00  0.00    +0.200 A 
ATOM      9  N   UNL     1       2.973  -2.187   1.353  0.00  0.00    -0.295 N 
ATOM     10  H   UNL     1       3.034  -1.224   1.262  0.00  0.00    +0.172 HD
ATOM     11  C   UNL     1       4.098  -2.929   1.446  0.00  0.00    +0.258 A 
ATOM     12  O   UNL     1       5.198  -2.401   1.400  0.00  0.00    -0.267 OA
ATOM     13  C   UNL     1       3.977  -4.314   1.595  0.00  0.00    +0.069 A 
ATOM     14  C   UNL     1       2.715  -4.878   1.645  0.00  0.00    +0.138 A 
ATOM     15  N   UNL     1       1.636  -4.094   1.532  0.00  0.00    -0.200 NA
ATOM     16  N   UNL     1       2.567  -6.241   1.836  0.00  0.00    -0.270 N 
ATOM     17  C   UNL     1       3.602  -7.000   2.232  0.00  0.00    +0.219 C 
ATOM     18  O   UNL     1       3.476  -8.204   2.287  0.00  0.00    -0.275 OA
ATOM     19  C   UNL     1       4.919  -6.372   2.607  0.00  0.00    +0.114 C 
ATOM     20  C   UNL     1       5.203  -5.182   1.688  0.00  0.00    +0.122 C 
ATOM     21  C   UNL     1      -0.219   1.553   2.185  0.00  0.00    +0.009 C 
ATOM     22  H   UNL     1       1.703  -6.654   1.681  0.00  0.00    +0.156 HD
ENDROOT
BRANCH  20  23
ATOM     23  C   UNL     1       6.346  -4.376   2.251  0.00  0.00    +0.225 C 
ATOM     24  O   UNL     1       6.290  -3.956   3.387  0.00  0.00    -0.275 OA
ATOM     25  N   UNL     1       7.429  -4.122   1.490  0.00  0.00    -0.284 N 
ATOM     26  H   UNL     1       7.440  -4.388   0.557  0.00  0.00    +0.155 HD
BRANCH  25  27
ATOM     27  C   UNL     1       8.539  -3.476   2.047  0.00  0.00    +0.045 A 
ATOM     28  C   UNL     1       8.772  -3.547   3.414  0.00  0.00    +0.024 A 
ATOM     29  C   UNL     1       9.868  -2.908   3.960  0.00  0.00    +0.002 A 
ATOM     30  C   UNL     1      10.732  -2.197   3.147  0.00  0.00    +0.001 A 
ATOM     31  C   UNL     1      10.502  -2.124   1.786  0.00  0.00    +0.014 A 
ATOM     32  C   UNL     1       9.412  -2.767   1.233  0.00  0.00    +0.076 A 
BRANCH  32  33
ATOM     33  C   UNL     1       9.166  -2.692  -0.252  0.00  0.00    +0.419 C 
ATOM     34  F   UNL     1      10.172  -1.928  -0.854  0.00  0.00    -0.166 F 
ATOM     35  F   UNL     1       9.175  -3.983  -0.792  0.00  0.00    -0.166 F 
ATOM     36  F   UNL     1       7.923  -2.096  -0.490  0.00  0.00    -0.166 F 
ENDBRANCH  32  33
ENDBRANCH  25  27
ENDBRANCH  20  23
TORSDOF 3
