REMARK  Name = ZINC67276004
REMARK  9 active torsions:
REMARK  status: ('A' for Active; 'I' for Inactive)
REMARK    1  A    between atoms: C_1  and  C_2
REMARK    2  A    between atoms: C_2  and  N_3
REMARK    3  A    between atoms: N_3  and  C_4
REMARK    4  A    between atoms: N_3  and  C_6
REMARK    5  A    between atoms: C_4  and  C_5
REMARK    6  A    between atoms: C_6  and  C_8
REMARK    7  A    between atoms: C_6  and  C_22
REMARK    8  A    between atoms: C_8  and  N_9
REMARK    9  A    between atoms: C_10  and  C_12
REMARK                            x       y       z     vdW  Elec       q    Type
REMARK                         _______ _______ _______ _____ _____    ______ ____
ROOT
ATOM      1  N   UNL     1       2.700  -1.956  -2.725  0.00  0.00    -0.316 N 
ATOM      2  C   UNL     1       3.417  -2.123  -3.854  0.00  0.00    +0.218 C 
ATOM      3  O   UNL     1       2.880  -2.545  -4.857  0.00  0.00    -0.275 OA
ATOM      4  H   UNL     1       3.110  -1.551  -1.946  0.00  0.00    +0.149 HD
ENDROOT
BRANCH   2   5
ATOM      5  C   UNL     1       4.885  -1.785  -3.871  0.00  0.00    +0.092 C 
ATOM      6  C   UNL     1       5.443  -2.002  -5.279  0.00  0.00    +0.016 C 
ATOM      7  C   UNL     1       6.942  -1.691  -5.290  0.00  0.00    +0.020 C 
ATOM      8  C   UNL     1       7.157  -0.224  -4.905  0.00  0.00    +0.109 C 
ATOM      9  N   UNL     1       6.497   0.029  -3.617  0.00  0.00    -0.285 N 
ATOM     10  C   UNL     1       5.077  -0.319  -3.470  0.00  0.00    +0.122 C 
ATOM     11  C   UNL     1       7.181   0.571  -2.590  0.00  0.00    +0.300 C 
ATOM     12  O   UNL     1       6.654   0.682  -1.500  0.00  0.00    -0.253 OA
ATOM     13  N   UNL     1       8.450   0.988  -2.771  0.00  0.00    -0.313 N 
ATOM     14  H   UNL     1       8.845   0.969  -3.656  0.00  0.00    +0.146 HD
ATOM     15  H   UNL     1       8.967   1.308  -2.015  0.00  0.00    +0.146 HD
ENDBRANCH   2   5
BRANCH   1  16
ATOM     16  C   UNL     1       1.300  -2.386  -2.676  0.00  0.00    +0.096 C 
BRANCH  16  17
ATOM     17  C   UNL     1       0.685  -1.970  -1.338  0.00  0.00    +0.016 C 
BRANCH  17  18
ATOM     18  C   UNL     1      -0.781  -2.318  -1.329  0.00  0.00    +0.093 A 
ATOM     19  C   UNL     1      -1.352  -3.296  -0.604  0.00  0.00    +0.043 A 
ATOM     20  C   UNL     1      -2.735  -3.271  -0.899  0.00  0.00    +0.041 A 
ATOM     21  C   UNL     1      -2.925  -2.278  -1.787  0.00  0.00    +0.195 A 
ATOM     22  O   UNL     1      -1.739  -1.701  -2.039  0.00  0.00    -0.469 OA
ENDBRANCH  17  18
BRANCH  17  23
ATOM     23  N   UNL     1       0.845  -0.521  -1.156  0.00  0.00    +0.387 N 
ATOM     24  H   UNL     1       1.827  -0.290  -1.146  0.00  0.00    -0.081 HD
BRANCH  23  26
ATOM     25  C   UNL     1       0.474   1.686  -2.150  0.00  0.00    -0.017 C 
ATOM     26  C   UNL     1       0.186   0.188  -2.261  0.00  0.00    -0.081 C 
ENDBRANCH  23  26
BRANCH  23  27
ATOM     27  C   UNL     1       0.234  -0.118   0.118  0.00  0.00    -0.081 C 
ATOM     28  C   UNL     1       1.015  -0.740   1.277  0.00  0.00    -0.017 C 
ENDBRANCH  23  27
ENDBRANCH  17  23
ENDBRANCH  16  17
ENDBRANCH   1  16
TORSDOF 7
