REMARK  Name = ZINC24837770
REMARK  11 active torsions:
REMARK  status: ('A' for Active; 'I' for Inactive)
REMARK    1  A    between atoms: C_1  and  C_2
REMARK    2  A    between atoms: C_2  and  C_4
REMARK    3  A    between atoms: C_2  and  N_30
REMARK    4  A    between atoms: C_7  and  S_16
REMARK    5  A    between atoms: N_8  and  C_9
REMARK    6  A    between atoms: S_16  and  C_17
REMARK    7  A    between atoms: C_17  and  C_18
REMARK    8  A    between atoms: C_18  and  C_20
REMARK    9  A    between atoms: C_18  and  O_29
REMARK   10  A    between atoms: C_20  and  O_21
REMARK   11  A    between atoms: O_21  and  C_22
REMARK                            x       y       z     vdW  Elec       q    Type
REMARK                         _______ _______ _______ _____ _____    ______ ____
ROOT
ATOM      1  C   UNL     1       1.023   0.612   4.700  0.00  0.00    +0.125 A 
ATOM      2  N   UNL     1       1.660   0.237   3.627  0.00  0.00    -0.135 NA
ATOM      3  N   UNL     1       1.145   0.794   2.590  0.00  0.00    -0.122 NA
ATOM      4  C   UNL     1       0.147   1.569   2.947  0.00  0.00    +0.196 A 
ATOM      5  N   UNL     1       0.035   1.475   4.307  0.00  0.00    -0.275 N 
ENDROOT
BRANCH   5   6
ATOM      6  C   UNL     1      -0.898   2.126   5.128  0.00  0.00    +0.050 A 
ATOM      7  C   UNL     1      -0.470   3.060   6.062  0.00  0.00    +0.029 A 
ATOM      8  C   UNL     1      -1.391   3.704   6.865  0.00  0.00    +0.040 A 
ATOM      9  C   UNL     1      -2.739   3.411   6.747  0.00  0.00    +0.124 A 
ATOM     10  C   UNL     1      -3.167   2.476   5.820  0.00  0.00    +0.040 A 
ATOM     11  C   UNL     1      -2.250   1.834   5.011  0.00  0.00    +0.029 A 
ATOM     12  F   UNL     1      -3.637   4.038   7.538  0.00  0.00    -0.205 F 
ENDBRANCH   5   6
BRANCH   1  14
ATOM     13  C   UNL     1       0.854  -1.267   6.309  0.00  0.00    -0.005 C 
ATOM     14  C   UNL     1       1.319   0.177   6.113  0.00  0.00    -0.002 C 
BRANCH  14  15
ATOM     15  N   UNL     1       2.765   0.263   6.359  0.00  0.00    +0.386 N 
ATOM     16  C   UNL     1       3.088  -0.126   7.737  0.00  0.00    -0.078 C 
ATOM     17  C   UNL     1       4.607  -0.165   7.915  0.00  0.00    -0.019 C 
ATOM     18  C   UNL     1       5.188   1.218   7.606  0.00  0.00    -0.004 C 
ATOM     19  C   UNL     1       4.796   1.621   6.182  0.00  0.00    -0.019 C 
ATOM     20  C   UNL     1       3.271   1.608   6.055  0.00  0.00    -0.078 C 
ATOM     21  H   UNL     1       3.267  -0.445   5.684  0.00  0.00    -0.081 HD
ENDBRANCH  14  15
ENDBRANCH   1  14
BRANCH   4  22
ATOM     22  S   UNL     1      -0.861   2.540   1.877  0.00  0.00    -0.083 S 
BRANCH  22  23
ATOM     23  C   UNL     1      -0.104   2.139   0.282  0.00  0.00    +0.112 C 
BRANCH  23  24
ATOM     24  C   UNL     1      -0.836   2.889  -0.832  0.00  0.00    +0.162 C 
BRANCH  24  25
ATOM     25  O   UNL     1      -0.644   4.295  -0.666  0.00  0.00    -0.388 OA
ATOM     26  H   UNL     1      -1.098   5.001  -1.377  0.00  0.00    +0.210 HD
ENDBRANCH  24  25
BRANCH  24  27
ATOM     27  C   UNL     1      -0.279   2.456  -2.190  0.00  0.00    +0.261 C 
BRANCH  27  28
ATOM     28  O   UNL     1      -1.038   3.067  -3.234  0.00  0.00    -0.489 OA
BRANCH  28  29
ATOM     29  C   UNL     1      -0.671   2.784  -4.512  0.00  0.00    +0.121 A 
ATOM     30  C   UNL     1       0.402   1.940  -4.755  0.00  0.00    +0.047 A 
ATOM     31  C   UNL     1       0.771   1.649  -6.054  0.00  0.00    +0.023 A 
ATOM     32  C   UNL     1       0.077   2.209  -7.112  0.00  0.00    +0.041 A 
ATOM     33  C   UNL     1      -0.990   3.056  -6.872  0.00  0.00    +0.023 A 
ATOM     34  C   UNL     1      -1.365   3.344  -5.574  0.00  0.00    +0.047 A 
ATOM     35 CL   UNL     1       0.547   1.847  -8.744  0.00  0.00    -0.084 Cl
ENDBRANCH  28  29
ENDBRANCH  27  28
ENDBRANCH  24  27
ENDBRANCH  23  24
ENDBRANCH  22  23
ENDBRANCH   4  22
TORSDOF 10
