REMARK  Name = ZINC11784276
REMARK  7 active torsions:
REMARK  status: ('A' for Active; 'I' for Inactive)
REMARK    1  A    between atoms: C_11  and  C_13
REMARK    2  A    between atoms: C_16  and  N_19
REMARK    3  A    between atoms: C_22  and  N_70
REMARK    4  A    between atoms: C_25  and  C_26
REMARK    5  A    between atoms: C_25  and  N_70
REMARK    6  A    between atoms: C_26  and  C_27
REMARK    7  A    between atoms: C_27  and  N_28
REMARK                            x       y       z     vdW  Elec       q    Type
REMARK                         _______ _______ _______ _____ _____    ______ ____
ROOT
ATOM      1  N   UNL     1      -1.222   2.076   0.136  0.00  0.00    -0.330 N 
ATOM      2  C   UNL     1      -1.635   2.493  -1.210  0.00  0.00    +0.103 C 
ATOM      3  C   UNL     1      -3.035   3.110  -1.148  0.00  0.00    +0.003 C 
ATOM      4  C   UNL     1      -3.014   4.315  -0.204  0.00  0.00    -0.069 C 
ATOM      5  C   UNL     1      -2.534   3.863   1.178  0.00  0.00    +0.003 C 
ATOM      6  C   UNL     1      -1.149   3.225   1.048  0.00  0.00    +0.103 C 
ENDROOT
BRANCH   1  10
ATOM      7  C   UNL     1       2.405   0.040   0.009  0.00  0.00    +0.037 A 
ATOM      8  C   UNL     1       1.325  -0.405  -0.758  0.00  0.00    +0.015 A 
ATOM      9  C   UNL     1       0.126   0.270  -0.713  0.00  0.00    +0.024 A 
ATOM     10  C   UNL     1      -0.011   1.394   0.097  0.00  0.00    +0.030 A 
ATOM     11  C   UNL     1       1.062   1.839   0.862  0.00  0.00    +0.024 A 
ATOM     12  C   UNL     1       2.264   1.169   0.821  0.00  0.00    +0.015 A 
BRANCH   7  23
ATOM     13  C   UNL     1       7.447   3.014  -3.182  0.00  0.00    +0.000 A 
ATOM     14  C   UNL     1       6.581   3.849  -2.501  0.00  0.00    +0.000 A 
ATOM     15  C   UNL     1       5.754   3.330  -1.526  0.00  0.00    +0.005 A 
ATOM     16  C   UNL     1       5.785   1.975  -1.224  0.00  0.00    -0.027 A 
ATOM     17  C   UNL     1       6.642   1.141  -1.906  0.00  0.00    -0.041 A 
ATOM     18  C   UNL     1       7.477   1.667  -2.885  0.00  0.00    +0.004 A 
ATOM     19  C   UNL     1       6.720  -0.341  -1.646  0.00  0.00    +0.054 C 
ATOM     20  C   UNL     1       6.140  -0.683  -0.269  0.00  0.00    +0.113 C 
ATOM     21  N   UNL     1       4.845   0.007  -0.147  0.00  0.00    -0.293 N 
ATOM     22  C   UNL     1       4.863   1.474  -0.142  0.00  0.00    +0.143 C 
ATOM     23  C   UNL     1       3.691  -0.680  -0.037  0.00  0.00    +0.247 C 
ATOM     24  O   UNL     1       3.711  -1.895   0.022  0.00  0.00    -0.270 OA
ENDBRANCH   7  23
ENDBRANCH   1  10
BRANCH   4  25
ATOM     25  N   UNL     1      -4.374   4.875  -0.086  0.00  0.00    +0.381 N 
ATOM     26  H   UNL     1      -4.462   5.364   0.812  0.00  0.00    -0.086 HD
ATOM     27  H   UNL     1      -5.059   4.112  -0.130  0.00  0.00    -0.086 HD
BRANCH  25  28
ATOM     28  C   UNL     1      -4.633   5.825  -1.184  0.00  0.00    -0.080 C 
BRANCH  28  29
ATOM     29  C   UNL     1      -6.048   6.388  -1.036  0.00  0.00    +0.004 C 
BRANCH  29  30
ATOM     30  C   UNL     1      -6.325   7.375  -2.172  0.00  0.00    +0.144 C 
BRANCH  30  31
ATOM     31  N   UNL     1      -7.680   7.915  -2.031  0.00  0.00    -0.244 N 
ATOM     32  C   UNL     1      -8.049   9.040  -1.332  0.00  0.00    +0.089 A 
ATOM     33  C   UNL     1      -7.354   9.982  -0.582  0.00  0.00    +0.029 A 
ATOM     34  C   UNL     1      -8.029  11.016   0.004  0.00  0.00    +0.002 A 
ATOM     35  C   UNL     1      -9.405  11.135  -0.143  0.00  0.00    +0.002 A 
ATOM     36  C   UNL     1     -10.110  10.223  -0.873  0.00  0.00    +0.032 A 
ATOM     37  C   UNL     1      -9.441   9.154  -1.485  0.00  0.00    +0.113 A 
ATOM     38  N   UNL     1      -9.855   8.123  -2.248  0.00  0.00    -0.129 NA
ATOM     39  N   UNL     1      -8.855   7.388  -2.586  0.00  0.00    -0.065 NA
ENDBRANCH  30  31
ENDBRANCH  29  30
ENDBRANCH  28  29
ENDBRANCH  25  28
ENDBRANCH   4  25
TORSDOF 7
