REMARK  Name = ZINC20153088
REMARK  8 active torsions:
REMARK  status: ('A' for Active; 'I' for Inactive)
REMARK    1  A    between atoms: C_1  and  C_2
REMARK    2  A    between atoms: N_5  and  C_8
REMARK    3  A    between atoms: C_11  and  C_17
REMARK    4  A    between atoms: C_13  and  N_14
REMARK    5  A    between atoms: N_19  and  C_20
REMARK    6  A    between atoms: C_20  and  N_22
REMARK    7  A    between atoms: N_22  and  C_23
REMARK    8  A    between atoms: C_25  and  C_31
REMARK                            x       y       z     vdW  Elec       q    Type
REMARK                         _______ _______ _______ _____ _____    ______ ____
ROOT
ATOM      1  C   UNL     1      -2.096  -6.433   4.984  0.00  0.00    +0.250 C 
ATOM      2  O   UNL     1      -2.414  -6.119   6.114  0.00  0.00    -0.270 OA
ATOM      3  N   UNL     1      -2.277  -7.700   4.561  0.00  0.00    -0.264 N 
ATOM      4  H   UNL     1      -2.023  -7.952   3.659  0.00  0.00    +0.157 HD
ENDROOT
BRANCH   1   8
ATOM      5  C   UNL     1      -0.420  -3.549   2.365  0.00  0.00    +0.060 A 
ATOM      6  C   UNL     1      -0.608  -4.859   1.933  0.00  0.00    +0.026 A 
ATOM      7  C   UNL     1      -1.148  -5.790   2.774  0.00  0.00    +0.015 A 
ATOM      8  C   UNL     1      -1.514  -5.429   4.075  0.00  0.00    +0.039 A 
ATOM      9  C   UNL     1      -1.326  -4.114   4.512  0.00  0.00    +0.047 A 
ATOM     10  C   UNL     1      -0.777  -3.182   3.660  0.00  0.00    +0.148 A 
BRANCH   5  15
ATOM     11  C   UNL     1       1.817  -1.707  -2.297  0.00  0.00    +0.007 C 
ATOM     12  C   UNL     1       1.286  -1.587  -0.867  0.00  0.00    -0.011 C 
ATOM     13  C   UNL     1       2.090  -2.509   0.054  0.00  0.00    +0.022 C 
ATOM     14  C   UNL     1       1.578  -2.360   1.490  0.00  0.00    +0.105 C 
ATOM     15  N   UNL     1       0.130  -2.606   1.504  0.00  0.00    -0.328 N 
ATOM     16  C   UNL     1      -0.727  -1.837   0.590  0.00  0.00    +0.105 C 
ATOM     17  C   UNL     1      -0.189  -1.992  -0.836  0.00  0.00    +0.022 C 
ENDBRANCH   5  15
BRANCH  10  18
ATOM     18  N   UNL     1      -0.571  -1.790   4.119  0.00  0.00    +0.058 N 
ATOM     19  O   UNL     1      -0.781  -1.497   5.273  0.00  0.00    -0.126 OA
ATOM     20  O   UNL     1      -0.192  -0.947   3.341  0.00  0.00    -0.126 OA
ENDBRANCH  10  18
ENDBRANCH   1   8
BRANCH   3  21
ATOM     21  C   UNL     1      -2.810  -8.618   5.391  0.00  0.00    +0.141 C 
ATOM     22  S   UNL     1      -3.257  -8.175   6.983  0.00  0.00    -0.018 S 
BRANCH  21  23
ATOM     23  N   UNL     1      -2.990  -9.885   4.969  0.00  0.00    -0.295 N 
ATOM     24  H   UNL     1      -2.698 -10.147   4.081  0.00  0.00    +0.154 HD
BRANCH  23  25
ATOM     25  C   UNL     1      -3.599 -10.824   5.810  0.00  0.00    +0.052 A 
ATOM     26  C   UNL     1      -4.665 -10.448   6.609  0.00  0.00    +0.041 A 
ATOM     27  C   UNL     1      -5.270 -11.388   7.448  0.00  0.00    +0.083 A 
ATOM     28  C   UNL     1      -4.794 -12.703   7.474  0.00  0.00    +0.057 A 
ATOM     29  C   UNL     1      -3.730 -13.067   6.673  0.00  0.00    +0.042 A 
ATOM     30  C   UNL     1      -3.136 -12.136   5.839  0.00  0.00    +0.064 A 
ATOM     31 CL   UNL     1      -1.804 -12.605   4.830  0.00  0.00    -0.082 Cl
ATOM     32 CL   UNL     1      -5.540 -13.877   8.513  0.00  0.00    -0.083 Cl
BRANCH  27  33
ATOM     33  C   UNL     1      -6.405 -10.995   8.302  0.00  0.00    +0.388 C 
ATOM     34  O   UNL     1      -6.820  -9.845   8.278  0.00  0.00    -0.241 OA
ATOM     35  O   UNL     1      -6.933 -11.820   9.035  0.00  0.00    -0.241 OA
ENDBRANCH  27  33
ENDBRANCH  23  25
ENDBRANCH  21  23
ENDBRANCH   3  21
TORSDOF 7
