REMARK  Name = ZINC04172286
REMARK  6 active torsions:
REMARK  status: ('A' for Active; 'I' for Inactive)
REMARK    1  A    between atoms: C_1  and  C_2
REMARK    2  A    between atoms: C_2  and  C_3
REMARK    3  A    between atoms: C_2  and  C_4
REMARK    4  A    between atoms: C_2  and  C_5
REMARK    5  A    between atoms: C_8  and  C_11
REMARK    6  A    between atoms: C_22  and  N_50
REMARK                            x       y       z     vdW  Elec       q    Type
REMARK                         _______ _______ _______ _____ _____    ______ ____
ROOT
ATOM      1  C   UNL     1      -0.824  -0.169   5.152  0.00  0.00    +0.190 C 
ATOM      2  N   UNL     1      -1.268   1.215   4.908  0.00  0.00    -0.316 N 
ATOM      3  C   UNL     1      -1.323   1.622   3.600  0.00  0.00    +0.080 A 
ATOM      4  C   UNL     1      -0.566   1.022   2.581  0.00  0.00    +0.068 A 
ATOM      5  C   UNL     1      -0.739   1.584   1.253  0.00  0.00    -0.027 A 
ATOM      6  C   UNL     1      -1.613   2.613   1.158  0.00  0.00    -0.021 A 
ATOM      7  S   UNL     1      -2.213   2.855   2.808  0.00  0.00    -0.080 S 
ATOM      8  C   UNL     1      -1.972   3.364  -0.085  0.00  0.00    -0.036 C 
ATOM      9  C   UNL     1      -0.765   1.599  -1.223  0.00  0.00    -0.074 C 
ATOM     10  C   UNL     1      -0.013   1.086   0.008  0.00  0.00    +0.018 C 
ATOM     11  C   UNL     1      -1.357   3.620  -2.418  0.00  0.00    -0.096 C 
ATOM     12  C   UNL     1       0.325  -0.098   2.961  0.00  0.00    +0.248 C 
ATOM     13  O   UNL     1       1.103  -0.588   2.164  0.00  0.00    -0.270 OA
ATOM     14  N   UNL     1       0.238  -0.554   4.228  0.00  0.00    -0.289 N 
ATOM     15  H   UNL     1      -1.511   1.808   5.636  0.00  0.00    +0.149 HD
ATOM     16  H   UNL     1       0.918  -1.171   4.542  0.00  0.00    +0.151 HD
ATOM     17  N   UNL     1      -0.947   3.061  -1.112  0.00  0.00    +0.381 N 
ATOM     18  H   UNL     1      -0.056   3.488  -0.831  0.00  0.00    -0.082 HD
ENDROOT
BRANCH   1  22
ATOM     19  C   UNL     1      -4.142  -2.813   4.650  0.00  0.00    -0.042 A 
ATOM     20  C   UNL     1      -2.860  -3.252   4.375  0.00  0.00    +0.004 A 
ATOM     21  C   UNL     1      -1.787  -2.397   4.537  0.00  0.00    +0.007 A 
ATOM     22  C   UNL     1      -1.995  -1.102   4.975  0.00  0.00    -0.009 A 
ATOM     23  C   UNL     1      -3.276  -0.664   5.255  0.00  0.00    +0.007 A 
ATOM     24  C   UNL     1      -4.350  -1.518   5.088  0.00  0.00    +0.004 A 
BRANCH  19  26
ATOM     25  C   UNL     1      -5.136  -4.964   5.381  0.00  0.00    +0.015 C 
ATOM     26  C   UNL     1      -5.312  -3.745   4.472  0.00  0.00    -0.013 C 
ATOM     27  C   UNL     1      -6.606  -3.017   4.842  0.00  0.00    +0.015 C 
ATOM     28  C   UNL     1      -5.383  -4.203   3.014  0.00  0.00    +0.015 C 
ENDBRANCH  19  26
ENDBRANCH   1  22
TORSDOF 2
