REMARK  Name = ZINC44910498
REMARK  6 active torsions:
REMARK  status: ('A' for Active; 'I' for Inactive)
REMARK    1  A    between atoms: C_1  and  C_2
REMARK    2  A    between atoms: C_5  and  S_8
REMARK    3  A    between atoms: S_8  and  N_11
REMARK    4  A    between atoms: C_17  and  C_19
REMARK    5  A    between atoms: N_22  and  C_25
REMARK    6  A    between atoms: C_25  and  C_26
REMARK                            x       y       z     vdW  Elec       q    Type
REMARK                         _______ _______ _______ _____ _____    ______ ____
ROOT
ATOM      1  N   UNL     1       2.002  -6.541  -0.365  0.00  0.00    -0.174 NA
ATOM      2  C   UNL     1       2.722  -6.158  -1.588  0.00  0.00    +0.128 C 
ATOM      3  C   UNL     1       3.536  -4.890  -1.301  0.00  0.00    +0.125 C 
ATOM      4  N   UNL     1       4.301  -5.093  -0.064  0.00  0.00    -0.299 N 
ATOM      5  C   UNL     1       3.582  -5.476   1.159  0.00  0.00    +0.125 C 
ATOM      6  C   UNL     1       2.768  -6.739   0.874  0.00  0.00    +0.128 C 
ATOM      7  C   UNL     1       5.640  -4.932  -0.050  0.00  0.00    +0.219 C 
ATOM      8  O   UNL     1       6.232  -4.693  -1.081  0.00  0.00    -0.275 OA
ENDROOT
BRANCH   7   9
ATOM      9  C   UNL     1       6.400  -5.049   1.245  0.00  0.00    +0.072 C 
ATOM     10  C   UNL     1       6.324  -3.722   2.005  0.00  0.00    -0.006 C 
ATOM     11  C   UNL     1       7.164  -3.822   3.281  0.00  0.00    -0.078 C 
ATOM     12  N   UNL     1       8.560  -4.108   2.930  0.00  0.00    +0.382 N 
ATOM     13  C   UNL     1       8.649  -5.413   2.265  0.00  0.00    -0.078 C 
ATOM     14  C   UNL     1       7.867  -5.374   0.951  0.00  0.00    -0.006 C 
ATOM     15  H   UNL     1       8.904  -3.391   2.309  0.00  0.00    -0.081 HD
BRANCH  12  16
ATOM     16  C   UNL     1       9.376  -4.126   4.152  0.00  0.00    -0.043 C 
BRANCH  16  17
ATOM     17  C   UNL     1      10.827  -4.297   3.784  0.00  0.00    -0.064 A 
ATOM     18  C   UNL     1      11.367  -5.565   3.675  0.00  0.00    +0.003 A 
ATOM     19  C   UNL     1      12.698  -5.723   3.338  0.00  0.00    +0.015 A 
ATOM     20  C   UNL     1      13.490  -4.612   3.109  0.00  0.00    +0.018 A 
ATOM     21  C   UNL     1      12.949  -3.344   3.218  0.00  0.00    +0.015 A 
ATOM     22  C   UNL     1      11.617  -3.187   3.551  0.00  0.00    +0.003 A 
ATOM     23 BR   UNL     1      15.311  -4.827   2.648  0.00  0.00    -0.050 Br
ENDBRANCH  16  17
ENDBRANCH  12  16
ENDBRANCH   7   9
BRANCH   1  24
ATOM     24  S   UNL     1       0.358  -6.739  -0.381  0.00  0.00    +0.061 S 
ATOM     25  O   UNL     1       0.043  -7.603   0.702  0.00  0.00    -0.153 OA
ATOM     26  O   UNL     1      -0.002  -7.037  -1.723  0.00  0.00    -0.153 OA
BRANCH  24  31
ATOM     27  C   UNL     1      -2.100  -1.383   0.914  0.00  0.00    +0.044 C 
ATOM     28  C   UNL     1      -1.486  -2.720   0.591  0.00  0.00    -0.050 A 
ATOM     29  C   UNL     1      -1.224  -3.062  -0.723  0.00  0.00    +0.005 A 
ATOM     30  C   UNL     1      -0.661  -4.289  -1.020  0.00  0.00    +0.029 A 
ATOM     31  C   UNL     1      -0.358  -5.174  -0.003  0.00  0.00    +0.105 A 
ATOM     32  C   UNL     1      -0.619  -4.833   1.311  0.00  0.00    +0.029 A 
ATOM     33  C   UNL     1      -1.178  -3.604   1.608  0.00  0.00    +0.005 A 
ENDBRANCH  24  31
ENDBRANCH   1  24
TORSDOF 5
