REMARK  Name = ZINC11053686
REMARK  10 active torsions:
REMARK  status: ('A' for Active; 'I' for Inactive)
REMARK    1  A    between atoms: C_1  and  C_2
REMARK    2  A    between atoms: C_2  and  C_4
REMARK    3  A    between atoms: C_2  and  O_11
REMARK    4  A    between atoms: N_6  and  C_7
REMARK    5  A    between atoms: C_7  and  C_8
REMARK    6  A    between atoms: C_7  and  C_9
REMARK    7  A    between atoms: C_7  and  C_10
REMARK    8  A    between atoms: O_11  and  C_12
REMARK    9  A    between atoms: C_12  and  C_14
REMARK   10  A    between atoms: C_26  and  C_29
REMARK                            x       y       z     vdW  Elec       q    Type
REMARK                         _______ _______ _______ _____ _____    ______ ____
ROOT
ATOM      1  C   UNL     1       2.933  -1.032  -2.240  0.00  0.00    +0.101 C 
ATOM      2  C   UNL     1       2.383  -2.445  -2.450  0.00  0.00    +0.033 C 
ATOM      3  C   UNL     1       2.970  -3.031  -3.737  0.00  0.00    +0.107 C 
ATOM      4  N   UNL     1       4.436  -2.959  -3.665  0.00  0.00    -0.314 N 
ATOM      5  C   UNL     1       5.066  -1.663  -3.377  0.00  0.00    +0.107 C 
ATOM      6  C   UNL     1       4.456  -1.092  -2.093  0.00  0.00    +0.033 C 
ATOM      7  C   UNL     1       5.212  -4.096  -3.864  0.00  0.00    +0.142 A 
ATOM      8  C   UNL     1       4.595  -5.299  -4.259  0.00  0.00    +0.049 A 
ATOM      9  C   UNL     1       5.344  -6.416  -4.456  0.00  0.00    +0.053 A 
ATOM     10  C   UNL     1       6.737  -6.352  -4.260  0.00  0.00    +0.178 A 
ATOM     11  N   UNL     1       7.718  -7.234  -4.365  0.00  0.00    -0.128 NA
ATOM     12  N   UNL     1       8.834  -6.663  -4.071  0.00  0.00    -0.123 NA
ATOM     13  C   UNL     1       8.632  -5.404  -3.767  0.00  0.00    +0.258 A 
ATOM     14  N   UNL     1       7.308  -5.164  -3.875  0.00  0.00    -0.187 N 
ATOM     15  N   UNL     1       6.511  -4.033  -3.685  0.00  0.00    -0.148 NA
ENDROOT
BRANCH  13  16
ATOM     16  C   UNL     1       9.687  -4.405  -3.368  0.00  0.00    +0.454 C 
ATOM     17  F   UNL     1      10.952  -4.908  -3.693  0.00  0.00    -0.163 F 
ATOM     18  F   UNL     1       9.474  -3.204  -4.051  0.00  0.00    -0.163 F 
ATOM     19  F   UNL     1       9.616  -4.177  -1.990  0.00  0.00    -0.163 F 
ENDBRANCH  13  16
BRANCH   1  20
ATOM     20  C   UNL     1       2.332  -0.439  -0.992  0.00  0.00    +0.311 C 
ATOM     21  O   UNL     1       3.047  -0.099  -0.080  0.00  0.00    -0.251 OA
BRANCH  20  22
ATOM     22  O   UNL     1       1.002  -0.288  -0.895  0.00  0.00    -0.452 OA
BRANCH  22  24
ATOM     23  C   UNL     1       0.429   1.803   0.173  0.00  0.00    +0.062 C 
ATOM     24  C   UNL     1       0.500   0.281   0.316  0.00  0.00    +0.258 C 
BRANCH  24  25
ATOM     25  C   UNL     1      -0.878  -0.263   0.594  0.00  0.00    +0.254 C 
ATOM     26  O   UNL     1      -1.418  -0.988  -0.214  0.00  0.00    -0.272 OA
ATOM     27  N   UNL     1      -1.510   0.057   1.740  0.00  0.00    -0.308 N 
ATOM     28  H   UNL     1      -1.078   0.637   2.387  0.00  0.00    +0.149 HD
BRANCH  27  29
ATOM     29  C   UNL     1      -2.849  -0.472   2.010  0.00  0.00    +0.026 C 
ATOM     30  C   UNL     1      -2.800  -2.001   2.029  0.00  0.00    +0.031 C 
ATOM     31  C   UNL     1      -3.335   0.040   3.368  0.00  0.00    +0.031 C 
ATOM     32  C   UNL     1      -3.812  -0.006   0.916  0.00  0.00    +0.031 C 
ENDBRANCH  27  29
ENDBRANCH  24  25
ENDBRANCH  22  24
ENDBRANCH  20  22
ENDBRANCH   1  20
TORSDOF 6
