REMARK  Name = ZINC41001372
REMARK  14 active torsions:
REMARK  status: ('A' for Active; 'I' for Inactive)
REMARK    1  A    between atoms: C_1  and  C_2
REMARK    2  A    between atoms: C_2  and  C_3
REMARK    3  A    between atoms: C_3  and  C_4
REMARK    4  A    between atoms: C_4  and  S_5
REMARK    5  A    between atoms: S_5  and  C_6
REMARK    6  A    between atoms: C_11  and  C_20
REMARK    7  A    between atoms: C_13  and  C_17
REMARK    8  A    between atoms: C_14  and  C_16
REMARK    9  A    between atoms: C_17  and  C_19
REMARK   10  A    between atoms: C_23  and  O_28
REMARK   11  A    between atoms: C_24  and  O_26
REMARK   12  A    between atoms: O_26  and  C_27
REMARK   13  A    between atoms: O_28  and  C_29
REMARK   14  A    between atoms: C_29  and  C_30
REMARK                            x       y       z     vdW  Elec       q    Type
REMARK                         _______ _______ _______ _____ _____    ______ ____
ROOT
ATOM      1  C   UNL     1       1.609  -4.388  -2.745  0.00  0.00    +0.210 A 
ATOM      2  N   UNL     1       0.979  -5.019  -1.743  0.00  0.00    -0.187 NA
ATOM      3  C   UNL     1       1.102  -6.310  -1.895  0.00  0.00    +0.219 A 
ATOM      4  N   UNL     1       1.821  -6.535  -3.022  0.00  0.00    -0.220 N 
ATOM      5  N   UNL     1       2.134  -5.284  -3.553  0.00  0.00    -0.141 NA
ATOM      6  C   UNL     1       2.152  -7.868  -3.518  0.00  0.00    +0.176 C 
ATOM      7  C   UNL     1       1.841  -8.889  -2.456  0.00  0.00    +0.040 C 
ATOM      8  C   UNL     1       1.122  -8.604  -1.353  0.00  0.00    +0.016 C 
ATOM      9  N   UNL     1       0.626  -7.351  -1.109  0.00  0.00    -0.287 N 
ATOM     10  C   UNL     1       0.855  -9.700  -0.353  0.00  0.00    +0.061 C 
ATOM     11  H   UNL     1      -0.032  -7.196  -0.414  0.00  0.00    +0.155 HD
ENDROOT
BRANCH   6  12
ATOM     12  C   UNL     1       1.336  -8.162  -4.751  0.00  0.00    -0.015 A 
ATOM     13  C   UNL     1      -0.045  -8.158  -4.682  0.00  0.00    +0.010 A 
ATOM     14  C   UNL     1      -0.797  -8.426  -5.810  0.00  0.00    +0.050 A 
ATOM     15  C   UNL     1      -0.168  -8.700  -7.014  0.00  0.00    +0.162 A 
ATOM     16  C   UNL     1       1.222  -8.704  -7.084  0.00  0.00    +0.162 A 
ATOM     17  C   UNL     1       1.970  -8.429  -5.950  0.00  0.00    +0.055 A 
BRANCH  16  18
ATOM     18  O   UNL     1       1.845  -8.973  -8.263  0.00  0.00    -0.491 OA
ATOM     19  C   UNL     1       3.274  -8.959  -8.259  0.00  0.00    +0.277 C 
ENDBRANCH  16  18
BRANCH  15  20
ATOM     20  O   UNL     1      -0.906  -8.965  -8.124  0.00  0.00    -0.484 OA
BRANCH  20  21
ATOM     21  C   UNL     1      -2.328  -8.944  -7.978  0.00  0.00    +0.264 C 
BRANCH  21  22
ATOM     22  C   UNL     1      -2.974  -9.258  -9.303  0.00  0.00    -0.009 A 
ATOM     23  C   UNL     1      -3.275  -8.237 -10.184  0.00  0.00    +0.007 A 
ATOM     24  C   UNL     1      -3.868  -8.524 -11.400  0.00  0.00    +0.002 A 
ATOM     25  C   UNL     1      -4.159  -9.833 -11.735  0.00  0.00    +0.020 A 
ATOM     26  C   UNL     1      -3.857 -10.856 -10.854  0.00  0.00    +0.041 A 
ATOM     27  C   UNL     1      -3.259 -10.568  -9.640  0.00  0.00    +0.027 A 
ATOM     28 CL   UNL     1      -4.223 -12.500 -11.274  0.00  0.00    -0.084 Cl
ENDBRANCH  21  22
ENDBRANCH  20  21
ENDBRANCH  15  20
ENDBRANCH   6  12
BRANCH   7  29
ATOM     29  C   UNL     1       2.321 -10.196  -2.623  0.00  0.00    +0.160 C 
ATOM     30  O   UNL     1       3.166 -10.634  -1.866  0.00  0.00    -0.293 OA
ATOM     31  C   UNL     1       1.790 -11.057  -3.739  0.00  0.00    +0.091 C 
ENDBRANCH   7  29
BRANCH   1  32
ATOM     32  S   UNL     1       1.708  -2.641  -2.952  0.00  0.00    -0.084 S 
BRANCH  32  33
ATOM     33  C   UNL     1       0.798  -1.979  -1.529  0.00  0.00    +0.077 C 
BRANCH  33  34
ATOM     34  C   UNL     1       0.806  -0.450  -1.585  0.00  0.00    +0.011 C 
BRANCH  34  36
ATOM     35  C   UNL     1       0.047   1.638  -0.442  0.00  0.00    +0.004 C 
ATOM     36  C   UNL     1       0.039   0.109  -0.386  0.00  0.00    -0.003 C 
ENDBRANCH  34  36
ENDBRANCH  33  34
ENDBRANCH  32  33
ENDBRANCH   1  32
TORSDOF 10
