REMARK  Name = ZINC37442857
REMARK  8 active torsions:
REMARK  status: ('A' for Active; 'I' for Inactive)
REMARK    1  A    between atoms: C_1  and  C_2
REMARK    2  A    between atoms: C_5  and  C_8
REMARK    3  A    between atoms: C_8  and  N_9
REMARK    4  A    between atoms: C_18  and  C_19
REMARK    5  A    between atoms: C_18  and  C_20
REMARK    6  A    between atoms: N_22  and  C_23
REMARK    7  A    between atoms: C_28  and  C_33
REMARK    8  A    between atoms: C_30  and  C_32
REMARK                            x       y       z     vdW  Elec       q    Type
REMARK                         _______ _______ _______ _____ _____    ______ ____
ROOT
ATOM      1  N   UNL     1       1.482  -5.197  -0.204  0.00  0.00    -0.276 N 
ATOM      2  C   UNL     1       2.149  -5.416  -1.362  0.00  0.00    +0.264 C 
ATOM      3  O   UNL     1       1.601  -5.325  -2.445  0.00  0.00    -0.268 OA
ATOM      4  C   UNL     1       3.569  -5.768  -1.239  0.00  0.00    +0.106 A 
ATOM      5  C   UNL     1       4.541  -5.879  -2.189  0.00  0.00    +0.048 A 
ATOM      6  C   UNL     1       5.716  -6.224  -1.533  0.00  0.00    +0.038 A 
ATOM      7  C   UNL     1       5.471  -6.335  -0.156  0.00  0.00    +0.057 A 
ATOM      8  N   UNL     1       4.125  -6.056   0.002  0.00  0.00    -0.333 N 
ATOM      9  C   UNL     1       3.325  -6.052   1.230  0.00  0.00    +0.157 C 
ATOM     10  C   UNL     1       2.174  -5.053   1.072  0.00  0.00    +0.129 C 
ATOM     11  C   UNL     1       2.730  -3.631   1.175  0.00  0.00    +0.043 C 
ATOM     12  C   UNL     1       6.579  -6.677   0.632  0.00  0.00    +0.034 A 
ATOM     13  C   UNL     1       7.784  -6.880   0.058  0.00  0.00    +0.048 A 
ATOM     14  S   UNL     1       7.445  -6.599  -1.671  0.00  0.00    -0.095 S 
ENDROOT
BRANCH  10  15
ATOM     15  C   UNL     1       1.186  -5.269   2.188  0.00  0.00    +0.238 C 
ATOM     16  O   UNL     1       1.138  -4.488   3.115  0.00  0.00    -0.273 OA
ATOM     17  N   UNL     1       0.354  -6.329   2.157  0.00  0.00    -0.310 N 
ATOM     18  H   UNL     1       0.337  -6.909   1.380  0.00  0.00    +0.149 HD
BRANCH  17  19
ATOM     19  C   UNL     1      -0.525  -6.605   3.296  0.00  0.00    +0.076 C 
ATOM     20  C   UNL     1       0.252  -7.378   4.364  0.00  0.00    +0.022 C 
ATOM     21  C   UNL     1      -0.666  -7.667   5.553  0.00  0.00    +0.002 C 
ATOM     22  C   UNL     1      -1.860  -8.501   5.086  0.00  0.00    +0.003 C 
ATOM     23  C   UNL     1      -2.636  -7.727   4.019  0.00  0.00    -0.009 C 
ATOM     24  C   UNL     1      -1.719  -7.439   2.829  0.00  0.00    +0.009 C 
ATOM     25  C   UNL     1      -1.219  -8.759   2.239  0.00  0.00    +0.009 C 
ATOM     26  C   UNL     1      -3.831  -8.562   3.552  0.00  0.00    +0.008 C 
ENDBRANCH  17  19
ENDBRANCH  10  15
BRANCH   1  27
ATOM     27  C   UNL     1       0.021  -5.095  -0.234  0.00  0.00    +0.144 C 
BRANCH  27  32
ATOM     28  C   UNL     1      -1.512   0.403  -1.136  0.00  0.00    +0.044 C 
ATOM     29  C   UNL     1      -1.112  -1.030  -0.901  0.00  0.00    -0.050 A 
ATOM     30  C   UNL     1      -0.858  -1.862  -1.975  0.00  0.00    +0.003 A 
ATOM     31  C   UNL     1      -0.491  -3.178  -1.760  0.00  0.00    +0.005 A 
ATOM     32  C   UNL     1      -0.378  -3.661  -0.469  0.00  0.00    -0.030 A 
ATOM     33  C   UNL     1      -0.630  -2.829   0.605  0.00  0.00    +0.005 A 
ATOM     34  C   UNL     1      -0.993  -1.512   0.390  0.00  0.00    +0.003 A 
ENDBRANCH  27  32
ENDBRANCH   1  27
TORSDOF 4
