REMARK  Name = ZINC38550866
REMARK  6 active torsions:
REMARK  status: ('A' for Active; 'I' for Inactive)
REMARK    1  A    between atoms: C_1  and  C_2
REMARK    2  A    between atoms: C_2  and  O_3
REMARK    3  A    between atoms: O_3  and  C_4
REMARK    4  A    between atoms: N_21  and  C_22
REMARK    5  A    between atoms: C_22  and  C_23
REMARK    6  A    between atoms: C_22  and  C_29
REMARK                            x       y       z     vdW  Elec       q    Type
REMARK                         _______ _______ _______ _____ _____    ______ ____
ROOT
ATOM      1  C   UNL     1       0.781  -1.806  -1.331  0.00  0.00    +0.147 A 
ATOM      2  C   UNL     1       0.248  -2.651  -0.386  0.00  0.00    +0.048 A 
ATOM      3  C   UNL     1       0.331  -4.029  -0.517  0.00  0.00    +0.005 A 
ATOM      4  C   UNL     1       0.963  -4.567  -1.623  0.00  0.00    +0.017 A 
ATOM      5  C   UNL     1       1.499  -3.733  -2.574  0.00  0.00    +0.044 A 
ATOM      6  C   UNL     1       1.431  -2.326  -2.479  0.00  0.00    +0.122 A 
ATOM      7  N   UNL     1       2.000  -1.642  -3.498  0.00  0.00    -0.221 NA
ATOM      8  C   UNL     1       2.576  -2.241  -4.514  0.00  0.00    +0.162 A 
ATOM      9  S   UNL     1       2.372  -3.968  -4.103  0.00  0.00    -0.052 S 
ATOM     10  N   UNL     1       3.193  -1.679  -5.615  0.00  0.00    -0.307 N 
ATOM     11  C   UNL     1       3.274  -0.219  -5.763  0.00  0.00    +0.126 C 
ATOM     12  C   UNL     1       4.745   0.174  -5.946  0.00  0.00    +0.128 C 
ATOM     13  N   UNL     1       5.332  -0.678  -6.990  0.00  0.00    -0.283 N 
ATOM     14  C   UNL     1       5.251  -2.138  -6.842  0.00  0.00    +0.128 C 
ATOM     15  C   UNL     1       3.785  -2.531  -6.656  0.00  0.00    +0.126 C 
ATOM     16  C   UNL     1       5.934  -0.130  -8.064  0.00  0.00    +0.303 C 
ATOM     17  O   UNL     1       5.912   1.075  -8.224  0.00  0.00    -0.253 OA
ATOM     18  N   UNL     1       6.560  -0.917  -8.961  0.00  0.00    -0.288 N 
ATOM     19  H   UNL     1       6.516  -1.882  -8.873  0.00  0.00    +0.151 HD
ENDROOT
BRANCH   1  20
ATOM     20  O   UNL     1       0.680  -0.461  -1.167  0.00  0.00    -0.490 OA
BRANCH  20  22
ATOM     21  C   UNL     1      -0.002   1.530   0.022  0.00  0.00    +0.048 C 
ATOM     22  C   UNL     1       0.014   0.000   0.011  0.00  0.00    +0.226 C 
ENDBRANCH  20  22
ENDBRANCH   1  20
BRANCH  18  23
ATOM     23  C   UNL     1       7.307  -0.316 -10.069  0.00  0.00    +0.135 C 
BRANCH  23  24
ATOM     24  C   UNL     1       8.701   0.023  -9.609  0.00  0.00    -0.023 A 
ATOM     25  C   UNL     1       9.388  -0.849  -8.785  0.00  0.00    +0.006 A 
ATOM     26  C   UNL     1      10.668  -0.538  -8.363  0.00  0.00    +0.000 A 
ATOM     27  C   UNL     1      11.260   0.644  -8.766  0.00  0.00    +0.000 A 
ATOM     28  C   UNL     1      10.573   1.515  -9.591  0.00  0.00    +0.000 A 
ATOM     29  C   UNL     1       9.296   1.202 -10.016  0.00  0.00    +0.006 A 
ENDBRANCH  23  24
BRANCH  23  30
ATOM     30  C   UNL     1       7.379  -1.292 -11.214  0.00  0.00    -0.023 A 
ATOM     31  C   UNL     1       7.580  -2.637 -10.965  0.00  0.00    +0.006 A 
ATOM     32  C   UNL     1       7.646  -3.533 -12.016  0.00  0.00    +0.000 A 
ATOM     33  C   UNL     1       7.510  -3.083 -13.316  0.00  0.00    +0.000 A 
ATOM     34  C   UNL     1       7.308  -1.739 -13.566  0.00  0.00    +0.000 A 
ATOM     35  C   UNL     1       7.237  -0.844 -12.514  0.00  0.00    +0.006 A 
ENDBRANCH  23  30
ENDBRANCH  18  23
TORSDOF 5
