REMARK  Name = ZINC64788612
REMARK  5 active torsions:
REMARK  status: ('A' for Active; 'I' for Inactive)
REMARK    1  A    between atoms: C_1  and  C_2
REMARK    2  A    between atoms: C_6  and  C_7
REMARK    3  A    between atoms: N_18  and  C_21
REMARK    4  A    between atoms: C_26  and  O_27
REMARK    5  A    between atoms: O_27  and  C_28
REMARK                            x       y       z     vdW  Elec       q    Type
REMARK                         _______ _______ _______ _____ _____    ______ ____
ROOT
ATOM      1  C   UNL     1       0.030  -0.179   2.581  0.00  0.00    +0.115 C 
ATOM      2  C   UNL     1       1.414  -0.390   3.241  0.00  0.00    +0.078 C 
ATOM      3  C   UNL     1       1.038  -0.756   4.665  0.00  0.00    +0.038 C 
ATOM      4  N   UNL     1      -0.272  -1.065   4.682  0.00  0.00    -0.283 N 
ATOM      5  N   UNL     1      -0.851  -0.994   3.449  0.00  0.00    -0.235 NA
ATOM      6  C   UNL     1       1.891  -0.771   5.753  0.00  0.00    +0.118 C 
ATOM      7  C   UNL     1       3.313  -0.408   5.621  0.00  0.00    +0.258 C 
ATOM      8  N   UNL     1       4.086  -0.445   6.726  0.00  0.00    -0.235 N 
ATOM      9  C   UNL     1       3.588  -0.801   7.918  0.00  0.00    +0.320 C 
ATOM     10  O   UNL     1       4.338  -0.814   8.874  0.00  0.00    -0.251 OA
ATOM     11  N   UNL     1       2.306  -1.143   8.111  0.00  0.00    -0.186 N 
ATOM     12  C   UNL     1       1.416  -1.145   7.098  0.00  0.00    +0.265 C 
ATOM     13  O   UNL     1       0.254  -1.452   7.287  0.00  0.00    -0.269 OA
ATOM     14  O   UNL     1       3.777  -0.084   4.544  0.00  0.00    -0.270 OA
ATOM     15  H   UNL     1      -1.775  -0.593   3.505  0.00  0.00    +0.145 HD
ATOM     16  H   UNL     1       5.024  -0.208   6.656  0.00  0.00    +0.159 HD
ATOM     17  H   UNL     1      -0.755  -1.311   5.487  0.00  0.00    +0.166 HD
ENDROOT
BRANCH   1  23
ATOM     18  C   UNL     1      -0.018   1.503   0.010  0.00  0.00    +0.044 C 
ATOM     19  C   UNL     1       0.002  -0.004   0.002  0.00  0.00    -0.039 A 
ATOM     20  C   UNL     1       0.006  -0.699  -1.193  0.00  0.00    +0.011 A 
ATOM     21  C   UNL     1       0.024  -2.054  -1.165  0.00  0.00    +0.046 A 
ATOM     22  S   UNL     1       0.037  -2.387   0.589  0.00  0.00    -0.100 S 
ATOM     23  C   UNL     1       0.023  -0.698   1.166  0.00  0.00    +0.011 A 
ENDBRANCH   1  23
BRANCH  11  24
ATOM     24  C   UNL     1       1.879  -1.501   9.399  0.00  0.00    +0.087 A 
ATOM     25  C   UNL     1       1.391  -0.533  10.264  0.00  0.00    +0.028 A 
ATOM     26  C   UNL     1       0.971  -0.888  11.532  0.00  0.00    +0.002 A 
ATOM     27  C   UNL     1       1.036  -2.207  11.941  0.00  0.00    +0.004 A 
ATOM     28  C   UNL     1       1.521  -3.177  11.085  0.00  0.00    +0.047 A 
ATOM     29  C   UNL     1       1.939  -2.830   9.810  0.00  0.00    +0.142 A 
BRANCH  29  30
ATOM     30  O   UNL     1       2.411  -3.784   8.964  0.00  0.00    -0.493 OA
ATOM     31  C   UNL     1       2.443  -5.126   9.453  0.00  0.00    +0.277 C 
ENDBRANCH  29  30
ENDBRANCH  11  24
TORSDOF 3
