REMARK  Name = ZINC46735423
REMARK  10 active torsions:
REMARK  status: ('A' for Active; 'I' for Inactive)
REMARK    1  A    between atoms: C_1  and  N_2
REMARK    2  A    between atoms: N_2  and  C_3
REMARK    3  A    between atoms: N_2  and  C_31
REMARK    4  A    between atoms: C_3  and  C_4
REMARK    5  A    between atoms: C_9  and  N_10
REMARK    6  A    between atoms: C_11  and  C_13
REMARK    7  A    between atoms: N_18  and  S_20
REMARK    8  A    between atoms: S_20  and  C_23
REMARK    9  A    between atoms: C_26  and  O_29
REMARK   10  A    between atoms: O_29  and  C_30
REMARK                            x       y       z     vdW  Elec       q    Type
REMARK                         _______ _______ _______ _____ _____    ______ ____
ROOT
ATOM      1  N   UNL     1      -1.552  -1.973   2.069  0.00  0.00    -0.285 N 
ATOM      2  C   UNL     1      -2.556  -2.760   2.505  0.00  0.00    +0.222 C 
ATOM      3  O   UNL     1      -3.178  -2.455   3.500  0.00  0.00    -0.275 OA
ATOM      4  H   UNL     1      -1.098  -2.182   1.238  0.00  0.00    +0.155 HD
ENDROOT
BRANCH   1  10
ATOM      5  C   UNL     1       0.169  -0.475   2.861  0.00  0.00    -0.043 A 
ATOM      6  C   UNL     1       0.546   0.633   3.594  0.00  0.00    +0.003 A 
ATOM      7  C   UNL     1      -0.404   1.361   4.287  0.00  0.00    +0.000 A 
ATOM      8  C   UNL     1      -1.733   0.983   4.249  0.00  0.00    +0.002 A 
ATOM      9  C   UNL     1      -2.117  -0.124   3.517  0.00  0.00    +0.023 A 
ATOM     10  C   UNL     1      -1.166  -0.855   2.816  0.00  0.00    +0.035 A 
BRANCH   5  11
ATOM     11  C   UNL     1       1.204  -1.268   2.106  0.00  0.00    -0.041 C 
BRANCH  11  13
ATOM     12  C   UNL     1       1.594   0.523   0.559  0.00  0.00    -0.095 C 
ATOM     13  N   UNL     1       1.180  -0.880   0.689  0.00  0.00    +0.382 N 
ATOM     14  H   UNL     1       0.245  -0.991   0.326  0.00  0.00    -0.081 HD
BRANCH  13  15
ATOM     15  C   UNL     1       2.104  -1.736  -0.068  0.00  0.00    -0.069 C 
ATOM     16  C   UNL     1       2.079  -1.332  -1.544  0.00  0.00    -0.015 C 
ATOM     17  C   UNL     1       3.041  -2.223  -2.332  0.00  0.00    -0.002 C 
ATOM     18  C   UNL     1       2.610  -3.684  -2.196  0.00  0.00    -0.000 C 
ATOM     19  C   UNL     1       2.635  -4.088  -0.721  0.00  0.00    -0.002 C 
ATOM     20  C   UNL     1       1.673  -3.197   0.068  0.00  0.00    -0.015 C 
ENDBRANCH  13  15
ENDBRANCH  11  13
ENDBRANCH   5  11
ENDBRANCH   1  10
BRANCH   2  21
ATOM     21  C   UNL     1      -2.905  -4.020   1.755  0.00  0.00    +0.091 C 
ATOM     22  C   UNL     1      -3.310  -3.666   0.322  0.00  0.00    +0.015 C 
ATOM     23  C   UNL     1      -3.633  -4.947  -0.450  0.00  0.00    +0.018 C 
ATOM     24  C   UNL     1      -4.810  -5.661   0.223  0.00  0.00    +0.109 C 
ATOM     25  N   UNL     1      -4.486  -5.875   1.639  0.00  0.00    -0.176 NA
ATOM     26  C   UNL     1      -4.073  -4.723   2.453  0.00  0.00    +0.122 C 
BRANCH  25  27
ATOM     27  S   UNL     1      -4.583  -7.388   2.308  0.00  0.00    +0.061 S 
ATOM     28  O   UNL     1      -4.770  -7.203   3.704  0.00  0.00    -0.153 OA
ATOM     29  O   UNL     1      -5.496  -8.127   1.508  0.00  0.00    -0.153 OA
BRANCH  27  30
ATOM     30  C   UNL     1      -3.006  -8.148   2.107  0.00  0.00    +0.106 A 
ATOM     31  C   UNL     1      -2.736  -8.886   0.969  0.00  0.00    +0.032 A 
ATOM     32  C   UNL     1      -1.501  -9.484   0.809  0.00  0.00    +0.047 A 
ATOM     33  C   UNL     1      -0.531  -9.343   1.791  0.00  0.00    +0.120 A 
ATOM     34  C   UNL     1      -0.805  -8.602   2.932  0.00  0.00    +0.047 A 
ATOM     35  C   UNL     1      -2.040  -8.002   3.084  0.00  0.00    +0.032 A 
BRANCH  33  36
ATOM     36  O   UNL     1       0.684  -9.931   1.637  0.00  0.00    -0.495 OA
ATOM     37  C   UNL     1       1.634  -9.743   2.688  0.00  0.00    +0.277 C 
ENDBRANCH  33  36
ENDBRANCH  27  30
ENDBRANCH  25  27
ENDBRANCH   2  21
TORSDOF 8
