REMARK  Name = ZINC12878212
REMARK  11 active torsions:
REMARK  status: ('A' for Active; 'I' for Inactive)
REMARK    1  A    between atoms: C_1  and  C_2
REMARK    2  A    between atoms: C_8  and  N_10
REMARK    3  A    between atoms: N_10  and  C_11
REMARK    4  A    between atoms: C_19  and  N_35
REMARK    5  A    between atoms: C_25  and  O_33
REMARK    6  A    between atoms: C_26  and  O_31
REMARK    7  A    between atoms: C_27  and  O_29
REMARK    8  A    between atoms: O_29  and  C_30
REMARK    9  A    between atoms: O_31  and  C_32
REMARK   10  A    between atoms: O_33  and  C_34
REMARK   11  A    between atoms: C_36  and  C_38
REMARK                            x       y       z     vdW  Elec       q    Type
REMARK                         _______ _______ _______ _____ _____    ______ ____
ROOT
ATOM      1  C   UNL     1      -4.207  -1.316  -1.588  0.00  0.00    +0.075 A 
ATOM      2  C   UNL     1      -3.253  -0.551  -2.189  0.00  0.00    +0.027 A 
ATOM      3  C   UNL     1      -1.956  -0.411  -1.860  0.00  0.00    +0.011 A 
ATOM      4  C   UNL     1      -1.191  -0.929  -0.846  0.00  0.00    -0.009 A 
ATOM      5  C   UNL     1      -1.641  -1.755   0.184  0.00  0.00    -0.016 A 
ATOM      6  C   UNL     1      -2.884  -2.257   0.291  0.00  0.00    +0.058 A 
ATOM      7  C   UNL     1      -4.010  -2.120  -0.468  0.00  0.00    +0.200 A 
ATOM      8  O   UNL     1      -4.971  -2.792  -0.119  0.00  0.00    -0.286 OA
ATOM      9  C   UNL     1      -0.667  -2.133   1.282  0.00  0.00    +0.104 C 
ATOM     10  C   UNL     1       0.264  -3.248   0.849  0.00  0.00    +0.032 C 
ATOM     11  C   UNL     1       0.804  -2.997  -0.556  0.00  0.00    +0.038 C 
ATOM     12  C   UNL     1       1.223  -1.555  -0.690  0.00  0.00    -0.032 A 
ATOM     13  C   UNL     1       0.258  -0.566  -0.846  0.00  0.00    +0.031 A 
ATOM     14  C   UNL     1       0.636   0.772  -0.988  0.00  0.00    +0.173 A 
ATOM     15  C   UNL     1       1.984   1.106  -0.965  0.00  0.00    +0.204 A 
ATOM     16  C   UNL     1       2.942   0.112  -0.800  0.00  0.00    +0.165 A 
ATOM     17  C   UNL     1       2.559  -1.216  -0.663  0.00  0.00    +0.054 A 
ENDROOT
BRANCH   9  18
ATOM     18  N   UNL     1      -1.422  -2.572   2.458  0.00  0.00    -0.309 N 
ATOM     19  C   UNL     1      -1.916  -1.661   3.320  0.00  0.00    +0.210 C 
ATOM     20  O   UNL     1      -1.736  -0.479   3.122  0.00  0.00    -0.276 OA
ATOM     21  C   UNL     1      -2.693  -2.113   4.529  0.00  0.00    +0.109 C 
ATOM     22  H   UNL     1      -1.567  -3.518   2.616  0.00  0.00    +0.149 HD
ENDBRANCH   9  18
BRANCH   1  23
ATOM     23  N   UNL     1      -5.479  -1.291  -2.136  0.00  0.00    -0.338 N 
ATOM     24  H   UNL     1      -6.168  -1.879  -1.788  0.00  0.00    +0.146 HD
BRANCH  23  31
ATOM     25  C   UNL     1      -7.751   0.498  -1.972  0.00  0.00    +0.009 C 
ATOM     26  C   UNL     1      -7.292  -0.126  -3.292  0.00  0.00    +0.006 C 
ATOM     27  C   UNL     1      -8.023  -1.451  -3.511  0.00  0.00    +0.005 C 
ATOM     28  C   UNL     1      -7.564  -2.075  -4.830  0.00  0.00    +0.000 C 
ATOM     29  C   UNL     1      -6.056  -2.327  -4.778  0.00  0.00    +0.002 C 
ATOM     30  C   UNL     1      -5.324  -1.001  -4.559  0.00  0.00    +0.022 C 
ATOM     31  C   UNL     1      -5.783  -0.378  -3.240  0.00  0.00    +0.073 C 
ENDBRANCH  23  31
ENDBRANCH   1  23
BRANCH  16  32
ATOM     32  O   UNL     1       4.260   0.442  -0.774  0.00  0.00    -0.491 OA
ATOM     33  C   UNL     1       5.193  -0.626  -0.602  0.00  0.00    +0.277 C 
ENDBRANCH  16  32
BRANCH  15  34
ATOM     34  O   UNL     1       2.366   2.405  -1.103  0.00  0.00    -0.488 OA
ATOM     35  C   UNL     1       2.656   2.859  -2.426  0.00  0.00    +0.277 C 
ENDBRANCH  15  34
BRANCH  14  36
ATOM     36  O   UNL     1      -0.307   1.737  -1.153  0.00  0.00    -0.491 OA
ATOM     37  C   UNL     1      -0.779   2.392   0.026  0.00  0.00    +0.277 C 
ENDBRANCH  14  36
TORSDOF 6
