REMARK  Name = ZINC22831291
REMARK  11 active torsions:
REMARK  status: ('A' for Active; 'I' for Inactive)
REMARK    1  A    between atoms: C_1  and  C_2
REMARK    2  A    between atoms: C_6  and  N_9
REMARK    3  A    between atoms: C_7  and  C_8
REMARK    4  A    between atoms: C_10  and  S_14
REMARK    5  A    between atoms: S_14  and  C_15
REMARK    6  A    between atoms: C_15  and  C_16
REMARK    7  A    between atoms: C_17  and  C_33
REMARK    8  A    between atoms: C_18  and  C_27
REMARK    9  A    between atoms: N_23  and  C_24
REMARK   10  A    between atoms: C_33  and  O_35
REMARK   11  A    between atoms: O_35  and  C_36
REMARK                            x       y       z     vdW  Elec       q    Type
REMARK                         _______ _______ _______ _____ _____    ______ ____
ROOT
ATOM      1  C   UNL     1      -1.480   3.378  -2.062  0.00  0.00    +0.037 C 
ATOM      2  C   UNL     1      -0.937   2.142  -2.060  0.00  0.00    +0.079 C 
ATOM      3  C   UNL     1      -0.044   1.765  -0.895  0.00  0.00    +0.144 C 
ATOM      4  N   UNL     1       0.161   2.787   0.145  0.00  0.00    -0.288 N 
ATOM      5  C   UNL     1      -0.450   3.979   0.003  0.00  0.00    +0.307 C 
ATOM      6  O   UNL     1      -0.287   4.829   0.857  0.00  0.00    -0.252 OA
ATOM      7  N   UNL     1      -1.230   4.259  -1.048  0.00  0.00    -0.255 N 
ATOM      8  H   UNL     1       0.800   2.567   1.013  0.00  0.00    +0.151 HD
ENDROOT
BRANCH   3   9
ATOM      9  C   UNL     1       1.306   1.389  -1.449  0.00  0.00    -0.023 A 
ATOM     10  C   UNL     1       2.206   2.375  -1.808  0.00  0.00    +0.006 A 
ATOM     11  C   UNL     1       3.442   2.030  -2.322  0.00  0.00    +0.000 A 
ATOM     12  C   UNL     1       3.779   0.698  -2.476  0.00  0.00    +0.000 A 
ATOM     13  C   UNL     1       2.880  -0.288  -2.116  0.00  0.00    +0.000 A 
ATOM     14  C   UNL     1       1.643   0.057  -1.603  0.00  0.00    +0.006 A 
ENDBRANCH   3   9
BRANCH   7  15
ATOM     15  C   UNL     1      -1.851   5.584  -1.116  0.00  0.00    +0.083 C 
ATOM     16  C   UNL     1      -2.566   6.094   0.137  0.00  0.00    +0.025 C 
ATOM     17  C   UNL     1      -3.379   5.651  -1.082  0.00  0.00    +0.025 C 
ENDBRANCH   7  15
BRANCH   2  18
ATOM     18  C   UNL     1      -1.194   1.228  -3.109  0.00  0.00    +0.339 C 
ATOM     19  O   UNL     1      -1.804   1.593  -4.098  0.00  0.00    -0.245 OA
BRANCH  18  20
ATOM     20  O   UNL     1      -0.764  -0.047  -3.015  0.00  0.00    -0.465 OA
ATOM     21  C   UNL     1      -1.058  -0.914  -4.112  0.00  0.00    +0.280 C 
ENDBRANCH  18  20
ENDBRANCH   2  18
BRANCH   1  22
ATOM     22  C   UNL     1      -2.375   3.793  -3.201  0.00  0.00    +0.129 C 
BRANCH  22  23
ATOM     23  S   UNL     1      -1.384   4.600  -4.483  0.00  0.00    -0.078 S 
BRANCH  23  25
ATOM     24  N   UNL     1      -2.479   5.593  -6.851  0.00  0.00    -0.187 N 
ATOM     25  C   UNL     1      -2.646   4.970  -5.657  0.00  0.00    +0.214 A 
ATOM     26  N   UNL     1      -3.926   4.689  -5.544  0.00  0.00    -0.101 NA
ATOM     27  N   UNL     1      -4.570   5.100  -6.576  0.00  0.00    -0.022 NA
ATOM     28  N   UNL     1      -3.765   5.655  -7.416  0.00  0.00    -0.038 NA
BRANCH  24  34
ATOM     29  C   UNL     1       0.567   5.948 -10.696  0.00  0.00    +0.044 C 
ATOM     30  C   UNL     1       0.218   6.258  -9.263  0.00  0.00    -0.046 A 
ATOM     31  C   UNL     1       1.080   7.015  -8.491  0.00  0.00    +0.004 A 
ATOM     32  C   UNL     1       0.763   7.302  -7.176  0.00  0.00    +0.002 A 
ATOM     33  C   UNL     1      -0.415   6.832  -6.630  0.00  0.00    +0.028 A 
ATOM     34  C   UNL     1      -1.282   6.071  -7.402  0.00  0.00    +0.073 A 
ATOM     35  C   UNL     1      -0.959   5.780  -8.721  0.00  0.00    -0.022 A 
ATOM     36  C   UNL     1      -1.894   4.949  -9.561  0.00  0.00    +0.046 C 
ENDBRANCH  24  34
ENDBRANCH  23  25
ENDBRANCH  22  23
ENDBRANCH   1  22
TORSDOF 8
