REMARK  Name = ZINC08817793
REMARK  5 active torsions:
REMARK  status: ('A' for Active; 'I' for Inactive)
REMARK    1  A    between atoms: C_3  and  C_6
REMARK    2  A    between atoms: N_7  and  N_8
REMARK    3  A    between atoms: C_9  and  C_11
REMARK    4  A    between atoms: C_11  and  N_65
REMARK    5  A    between atoms: C_18  and  C_28
REMARK                            x       y       z     vdW  Elec       q    Type
REMARK                         _______ _______ _______ _____ _____    ______ ____
ROOT
ATOM      1  C   UNL     1       3.099   3.681  -1.385  0.00  0.00    -0.055 C 
ATOM      2  C   UNL     1       4.414   4.432  -1.624  0.00  0.00    +0.103 C 
ATOM      3  N   UNL     1       5.270   4.245  -0.442  0.00  0.00    -0.347 N 
ATOM      4  C   UNL     1       6.603   4.472  -0.279  0.00  0.00    +0.049 A 
ATOM      5  C   UNL     1       7.588   4.916  -1.159  0.00  0.00    +0.027 A 
ATOM      6  C   UNL     1       8.871   5.048  -0.659  0.00  0.00    +0.006 A 
ATOM      7  C   UNL     1       9.183   4.757   0.659  0.00  0.00    -0.044 A 
ATOM      8  C   UNL     1       8.238   4.317   1.551  0.00  0.00    +0.014 A 
ATOM      9  C   UNL     1       6.930   4.171   1.078  0.00  0.00    +0.003 A 
ATOM     10  C   UNL     1       5.706   3.738   1.695  0.00  0.00    -0.020 A 
ATOM     11  C   UNL     1       4.757   3.789   0.739  0.00  0.00    +0.009 A 
ATOM     12  C   UNL     1       3.323   3.395   1.013  0.00  0.00    -0.020 C 
ATOM     13  C   UNL     1       2.925   3.965   2.364  0.00  0.00    -0.009 C 
ATOM     14  C   UNL     1       3.977   3.915   3.446  0.00  0.00    +0.003 C 
ATOM     15  C   UNL     1       5.318   3.297   3.079  0.00  0.00    +0.037 C 
ATOM     16  N   UNL     1       2.530   4.035  -0.068  0.00  0.00    +0.392 N 
ATOM     17  H   UNL     1       2.567   5.054   0.049  0.00  0.00    -0.080 HD
ENDROOT
BRANCH   7  18
ATOM     18  C   UNL     1      10.605   4.929   1.127  0.00  0.00    +0.019 C 
ATOM     19  C   UNL     1      11.030   6.387   0.944  0.00  0.00    +0.008 C 
ATOM     20  C   UNL     1      12.473   6.561   1.420  0.00  0.00    +0.001 C 
ATOM     21  C   UNL     1      13.393   5.656   0.599  0.00  0.00    +0.000 C 
ATOM     22  C   UNL     1      12.969   4.197   0.781  0.00  0.00    +0.001 C 
ATOM     23  C   UNL     1      11.525   4.023   0.306  0.00  0.00    +0.008 C 
ENDBRANCH   7  18
BRANCH  16  24
ATOM     24  C   UNL     1       1.121   3.593   0.011  0.00  0.00    +0.021 C 
BRANCH  24  26
ATOM     25  N   UNL     1      -1.005   4.130  -1.135  0.00  0.00    -0.208 N 
ATOM     26  C   UNL     1       0.298   4.418  -0.945  0.00  0.00    +0.216 C 
ATOM     27  O   UNL     1       0.808   5.342  -1.543  0.00  0.00    -0.276 OA
ATOM     28  H   UNL     1      -1.414   3.394  -0.654  0.00  0.00    +0.177 HD
BRANCH  25  30
ATOM     29  C   UNL     1      -3.027   4.619  -2.207  0.00  0.00    +0.176 C 
ATOM     30  N   UNL     1      -1.770   4.897  -2.024  0.00  0.00    -0.185 NA
BRANCH  29  33
ATOM     31  C   UNL     1      -5.502   6.228  -4.358  0.00  0.00    +0.042 A 
ATOM     32  C   UNL     1      -5.148   5.236  -3.425  0.00  0.00    +0.051 A 
ATOM     33  C   UNL     1      -3.827   5.422  -3.137  0.00  0.00    +0.147 A 
ATOM     34  O   UNL     1      -3.385   6.470  -3.861  0.00  0.00    -0.462 OA
ATOM     35  C   UNL     1      -4.395   6.958  -4.600  0.00  0.00    +0.196 A 
ENDBRANCH  29  33
ENDBRANCH  25  30
ENDBRANCH  24  26
ENDBRANCH  16  24
TORSDOF 5
