REMARK  Name = ZINC12713551
REMARK  11 active torsions:
REMARK  status: ('A' for Active; 'I' for Inactive)
REMARK    1  A    between atoms: C_1  and  C_2
REMARK    2  A    between atoms: C_2  and  C_3
REMARK    3  A    between atoms: C_2  and  C_4
REMARK    4  A    between atoms: C_2  and  N_5
REMARK    5  A    between atoms: C_6  and  C_8
REMARK    6  A    between atoms: C_8  and  C_10
REMARK    7  A    between atoms: C_8  and  N_17
REMARK    8  A    between atoms: N_17  and  C_18
REMARK    9  A    between atoms: C_18  and  C_19
REMARK   10  A    between atoms: C_28  and  C_30
REMARK   11  A    between atoms: C_30  and  N_31
REMARK                            x       y       z     vdW  Elec       q    Type
REMARK                         _______ _______ _______ _____ _____    ______ ____
ROOT
ATOM      1  N   UNL     1      -3.687   3.038  -2.341  0.00  0.00    -0.280 N 
ATOM      2  C   UNL     1      -2.413   3.438  -2.152  0.00  0.00    +0.238 C 
ATOM      3  O   UNL     1      -1.695   3.647  -3.107  0.00  0.00    -0.274 OA
ENDROOT
BRANCH   1   4
ATOM      4  C   UNL     1      -4.554   2.785  -1.188  0.00  0.00    +0.195 C 
BRANCH   4   5
ATOM      5  C   UNL     1      -5.370   4.018  -0.894  0.00  0.00    +0.017 A 
ATOM      6  C   UNL     1      -5.680   4.901  -1.911  0.00  0.00    +0.009 A 
ATOM      7  C   UNL     1      -6.429   6.031  -1.641  0.00  0.00    +0.001 A 
ATOM      8  C   UNL     1      -6.870   6.279  -0.355  0.00  0.00    +0.003 A 
ATOM      9  C   UNL     1      -6.561   5.398   0.664  0.00  0.00    +0.039 A 
ATOM     10  C   UNL     1      -5.815   4.263   0.394  0.00  0.00    +0.129 A 
ATOM     11  F   UNL     1      -5.517   3.397   1.388  0.00  0.00    -0.205 F 
ENDBRANCH   4   5
BRANCH   4  13
ATOM     12  N   UNL     1      -5.514   0.564  -0.678  0.00  0.00    -0.309 N 
ATOM     13  C   UNL     1      -5.476   1.634  -1.496  0.00  0.00    +0.239 C 
ATOM     14  O   UNL     1      -6.184   1.670  -2.480  0.00  0.00    -0.273 OA
ATOM     15  H   UNL     1      -4.996   0.562   0.142  0.00  0.00    +0.149 HD
BRANCH  12  17
ATOM     16  C   UNL     1      -5.791  -1.245  -2.300  0.00  0.00    +0.031 C 
ATOM     17  C   UNL     1      -6.338  -0.597  -1.027  0.00  0.00    +0.026 C 
ATOM     18  C   UNL     1      -6.302  -1.611   0.118  0.00  0.00    +0.031 C 
ATOM     19  C   UNL     1      -7.780  -0.145  -1.263  0.00  0.00    +0.031 C 
ENDBRANCH  12  17
ENDBRANCH   4  13
ENDBRANCH   1   4
BRANCH   1  20
ATOM     20  C   UNL     1      -4.203   2.856  -3.700  0.00  0.00    +0.144 C 
BRANCH  20  21
ATOM     21  C   UNL     1      -3.811   1.492  -4.208  0.00  0.00    -0.026 A 
ATOM     22  C   UNL     1      -2.538   1.008  -3.972  0.00  0.00    +0.009 A 
ATOM     23  C   UNL     1      -2.175  -0.244  -4.431  0.00  0.00    +0.050 A 
ATOM     24  C   UNL     1      -3.084  -1.013  -5.139  0.00  0.00    +0.166 A 
ATOM     25  C   UNL     1      -4.365  -0.523  -5.382  0.00  0.00    +0.167 A 
ATOM     26  C   UNL     1      -4.723   0.731  -4.914  0.00  0.00    +0.054 A 
ATOM     27  O   UNL     1      -5.063  -1.458  -6.091  0.00  0.00    -0.453 OA
ATOM     28  C   UNL     1      -4.070  -2.350  -6.632  0.00  0.00    +0.466 C 
ATOM     29  O   UNL     1      -2.979  -2.255  -5.697  0.00  0.00    -0.453 OA
ENDBRANCH  20  21
ENDBRANCH   1  20
BRANCH   2  30
ATOM     30  C   UNL     1      -1.882   3.625  -0.754  0.00  0.00    +0.241 C 
BRANCH  30  31
ATOM     31  N   UNL     1      -0.485   4.060  -0.817  0.00  0.00    -0.235 N 
ATOM     32  C   UNL     1       0.628   3.253  -0.836  0.00  0.00    +0.090 A 
ATOM     33  C   UNL     1       0.823   1.876  -0.810  0.00  0.00    +0.029 A 
ATOM     34  C   UNL     1       2.092   1.370  -0.837  0.00  0.00    +0.002 A 
ATOM     35  C   UNL     1       3.191   2.218  -0.900  0.00  0.00    +0.002 A 
ATOM     36  C   UNL     1       3.025   3.572  -0.931  0.00  0.00    +0.032 A 
ATOM     37  C   UNL     1       1.735   4.117  -0.899  0.00  0.00    +0.113 A 
ATOM     38  N   UNL     1       1.267   5.381  -0.917  0.00  0.00    -0.129 NA
ATOM     39  N   UNL     1      -0.019   5.382  -0.870  0.00  0.00    -0.064 NA
ENDBRANCH  30  31
ENDBRANCH   2  30
TORSDOF 8
