REMARK  Name = ZINC36596882
REMARK  18 active torsions:
REMARK  status: ('A' for Active; 'I' for Inactive)
REMARK    1  A    between atoms: C_1  and  C_2
REMARK    2  A    between atoms: C_5  and  C_7
REMARK    3  A    between atoms: C_7  and  N_8
REMARK    4  A    between atoms: N_8  and  C_9
REMARK    5  A    between atoms: C_9  and  C_11
REMARK    6  A    between atoms: C_9  and  C_20
REMARK    7  A    between atoms: C_11  and  C_13
REMARK    8  A    between atoms: C_11  and  C_14
REMARK    9  A    between atoms: N_22  and  C_23
REMARK   10  A    between atoms: C_23  and  C_24
REMARK   11  A    between atoms: C_23  and  C_25
REMARK   12  A    between atoms: C_23  and  C_26
REMARK   13  A    between atoms: C_26  and  C_27
REMARK   14  A    between atoms: C_27  and  C_28
REMARK   15  A    between atoms: C_27  and  C_29
REMARK   16  A    between atoms: C_27  and  C_30
REMARK   17  A    between atoms: C_31  and  C_33
REMARK   18  A    between atoms: C_34  and  C_35
REMARK                            x       y       z     vdW  Elec       q    Type
REMARK                         _______ _______ _______ _____ _____    ______ ____
ROOT
ATOM      1  C   UNL     1       3.875  -2.786  -1.306  0.00  0.00    +0.170 C 
ENDROOT
BRANCH   1   2
ATOM      2  C   UNL     1       5.378  -2.861  -1.241  0.00  0.00    +0.235 C 
ATOM      3  O   UNL     1       5.919  -3.367  -0.280  0.00  0.00    -0.274 OA
ATOM      4  N   UNL     1       6.123  -2.366  -2.250  0.00  0.00    -0.309 N 
ATOM      5  H   UNL     1       5.697  -1.881  -2.974  0.00  0.00    +0.149 HD
BRANCH   4   6
ATOM      6  C   UNL     1       7.575  -2.562  -2.253  0.00  0.00    +0.030 C 
ATOM      7  C   UNL     1       8.221  -1.598  -1.256  0.00  0.00    +0.031 C 
ATOM      8  C   UNL     1       7.896  -4.003  -1.851  0.00  0.00    +0.031 C 
BRANCH   6   9
ATOM      9  C   UNL     1       8.123  -2.289  -3.655  0.00  0.00    +0.031 C 
BRANCH   9  10
ATOM     10  C   UNL     1       7.216  -2.951  -4.695  0.00  0.00    -0.036 C 
ATOM     11  C   UNL     1       5.962  -2.098  -4.895  0.00  0.00    +0.010 C 
ATOM     12  C   UNL     1       7.967  -3.073  -6.022  0.00  0.00    +0.010 C 
ATOM     13  C   UNL     1       6.813  -4.344  -4.207  0.00  0.00    +0.010 C 
ENDBRANCH   9  10
ENDBRANCH   6   9
ENDBRANCH   4   6
ENDBRANCH   1   2
BRANCH   1  14
ATOM     14  N   UNL     1       3.297  -3.670  -0.292  0.00  0.00    -0.271 N 
ATOM     15  C   UNL     1       2.428  -4.635  -0.654  0.00  0.00    +0.292 C 
ATOM     16  O   UNL     1       2.123  -4.771  -1.825  0.00  0.00    -0.260 OA
BRANCH  15  17
ATOM     17  C   UNL     1       1.863  -5.499   0.338  0.00  0.00    -0.003 C 
ATOM     18  C   UNL     1       1.399  -6.208   1.151  0.00  0.00    -0.057 C 
BRANCH  18  19
ATOM     19  C   UNL     1       0.834  -7.072   2.143  0.00  0.00    +0.025 A 
ATOM     20  C   UNL     1       1.177  -6.915   3.490  0.00  0.00    +0.017 A 
ATOM     21  C   UNL     1       0.628  -7.751   4.439  0.00  0.00    +0.001 A 
ATOM     22  C   UNL     1      -0.259  -8.744   4.062  0.00  0.00    +0.000 A 
ATOM     23  C   UNL     1      -0.603  -8.906   2.731  0.00  0.00    +0.001 A 
ATOM     24  C   UNL     1      -0.067  -8.074   1.771  0.00  0.00    +0.017 A 
ENDBRANCH  18  19
ENDBRANCH  15  17
BRANCH  14  25
ATOM     25  C   UNL     1       3.663  -3.506   1.117  0.00  0.00    +0.183 C 
BRANCH  25  30
ATOM     26  C   UNL     1       1.393   0.544   3.088  0.00  0.00    +0.086 C 
ATOM     27  C   UNL     1       1.653  -0.878   2.662  0.00  0.00    +0.102 A 
ATOM     28  C   UNL     1       0.825  -1.921   2.854  0.00  0.00    +0.045 A 
ATOM     29  C   UNL     1       1.462  -3.056   2.302  0.00  0.00    +0.046 A 
ATOM     30  C   UNL     1       2.640  -2.639   1.805  0.00  0.00    +0.122 A 
ATOM     31  O   UNL     1       2.748  -1.318   2.021  0.00  0.00    -0.463 OA
ENDBRANCH  25  30
ENDBRANCH  14  25
ENDBRANCH   1  14
BRANCH   1  32
ATOM     32  C   UNL     1       3.424  -1.347  -1.046  0.00  0.00    +0.045 C 
ATOM     33  C   UNL     1       4.256  -0.389  -1.901  0.00  0.00    +0.015 C 
BRANCH  32  34
ATOM     34  C   UNL     1       1.967  -1.204  -1.403  0.00  0.00    -0.042 A 
ATOM     35  C   UNL     1       1.499  -1.700  -2.606  0.00  0.00    +0.004 A 
ATOM     36  C   UNL     1       0.163  -1.569  -2.934  0.00  0.00    +0.000 A 
ATOM     37  C   UNL     1      -0.706  -0.942  -2.059  0.00  0.00    +0.000 A 
ATOM     38  C   UNL     1      -0.237  -0.448  -0.856  0.00  0.00    +0.000 A 
ATOM     39  C   UNL     1       1.098  -0.582  -0.526  0.00  0.00    +0.004 A 
ENDBRANCH  32  34
ENDBRANCH   1  32
TORSDOF 11
