REMARK  Name = ZINC12498406
REMARK  10 active torsions:
REMARK  status: ('A' for Active; 'I' for Inactive)
REMARK    1  A    between atoms: C_1  and  C_2
REMARK    2  A    between atoms: C_5  and  S_8
REMARK    3  A    between atoms: S_8  and  C_11
REMARK    4  A    between atoms: C_11  and  C_12
REMARK    5  A    between atoms: N_14  and  C_15
REMARK    6  A    between atoms: C_15  and  C_16
REMARK    7  A    between atoms: C_16  and  C_17
REMARK    8  A    between atoms: C_17  and  N_54
REMARK    9  A    between atoms: C_18  and  N_54
REMARK   10  A    between atoms: C_19  and  N_54
REMARK                            x       y       z     vdW  Elec       q    Type
REMARK                         _______ _______ _______ _____ _____    ______ ____
ROOT
ATOM      1  C   UNL     1       1.240  -4.400  -1.905  0.00  0.00    +0.243 C 
ATOM      2  O   UNL     1       1.260  -5.093  -0.909  0.00  0.00    -0.273 OA
ATOM      3  N   UNL     1       1.236  -4.973  -3.124  0.00  0.00    -0.249 N 
ATOM      4  C   UNL     1       1.254  -6.353  -3.242  0.00  0.00    +0.168 A 
ATOM      5  N   UNL     1       1.276  -7.260  -2.293  0.00  0.00    -0.224 NA
ATOM      6  C   UNL     1       1.290  -8.585  -2.555  0.00  0.00    +0.080 A 
ATOM      7  C   UNL     1       1.313  -9.657  -1.633  0.00  0.00    +0.030 A 
ATOM      8  C   UNL     1       1.326 -10.956  -2.069  0.00  0.00    +0.017 A 
ATOM      9  C   UNL     1       1.317 -11.267  -3.422  0.00  0.00    +0.019 A 
ATOM     10  C   UNL     1       1.294 -10.242  -4.352  0.00  0.00    +0.032 A 
ATOM     11  C   UNL     1       1.281  -8.938  -3.924  0.00  0.00    +0.042 A 
ATOM     12  S   UNL     1       1.245  -7.353  -4.724  0.00  0.00    -0.052 S 
ATOM     13 BR   UNL     1       1.334 -13.071  -3.988  0.00  0.00    -0.050 Br
ENDROOT
BRANCH   1  14
ATOM     14  C   UNL     1       1.221  -2.899  -1.777  0.00  0.00    +0.267 C 
BRANCH  14  15
ATOM     15  S   UNL     1       1.232  -2.441  -0.022  0.00  0.00    +0.005 S 
ATOM     16  O   UNL     1       2.478  -2.789   0.567  0.00  0.00    -0.169 OA
ATOM     17  O   UNL     1       0.009  -2.823   0.592  0.00  0.00    -0.169 OA
BRANCH  15  22
ATOM     18  C   UNL     1       1.151   3.592   0.010  0.00  0.00    +0.044 C 
ATOM     19  C   UNL     1       1.171   2.086   0.002  0.00  0.00    -0.050 A 
ATOM     20  C   UNL     1      -0.017   1.378   0.010  0.00  0.00    +0.005 A 
ATOM     21  C   UNL     1       0.002  -0.004   0.002  0.00  0.00    +0.027 A 
ATOM     22  C   UNL     1       1.208  -0.679  -0.013  0.00  0.00    +0.089 A 
ATOM     23  C   UNL     1       2.396   0.029  -0.021  0.00  0.00    +0.027 A 
ATOM     24  C   UNL     1       2.377   1.411  -0.015  0.00  0.00    +0.005 A 
ENDBRANCH  15  22
ENDBRANCH  14  15
ENDBRANCH   1  14
BRANCH   3  25
ATOM     25  C   UNL     1       1.213  -4.136  -4.327  0.00  0.00    +0.114 C 
BRANCH  25  26
ATOM     26  C   UNL     1       2.647  -3.825  -4.759  0.00  0.00    +0.001 C 
BRANCH  26  27
ATOM     27  C   UNL     1       2.623  -2.950  -6.015  0.00  0.00    -0.078 C 
BRANCH  27  30
ATOM     28  C   UNL     1       4.024  -2.019  -7.756  0.00  0.00    -0.097 C 
ATOM     29  C   UNL     1       4.680  -1.814  -5.434  0.00  0.00    -0.097 C 
ATOM     30  N   UNL     1       4.014  -2.677  -6.432  0.00  0.00    +0.376 N 
ATOM     31  H   UNL     1       4.524  -3.566  -6.498  0.00  0.00    -0.083 HD
ENDBRANCH  27  30
ENDBRANCH  26  27
ENDBRANCH  25  26
ENDBRANCH   3  25
TORSDOF 7
