REMARK  Name = ZINC07926532
REMARK  9 active torsions:
REMARK  status: ('A' for Active; 'I' for Inactive)
REMARK    1  A    between atoms: C_1  and  N_48
REMARK    2  A    between atoms: C_2  and  C_3
REMARK    3  A    between atoms: C_2  and  N_48
REMARK    4  A    between atoms: C_12  and  C_13
REMARK    5  A    between atoms: C_12  and  N_48
REMARK    6  A    between atoms: N_15  and  C_16
REMARK    7  A    between atoms: C_21  and  S_22
REMARK    8  A    between atoms: S_22  and  C_23
REMARK    9  A    between atoms: C_23  and  C_24
REMARK                            x       y       z     vdW  Elec       q    Type
REMARK                         _______ _______ _______ _____ _____    ______ ____
ROOT
ATOM      1  C   UNL     1       8.218  -2.074   0.756  0.00  0.00    +0.201 C 
ATOM      2  O   UNL     1       7.790  -2.230  -0.368  0.00  0.00    -0.278 OA
ATOM      3  N   UNL     1       9.468  -2.474   1.063  0.00  0.00    -0.286 N 
ATOM      4  H   UNL     1       9.839  -2.278   1.937  0.00  0.00    +0.155 HD
ENDROOT
BRANCH   3   5
ATOM      5  C   UNL     1      10.231  -3.174   0.118  0.00  0.00    +0.047 A 
ATOM      6  C   UNL     1       9.604  -3.898  -0.884  0.00  0.00    +0.024 A 
ATOM      7  C   UNL     1      10.358  -4.583  -1.818  0.00  0.00    +0.002 A 
ATOM      8  C   UNL     1      11.740  -4.559  -1.750  0.00  0.00    +0.001 A 
ATOM      9  C   UNL     1      12.374  -3.846  -0.750  0.00  0.00    +0.016 A 
ATOM     10  C   UNL     1      11.624  -3.150   0.188  0.00  0.00    +0.030 A 
BRANCH  10  11
ATOM     11  S   UNL     1      12.430  -2.240   1.464  0.00  0.00    -0.114 S 
BRANCH  11  12
ATOM     12  C   UNL     1      14.196  -2.506   1.144  0.00  0.00    +0.169 C 
BRANCH  12  13
ATOM     13  C   UNL     1      15.009  -1.771   2.179  0.00  0.00    +0.221 C 
ATOM     14  O   UNL     1      14.453  -1.131   3.046  0.00  0.00    -0.275 OA
ATOM     15  N   UNL     1      16.355  -1.825   2.140  0.00  0.00    -0.329 N 
ATOM     16  H   UNL     1      16.800  -2.336   1.446  0.00  0.00    +0.145 HD
ATOM     17  H   UNL     1      16.879  -1.352   2.805  0.00  0.00    +0.145 HD
ENDBRANCH  12  13
ENDBRANCH  11  12
ENDBRANCH  10  11
ENDBRANCH   3   5
BRANCH   1  18
ATOM     18  C   UNL     1       7.353  -1.432   1.809  0.00  0.00    +0.019 C 
BRANCH  18  20
ATOM     19  C   UNL     1       6.185  -0.044   0.205  0.00  0.00    -0.095 C 
ATOM     20  N   UNL     1       6.037  -1.113   1.216  0.00  0.00    +0.386 N 
ATOM     21  H   UNL     1       5.664  -1.954   0.760  0.00  0.00    -0.081 HD
BRANCH  20  22
ATOM     22  C   UNL     1       5.098  -0.682   2.273  0.00  0.00    -0.043 C 
BRANCH  22  23
ATOM     23  C   UNL     1       3.716  -0.576   1.681  0.00  0.00    -0.060 A 
ATOM     24  C   UNL     1       2.881  -1.679   1.675  0.00  0.00    +0.005 A 
ATOM     25  C   UNL     1       1.613  -1.586   1.132  0.00  0.00    +0.050 A 
ATOM     26  C   UNL     1       1.175  -0.388   0.593  0.00  0.00    +0.166 A 
ATOM     27  C   UNL     1       2.015   0.723   0.600  0.00  0.00    +0.166 A 
ATOM     28  C   UNL     1       3.285   0.623   1.145  0.00  0.00    +0.051 A 
ATOM     29  O   UNL     1       1.360   1.769   0.018  0.00  0.00    -0.453 OA
ATOM     30  C   UNL     1      -0.033   1.403   0.025  0.00  0.00    +0.466 C 
ATOM     31  O   UNL     1      -0.007  -0.037   0.008  0.00  0.00    -0.453 OA
ENDBRANCH  22  23
ENDBRANCH  20  22
ENDBRANCH  18  20
ENDBRANCH   1  18
TORSDOF 8
