REMARK  Name = ZINC12521300
REMARK  13 active torsions:
REMARK  status: ('A' for Active; 'I' for Inactive)
REMARK    1  A    between atoms: C_1  and  C_2
REMARK    2  A    between atoms: C_4  and  S_9
REMARK    3  A    between atoms: S_9  and  N_12
REMARK    4  A    between atoms: N_12  and  C_13
REMARK    5  A    between atoms: C_16  and  C_19
REMARK    6  A    between atoms: N_21  and  C_22
REMARK    7  A    between atoms: C_22  and  C_23
REMARK    8  A    between atoms: C_23  and  C_25
REMARK    9  A    between atoms: C_23  and  N_33
REMARK   10  A    between atoms: C_30  and  O_31
REMARK   11  A    between atoms: O_31  and  C_32
REMARK   12  A    between atoms: N_33  and  C_34
REMARK   13  A    between atoms: N_33  and  C_35
REMARK                            x       y       z     vdW  Elec       q    Type
REMARK                         _______ _______ _______ _____ _____    ______ ____
ROOT
ATOM      1  C   UNL     1       2.734  -3.724  -2.152  0.00  0.00    +0.048 A 
ATOM      2  C   UNL     1       2.459  -3.787  -0.788  0.00  0.00    +0.025 A 
ATOM      3  C   UNL     1       3.108  -4.706   0.004  0.00  0.00    +0.015 A 
ATOM      4  C   UNL     1       4.045  -5.577  -0.561  0.00  0.00    +0.037 A 
ATOM      5  C   UNL     1       4.318  -5.511  -1.931  0.00  0.00    +0.015 A 
ATOM      6  C   UNL     1       3.662  -4.593  -2.719  0.00  0.00    +0.025 A 
ENDROOT
BRANCH   4   7
ATOM      7  C   UNL     1       4.742  -6.563   0.285  0.00  0.00    +0.244 C 
ATOM      8  O   UNL     1       4.504  -6.619   1.476  0.00  0.00    -0.270 OA
ATOM      9  N   UNL     1       5.644  -7.402  -0.262  0.00  0.00    -0.313 N 
ATOM     10  H   UNL     1       5.835  -7.357  -1.212  0.00  0.00    +0.149 HD
BRANCH   9  11
ATOM     11  C   UNL     1       6.338  -8.381   0.579  0.00  0.00    +0.094 C 
BRANCH  11  12
ATOM     12  C   UNL     1       7.205  -9.285  -0.299  0.00  0.00    -0.017 C 
BRANCH  12  13
ATOM     13  C   UNL     1       8.303  -8.468  -0.930  0.00  0.00    -0.018 A 
ATOM     14  C   UNL     1       8.136  -7.944  -2.197  0.00  0.00    +0.005 A 
ATOM     15  C   UNL     1       9.143  -7.195  -2.776  0.00  0.00    +0.000 A 
ATOM     16  C   UNL     1      10.321  -6.968  -2.088  0.00  0.00    +0.004 A 
ATOM     17  C   UNL     1      10.494  -7.489  -0.821  0.00  0.00    +0.046 A 
ATOM     18  C   UNL     1       9.482  -8.237  -0.235  0.00  0.00    +0.122 A 
BRANCH  18  19
ATOM     19  O   UNL     1       9.647  -8.746   1.014  0.00  0.00    -0.495 OA
ATOM     20  C   UNL     1      10.886  -8.468   1.669  0.00  0.00    +0.277 C 
ENDBRANCH  18  19
ENDBRANCH  12  13
BRANCH  12  21
ATOM     21  N   UNL     1       6.376  -9.886  -1.353  0.00  0.00    +0.382 N 
ATOM     22  C   UNL     1       7.181 -10.842  -2.124  0.00  0.00    -0.096 C 
ATOM     23  C   UNL     1       5.238 -10.585  -0.741  0.00  0.00    -0.096 C 
ATOM     24  H   UNL     1       6.035  -9.161  -1.967  0.00  0.00    -0.082 HD
ENDBRANCH  12  21
ENDBRANCH  11  12
ENDBRANCH   9  11
ENDBRANCH   4   7
BRANCH   1  25
ATOM     25  N   UNL     1       2.077  -2.794  -2.950  0.00  0.00    -0.216 N 
ATOM     26  H   UNL     1       2.578  -2.263  -3.589  0.00  0.00    +0.174 HD
BRANCH  25  27
ATOM     27  S   UNL     1       0.439  -2.593  -2.809  0.00  0.00    +0.072 S 
ATOM     28  O   UNL     1       0.057  -1.662  -3.812  0.00  0.00    -0.150 OA
ATOM     29  O   UNL     1       0.173  -2.378  -1.429  0.00  0.00    -0.150 OA
BRANCH  27  33
ATOM     30  C   UNL     1      -1.218  -7.390  -1.561  0.00  0.00    +0.047 C 
ATOM     31  C   UNL     1      -1.054  -6.317  -2.607  0.00  0.00    -0.013 A 
ATOM     32  C   UNL     1      -0.463  -5.112  -2.275  0.00  0.00    +0.035 A 
ATOM     33  C   UNL     1      -0.313  -4.128  -3.234  0.00  0.00    +0.109 A 
ATOM     34  C   UNL     1      -0.752  -4.348  -4.526  0.00  0.00    +0.031 A 
ATOM     35  C   UNL     1      -1.342  -5.552  -4.861  0.00  0.00    +0.040 A 
ATOM     36  C   UNL     1      -1.489  -6.541  -3.902  0.00  0.00    +0.126 A 
ATOM     37  F   UNL     1      -2.061  -7.720  -4.229  0.00  0.00    -0.205 F 
ENDBRANCH  27  33
ENDBRANCH  25  27
ENDBRANCH   1  25
TORSDOF 9
