REMARK  Name = ZINC08721614
REMARK  13 active torsions:
REMARK  status: ('A' for Active; 'I' for Inactive)
REMARK    1  A    between atoms: C_1  and  C_2
REMARK    2  A    between atoms: C_2  and  C_4
REMARK    3  A    between atoms: C_2  and  N_10
REMARK    4  A    between atoms: C_11  and  C_13
REMARK    5  A    between atoms: C_13  and  O_14
REMARK    6  A    between atoms: O_14  and  C_15
REMARK    7  A    between atoms: C_18  and  C_21
REMARK    8  A    between atoms: N_22  and  N_23
REMARK    9  A    between atoms: C_24  and  C_26
REMARK   10  A    between atoms: C_26  and  N_27
REMARK   11  A    between atoms: N_27  and  C_28
REMARK   12  A    between atoms: N_27  and  S_35
REMARK   13  A    between atoms: S_35  and  C_38
REMARK                            x       y       z     vdW  Elec       q    Type
REMARK                         _______ _______ _______ _____ _____    ______ ____
ROOT
ATOM      1  C   UNL     1      -2.583   2.842  -8.202  0.00  0.00    +0.121 A 
ATOM      2  C   UNL     1      -1.444   2.059  -8.347  0.00  0.00    +0.046 A 
ATOM      3  C   UNL     1      -0.775   1.601  -7.234  0.00  0.00    +0.013 A 
ATOM      4  C   UNL     1      -1.243   1.924  -5.957  0.00  0.00    -0.005 A 
ATOM      5  C   UNL     1      -2.392   2.706  -5.816  0.00  0.00    +0.013 A 
ATOM      6  C   UNL     1      -3.052   3.165  -6.935  0.00  0.00    +0.046 A 
ENDROOT
BRANCH   4   7
ATOM      7  C   UNL     1      -0.530   1.435  -4.763  0.00  0.00    +0.138 C 
ATOM      8  N   UNL     1      -0.966   1.736  -3.578  0.00  0.00    -0.188 NA
BRANCH   8   9
ATOM      9  N   UNL     1      -0.288   1.272  -2.443  0.00  0.00    -0.206 N 
ATOM     10  C   UNL     1      -0.742   1.585  -1.213  0.00  0.00    +0.251 C 
ATOM     11  O   UNL     1      -1.736   2.268  -1.088  0.00  0.00    -0.272 OA
ATOM     12  H   UNL     1       0.507   0.726  -2.543  0.00  0.00    +0.177 HD
BRANCH  10  13
ATOM     13  C   UNL     1      -0.013   1.086   0.008  0.00  0.00    +0.228 C 
BRANCH  13  14
ATOM     14  N   UNL     1      -0.698   1.558   1.213  0.00  0.00    -0.196 N 
BRANCH  14  15
ATOM     15  C   UNL     1      -1.780   0.838   1.730  0.00  0.00    +0.087 A 
ATOM     16  C   UNL     1      -1.559  -0.234   2.583  0.00  0.00    +0.027 A 
ATOM     17  C   UNL     1      -2.630  -0.941   3.095  0.00  0.00    +0.002 A 
ATOM     18  C   UNL     1      -3.922  -0.588   2.751  0.00  0.00    +0.003 A 
ATOM     19  C   UNL     1      -4.148   0.477   1.898  0.00  0.00    +0.040 A 
ATOM     20  C   UNL     1      -3.081   1.192   1.386  0.00  0.00    +0.146 A 
ATOM     21  F   UNL     1      -3.301   2.231   0.551  0.00  0.00    -0.203 F 
ENDBRANCH  14  15
BRANCH  14  22
ATOM     22  S   UNL     1      -0.192   2.945   1.964  0.00  0.00    +0.043 S 
ATOM     23  O   UNL     1      -0.504   2.748   3.337  0.00  0.00    -0.155 OA
ATOM     24  O   UNL     1       1.155   3.114   1.544  0.00  0.00    -0.155 OA
ATOM     25  C   UNL     1      -1.233   4.258   1.269  0.00  0.00    +0.218 C 
ENDBRANCH  14  22
ENDBRANCH  13  14
ENDBRANCH  10  13
ENDBRANCH   8   9
ENDBRANCH   4   7
BRANCH   1  26
ATOM     26  O   UNL     1      -3.240   3.292  -9.303  0.00  0.00    -0.483 OA
BRANCH  26  27
ATOM     27  C   UNL     1      -4.404   4.091  -9.082  0.00  0.00    +0.324 C 
BRANCH  27  29
ATOM     28  N   UNL     1      -6.105   5.258 -10.447  0.00  0.00    -0.306 N 
ATOM     29  C   UNL     1      -4.994   4.496 -10.408  0.00  0.00    +0.251 C 
ATOM     30  O   UNL     1      -4.471   4.135 -11.441  0.00  0.00    -0.272 OA
ATOM     31  H   UNL     1      -6.524   5.547  -9.621  0.00  0.00    +0.149 HD
BRANCH  28  33
ATOM     32  C   UNL     1      -5.974   6.910 -12.246  0.00  0.00    +0.033 C 
ATOM     33  C   UNL     1      -6.679   5.652 -11.736  0.00  0.00    +0.100 C 
BRANCH  33  34
ATOM     34  C   UNL     1      -8.150   5.933 -11.566  0.00  0.00    -0.027 A 
ATOM     35  C   UNL     1      -8.601   6.594 -10.438  0.00  0.00    +0.005 A 
ATOM     36  C   UNL     1      -9.949   6.857 -10.284  0.00  0.00    +0.000 A 
ATOM     37  C   UNL     1     -10.848   6.450 -11.253  0.00  0.00    +0.000 A 
ATOM     38  C   UNL     1     -10.397   5.785 -12.378  0.00  0.00    +0.000 A 
ATOM     39  C   UNL     1      -9.048   5.526 -12.534  0.00  0.00    +0.005 A 
ENDBRANCH  33  34
ENDBRANCH  28  33
ENDBRANCH  27  29
ENDBRANCH  26  27
ENDBRANCH   1  26
TORSDOF 11
