REMARK  Name = ZINC16754947
REMARK  8 active torsions:
REMARK  status: ('A' for Active; 'I' for Inactive)
REMARK    1  A    between atoms: C_2  and  C_3
REMARK    2  A    between atoms: C_3  and  N_4
REMARK    3  A    between atoms: C_5  and  C_19
REMARK    4  A    between atoms: N_9  and  S_10
REMARK    5  A    between atoms: S_10  and  C_13
REMARK    6  A    between atoms: C_22  and  O_25
REMARK    7  A    between atoms: O_25  and  C_26
REMARK    8  A    between atoms: C_26  and  C_28
REMARK                            x       y       z     vdW  Elec       q    Type
REMARK                         _______ _______ _______ _____ _____    ______ ____
ROOT
ATOM      1  N   UNL     1       1.187  -1.716   1.020  0.00  0.00    -0.314 N 
ATOM      2  C   UNL     1       1.851  -1.432   2.185  0.00  0.00    +0.058 A 
ATOM      3  C   UNL     1       2.129  -2.425   3.053  0.00  0.00    +0.075 A 
ATOM      4  S   UNL     1       1.438  -3.850   2.229  0.00  0.00    -0.056 S 
ATOM      5  C   UNL     1       0.817  -3.020   0.775  0.00  0.00    +0.195 A 
ATOM      6  N   UNL     1       0.178  -3.519  -0.253  0.00  0.00    -0.103 NA
ENDROOT
BRANCH   2   7
ATOM      7  C   UNL     1       2.261  -0.043   2.487  0.00  0.00    -0.001 A 
ATOM      8  C   UNL     1       1.848   0.566   3.673  0.00  0.00    +0.013 A 
ATOM      9  C   UNL     1       2.232   1.861   3.951  0.00  0.00    +0.047 A 
ATOM     10  C   UNL     1       3.030   2.558   3.053  0.00  0.00    +0.132 A 
ATOM     11  C   UNL     1       3.443   1.955   1.873  0.00  0.00    +0.047 A 
ATOM     12  C   UNL     1       3.068   0.659   1.590  0.00  0.00    +0.013 A 
BRANCH  10  13
ATOM     13  O   UNL     1       3.406   3.834   3.330  0.00  0.00    -0.422 OA
BRANCH  13  14
ATOM     14  C   UNL     1       4.373   4.023   4.249  0.00  0.00    +0.344 C 
ATOM     15  O   UNL     1       4.947   3.067   4.732  0.00  0.00    -0.245 OA
BRANCH  14  16
ATOM     16  C   UNL     1       4.736   5.392   4.669  0.00  0.00    +0.059 A 
ATOM     17  C   UNL     1       4.074   6.492   4.120  0.00  0.00    +0.015 A 
ATOM     18  C   UNL     1       4.418   7.768   4.516  0.00  0.00    +0.001 A 
ATOM     19  C   UNL     1       5.416   7.959   5.455  0.00  0.00    +0.000 A 
ATOM     20  C   UNL     1       6.076   6.873   6.003  0.00  0.00    +0.001 A 
ATOM     21  C   UNL     1       5.738   5.591   5.620  0.00  0.00    +0.015 A 
ENDBRANCH  14  16
ENDBRANCH  13  14
ENDBRANCH  10  13
ENDBRANCH   2   7
BRANCH   6  22
ATOM     22  S   UNL     1      -0.153  -5.141  -0.315  0.00  0.00    +0.107 S 
ATOM     23  O   UNL     1       1.098  -5.807  -0.418  0.00  0.00    -0.146 OA
ATOM     24  O   UNL     1      -1.073  -5.407   0.735  0.00  0.00    -0.146 OA
BRANCH  22  25
ATOM     25  C   UNL     1      -1.010  -5.441  -1.825  0.00  0.00    +0.151 A 
ATOM     26  C   UNL     1      -0.507  -5.761  -3.042  0.00  0.00    +0.038 A 
ATOM     27  C   UNL     1      -1.378  -5.953  -4.098  0.00  0.00    +0.030 A 
ATOM     28  C   UNL     1      -2.711  -5.815  -3.884  0.00  0.00    +0.080 A 
ATOM     29  S   UNL     1      -2.765  -5.410  -2.146  0.00  0.00    -0.056 S 
ATOM     30 CL   UNL     1      -4.023  -5.994  -5.007  0.00  0.00    -0.076 Cl
ENDBRANCH  22  25
ENDBRANCH   6  22
BRANCH   1  31
ATOM     31  C   UNL     1       0.872  -0.655   0.060  0.00  0.00    +0.151 C 
BRANCH  31  33
ATOM     32  C   UNL     1      -0.435   1.325   0.634  0.00  0.00    +0.005 C 
ATOM     33  C   UNL     1      -0.409   0.026   0.467  0.00  0.00    -0.013 C 
ENDBRANCH  31  33
ENDBRANCH   1  31
TORSDOF 8
