REMARK  Name = ZINC22473020
REMARK  9 active torsions:
REMARK  status: ('A' for Active; 'I' for Inactive)
REMARK    1  A    between atoms: C_1  and  N_2
REMARK    2  A    between atoms: N_2  and  C_3
REMARK    3  A    between atoms: C_3  and  C_4
REMARK    4  A    between atoms: C_4  and  C_5
REMARK    5  A    between atoms: C_5  and  N_6
REMARK    6  A    between atoms: C_9  and  O_10
REMARK    7  A    between atoms: C_18  and  C_20
REMARK    8  A    between atoms: C_23  and  C_25
REMARK    9  A    between atoms: C_29  and  N_31
REMARK                            x       y       z     vdW  Elec       q    Type
REMARK                         _______ _______ _______ _____ _____    ______ ____
ROOT
ATOM      1  C   UNL     1       3.408   7.073   0.111  0.00  0.00    +0.132 C 
ATOM      2  N   UNL     1       2.831   8.419   0.124  0.00  0.00    -0.298 N 
ATOM      3  C   UNL     1       1.531   8.598  -0.184  0.00  0.00    +0.282 C 
ATOM      4  O   UNL     1       1.066   9.722  -0.233  0.00  0.00    -0.267 OA
ENDROOT
BRANCH   3   5
ATOM      5  C   UNL     1       0.678   7.439  -0.462  0.00  0.00    +0.190 A 
ATOM      6  C   UNL     1      -0.685   7.467  -0.659  0.00  0.00    +0.055 A 
ATOM      7  C   UNL     1      -1.087   6.148  -0.890  0.00  0.00    +0.050 A 
ATOM      8  C   UNL     1       0.034   5.370  -0.827  0.00  0.00    +0.136 A 
ATOM      9  O   UNL     1       1.089   6.158  -0.562  0.00  0.00    -0.450 OA
BRANCH   8  10
ATOM     10  C   UNL     1       0.077   3.906  -1.012  0.00  0.00    +0.019 A 
ATOM     11  C   UNL     1      -1.097   3.197  -1.277  0.00  0.00    +0.012 A 
ATOM     12  C   UNL     1      -1.048   1.830  -1.454  0.00  0.00    +0.003 A 
ATOM     13  C   UNL     1       0.158   1.159  -1.358  0.00  0.00    +0.033 A 
ATOM     14  C   UNL     1       1.325   1.855  -1.096  0.00  0.00    +0.127 A 
ATOM     15  C   UNL     1       1.292   3.223  -0.922  0.00  0.00    +0.044 A 
BRANCH  14  16
ATOM     16  N   UNL     1       2.612   1.129  -1.001  0.00  0.00    +0.056 N 
ATOM     17  O   UNL     1       2.643  -0.079  -1.153  0.00  0.00    -0.126 OA
ATOM     18  O   UNL     1       3.640   1.741  -0.770  0.00  0.00    -0.126 OA
ENDBRANCH  14  16
ENDBRANCH   8  10
ENDBRANCH   3   5
BRANCH   2  19
ATOM     19  C   UNL     1       3.666   9.571   0.472  0.00  0.00    +0.109 C 
BRANCH  19  20
ATOM     20  C   UNL     1       3.605   9.808   1.982  0.00  0.00    +0.040 C 
BRANCH  20  21
ATOM     21  C   UNL     1       4.477  11.011   2.346  0.00  0.00    +0.114 C 
BRANCH  21  22
ATOM     22  N   UNL     1       4.418  11.238   3.792  0.00  0.00    -0.384 N 
ATOM     23  C   UNL     1       5.129  12.274   4.356  0.00  0.00    +0.053 A 
ATOM     24  C   UNL     1       5.898  13.106   3.584  0.00  0.00    +0.113 A 
ATOM     25  C   UNL     1       6.610  14.151   4.187  0.00  0.00    +0.286 A 
ATOM     26  O   UNL     1       6.564  14.369   5.511  0.00  0.00    -0.425 OA
ATOM     27  C   UNL     1       5.829  13.591   6.334  0.00  0.00    +0.141 A 
ATOM     28  C   UNL     1       5.082  12.526   5.806  0.00  0.00    +0.041 A 
ATOM     29  C   UNL     1       4.315  11.723   6.652  0.00  0.00    +0.013 A 
ATOM     30  C   UNL     1       4.292  11.986   8.004  0.00  0.00    +0.001 A 
ATOM     31  C   UNL     1       5.025  13.042   8.525  0.00  0.00    +0.004 A 
ATOM     32  C   UNL     1       5.797  13.835   7.701  0.00  0.00    +0.047 A 
ATOM     33  H   UNL     1       3.807  10.581   4.427  0.00  0.00    +0.160 HD
BRANCH  25  34
ATOM     34  O   UNL     1       7.290  14.884   3.489  0.00  0.00    -0.480 OA
ATOM     35  H   UNL     1       7.855  15.710   3.946  0.00  0.00    +0.295 HD
ENDBRANCH  25  34
ENDBRANCH  21  22
ENDBRANCH  20  21
ENDBRANCH  19  20
ENDBRANCH   2  19
TORSDOF 8
