REMARK  Name = ZINC19776225
REMARK  4 active torsions:
REMARK  status: ('A' for Active; 'I' for Inactive)
REMARK    1  A    between atoms: C_3  and  N_18
REMARK    2  A    between atoms: C_6  and  C_7
REMARK    3  A    between atoms: C_7  and  C_9
REMARK    4  A    between atoms: C_13  and  N_14
REMARK                            x       y       z     vdW  Elec       q    Type
REMARK                         _______ _______ _______ _____ _____    ______ ____
ROOT
ATOM      1  C   UNL     1      -0.002  -0.004   0.001  0.00  0.00    +0.196 C 
ATOM      2  O   UNL     1      -0.101  -0.608  -1.052  0.00  0.00    -0.287 OA
ENDROOT
BRANCH   1   3
ATOM      3  C   UNL     1      -0.012   1.458   0.009  0.00  0.00    +0.054 A 
ATOM      4  C   UNL     1       1.234   2.227  -0.004  0.00  0.00    -0.025 A 
ATOM      5  C   UNL     1       1.081   3.562   0.008  0.00  0.00    -0.005 A 
ATOM      6  S   UNL     1      -0.676   3.819   0.033  0.00  0.00    -0.078 S 
ATOM      7  C   UNL     1      -1.204   2.171   0.025  0.00  0.00    +0.074 A 
ATOM      8  C   UNL     1       2.403   4.281  -0.004  0.00  0.00    +0.043 C 
ATOM      9  C   UNL     1       3.434   3.208   0.410  0.00  0.00    +0.010 C 
ATOM     10  C   UNL     1       2.729   1.910  -0.032  0.00  0.00    +0.037 C 
BRANCH   7  11
ATOM     11  N   UNL     1      -2.495   1.684   0.035  0.00  0.00    -0.352 N 
ATOM     12  H   UNL     1      -3.346   2.381   0.047  0.00  0.00    +0.143 HD
ATOM     13  H   UNL     1      -2.674   0.598   0.030  0.00  0.00    +0.143 HD
ENDBRANCH   7  11
ENDBRANCH   1   3
BRANCH   1  19
ATOM     14  C   UNL     1       0.138  -0.067   2.488  0.00  0.00    +0.014 A 
ATOM     15  C   UNL     1       0.256  -0.770   3.670  0.00  0.00    +0.033 A 
ATOM     16  C   UNL     1       0.376  -2.148   3.649  0.00  0.00    +0.126 A 
ATOM     17  C   UNL     1       0.374  -2.831   2.446  0.00  0.00    +0.033 A 
ATOM     18  C   UNL     1       0.252  -2.141   1.258  0.00  0.00    +0.014 A 
ATOM     19  C   UNL     1       0.130  -0.751   1.271  0.00  0.00    +0.022 A 
BRANCH  16  20
ATOM     20  N   UNL     1       0.507  -2.895   4.921  0.00  0.00    +0.056 N 
ATOM     21  O   UNL     1       0.614  -4.108   4.906  0.00  0.00    -0.126 OA
ATOM     22  O   UNL     1       0.509  -2.296   5.981  0.00  0.00    -0.126 OA
ENDBRANCH  16  20
ENDBRANCH   1  19
TORSDOF 4
