REMARK  Name = ZINC09004849
REMARK  15 active torsions:
REMARK  status: ('A' for Active; 'I' for Inactive)
REMARK    1  A    between atoms: C_1  and  C_2
REMARK    2  A    between atoms: C_2  and  O_3
REMARK    3  A    between atoms: O_3  and  C_4
REMARK    4  A    between atoms: C_7  and  C_13
REMARK    5  A    between atoms: C_9  and  O_10
REMARK    6  A    between atoms: O_10  and  C_11
REMARK    7  A    between atoms: C_11  and  C_12
REMARK    8  A    between atoms: C_13  and  C_14
REMARK    9  A    between atoms: C_14  and  N_15
REMARK   10  A    between atoms: C_16  and  C_18
REMARK   11  A    between atoms: C_18  and  N_19
REMARK   12  A    between atoms: C_26  and  C_29
REMARK   13  A    between atoms: C_32  and  C_35
REMARK   14  A    between atoms: C_35  and  C_36
REMARK   15  A    between atoms: C_35  and  C_37
REMARK                            x       y       z     vdW  Elec       q    Type
REMARK                         _______ _______ _______ _____ _____    ______ ____
ROOT
ATOM      1  C   UNL     1       7.678  -1.024   3.799  0.00  0.00    +0.221 C 
ENDROOT
BRANCH   1   2
ATOM      2  N   UNL     1       8.862  -0.162   3.812  0.00  0.00    -0.290 N 
ATOM      3  C   UNL     1       9.430   0.206   2.635  0.00  0.00    +0.203 A 
ATOM      4  N   UNL     1      10.483   0.978   2.606  0.00  0.00    -0.230 NA
ATOM      5  C   UNL     1      11.040   1.421   3.731  0.00  0.00    +0.116 A 
ATOM      6  C   UNL     1      10.525   1.089   4.994  0.00  0.00    +0.080 A 
ATOM      7  C   UNL     1       9.368   0.247   4.991  0.00  0.00    +0.263 A 
ATOM      8  O   UNL     1       8.849  -0.096   6.039  0.00  0.00    -0.267 OA
ATOM      9  C   UNL     1      11.250   1.656   6.125  0.00  0.00    +0.004 A 
ATOM     10  C   UNL     1      12.332   2.435   5.881  0.00  0.00    +0.056 A 
ATOM     11  S   UNL     1      12.436   2.451   4.102  0.00  0.00    -0.076 S 
BRANCH   9  12
ATOM     12  C   UNL     1      10.813   1.384   7.515  0.00  0.00    -0.017 A 
ATOM     13  C   UNL     1       9.481   1.573   7.880  0.00  0.00    +0.009 A 
ATOM     14  C   UNL     1       9.079   1.313   9.174  0.00  0.00    +0.004 A 
ATOM     15  C   UNL     1       9.997   0.876  10.112  0.00  0.00    -0.045 A 
ATOM     16  C   UNL     1      11.322   0.692   9.757  0.00  0.00    +0.004 A 
ATOM     17  C   UNL     1      11.734   0.944   8.465  0.00  0.00    +0.009 A 
BRANCH  15  18
ATOM     18  C   UNL     1       9.553   0.599  11.525  0.00  0.00    +0.013 C 
ATOM     19  C   UNL     1       8.976   1.877  12.138  0.00  0.00    +0.012 C 
ATOM     20  C   UNL     1       8.481  -0.492  11.518  0.00  0.00    +0.012 C 
ENDBRANCH  15  18
ENDBRANCH   9  12
ENDBRANCH   1   2
BRANCH   1  22
ATOM     21  N   UNL     1       5.220  -0.753   3.738  0.00  0.00    -0.314 N 
ATOM     22  C   UNL     1       6.436  -0.172   3.756  0.00  0.00    +0.233 C 
ATOM     23  O   UNL     1       6.530   1.037   3.738  0.00  0.00    -0.274 OA
ATOM     24  H   UNL     1       5.144  -1.720   3.752  0.00  0.00    +0.149 HD
BRANCH  21  25
ATOM     25  C   UNL     1       4.013   0.076   3.696  0.00  0.00    +0.109 C 
BRANCH  25  26
ATOM     26  C   UNL     1       2.776  -0.825   3.682  0.00  0.00    +0.054 C 
BRANCH  26  30
ATOM     27  C   UNL     1      -0.745   1.600   3.566  0.00  0.00    +0.162 A 
ATOM     28  C   UNL     1      -0.201   1.221   4.783  0.00  0.00    +0.050 A 
ATOM     29  C   UNL     1       0.938   0.438   4.817  0.00  0.00    +0.007 A 
ATOM     30  C   UNL     1       1.534   0.028   3.639  0.00  0.00    -0.042 A 
ATOM     31  C   UNL     1       0.993   0.398   2.422  0.00  0.00    +0.053 A 
ATOM     32  C   UNL     1      -0.148   1.182   2.380  0.00  0.00    +0.162 A 
BRANCH  27  33
ATOM     33  O   UNL     1      -1.862   2.374   3.531  0.00  0.00    -0.489 OA
BRANCH  33  35
ATOM     34  C   UNL     1      -3.663   3.626   4.546  0.00  0.00    +0.048 C 
ATOM     35  C   UNL     1      -2.420   2.766   4.787  0.00  0.00    +0.226 C 
ENDBRANCH  33  35
ENDBRANCH  27  33
BRANCH  32  36
ATOM     36  O   UNL     1      -0.682   1.547   1.184  0.00  0.00    -0.489 OA
BRANCH  36  37
ATOM     37  C   UNL     1      -0.013   1.086   0.008  0.00  0.00    +0.226 C 
ATOM     38  C   UNL     1      -0.753   1.593  -1.232  0.00  0.00    +0.048 C 
ENDBRANCH  36  37
ENDBRANCH  32  36
ENDBRANCH  26  30
ENDBRANCH  25  26
ENDBRANCH  21  25
ENDBRANCH   1  22
TORSDOF 11
