REMARK  Name = ZINC08837391
REMARK  10 active torsions:
REMARK  status: ('A' for Active; 'I' for Inactive)
REMARK    1  A    between atoms: C_1  and  C_2
REMARK    2  A    between atoms: C_2  and  N_57
REMARK    3  A    between atoms: C_3  and  C_4
REMARK    4  A    between atoms: C_3  and  N_57
REMARK    5  A    between atoms: C_5  and  C_6
REMARK    6  A    between atoms: C_5  and  N_57
REMARK    7  A    between atoms: C_6  and  N_7
REMARK    8  A    between atoms: C_8  and  C_26
REMARK    9  A    between atoms: C_11  and  C_12
REMARK   10  A    between atoms: C_11  and  O_21
REMARK                            x       y       z     vdW  Elec       q    Type
REMARK                         _______ _______ _______ _____ _____    ______ ____
ROOT
ATOM      1  N   UNL     1       6.086   3.271   1.316  0.00  0.00    -0.285 N 
ATOM      2  C   UNL     1       5.368   2.920   0.087  0.00  0.00    +0.147 C 
ATOM      3  C   UNL     1       6.415   2.736  -0.987  0.00  0.00    +0.074 C 
ATOM      4  C   UNL     1       6.197   2.398  -2.313  0.00  0.00    +0.168 C 
ATOM      5  C   UNL     1       7.651   2.974  -0.372  0.00  0.00    +0.249 C 
ATOM      6  O   UNL     1       8.741   2.921  -0.915  0.00  0.00    -0.282 OA
ATOM      7  C   UNL     1       7.404   3.303   1.057  0.00  0.00    +0.288 C 
ATOM      8  O   UNL     1       8.267   3.563   1.870  0.00  0.00    -0.266 OA
ENDROOT
BRANCH   4   9
ATOM      9  C   UNL     1       7.332   2.140  -3.198  0.00  0.00    +0.171 A 
ATOM     10  C   UNL     1       7.486   2.654  -4.451  0.00  0.00    +0.061 A 
ATOM     11  C   UNL     1       8.715   2.156  -4.951  0.00  0.00    +0.021 A 
ATOM     12  C   UNL     1       9.409   2.322  -6.155  0.00  0.00    +0.011 A 
ATOM     13  C   UNL     1      10.602   1.685  -6.343  0.00  0.00    +0.001 A 
ATOM     14  C   UNL     1      11.132   0.874  -5.348  0.00  0.00    +0.004 A 
ATOM     15  C   UNL     1      10.466   0.697  -4.155  0.00  0.00    +0.047 A 
ATOM     16  C   UNL     1       9.250   1.334  -3.941  0.00  0.00    +0.136 A 
ATOM     17  O   UNL     1       8.388   1.351  -2.904  0.00  0.00    -0.452 OA
ENDBRANCH   4   9
BRANCH   2  18
ATOM     18  C   UNL     1       4.427   4.033  -0.296  0.00  0.00    +0.013 A 
ATOM     19  C   UNL     1       4.680   5.327   0.121  0.00  0.00    +0.008 A 
ATOM     20  C   UNL     1       3.817   6.348  -0.230  0.00  0.00    +0.001 A 
ATOM     21  C   UNL     1       2.700   6.077  -0.999  0.00  0.00    +0.003 A 
ATOM     22  C   UNL     1       2.448   4.785  -1.421  0.00  0.00    +0.039 A 
ATOM     23  C   UNL     1       3.309   3.761  -1.065  0.00  0.00    +0.129 A 
ATOM     24  F   UNL     1       3.061   2.497  -1.473  0.00  0.00    -0.205 F 
ENDBRANCH   2  18
BRANCH   4  25
ATOM     25  O   UNL     1       4.935   2.308  -2.788  0.00  0.00    -0.503 OA
ATOM     26  H   UNL     1       4.960   2.057  -3.756  0.00  0.00    +0.292 HD
ENDBRANCH   4  25
BRANCH   1  27
ATOM     27  C   UNL     1       5.467   3.541   2.616  0.00  0.00    +0.090 C 
BRANCH  27  28
ATOM     28  C   UNL     1       5.354   2.236   3.408  0.00  0.00    -0.060 C 
BRANCH  28  29
ATOM     29  N   UNL     1       4.748   2.528   4.724  0.00  0.00    +0.380 N 
ATOM     30  H   UNL     1       5.268   3.295   5.168  0.00  0.00    -0.082 HD
BRANCH  29  32
ATOM     31  C   UNL     1       2.529   1.823   3.892  0.00  0.00    -0.017 C 
ATOM     32  C   UNL     1       3.339   2.941   4.551  0.00  0.00    -0.082 C 
ENDBRANCH  29  32
BRANCH  29  33
ATOM     33  C   UNL     1       4.821   1.333   5.590  0.00  0.00    -0.082 C 
ATOM     34  C   UNL     1       4.479   1.743   7.024  0.00  0.00    -0.017 C 
ENDBRANCH  29  33
ENDBRANCH  28  29
ENDBRANCH  27  28
ENDBRANCH   1  27
TORSDOF 8
