REMARK  Name = ZINC23129772
REMARK  7 active torsions:
REMARK  status: ('A' for Active; 'I' for Inactive)
REMARK    1  A    between atoms: C_1  and  O_2
REMARK    2  A    between atoms: O_2  and  C_3
REMARK    3  A    between atoms: C_8  and  C_9
REMARK    4  A    between atoms: C_9  and  N_10
REMARK    5  A    between atoms: C_16  and  C_18
REMARK    6  A    between atoms: C_18  and  C_19
REMARK    7  A    between atoms: N_26  and  C_27
REMARK                            x       y       z     vdW  Elec       q    Type
REMARK                         _______ _______ _______ _____ _____    ______ ____
ROOT
ATOM      1  N   UNL     1       3.676   3.926   1.576  0.00  0.00    -0.295 NA
ATOM      2  C   UNL     1       2.544   4.796   1.921  0.00  0.00    +0.103 C 
ATOM      3  C   UNL     1       2.658   5.219   3.390  0.00  0.00    +0.123 C 
ATOM      4  N   UNL     1       3.986   5.812   3.603  0.00  0.00    -0.299 N 
ATOM      5  C   UNL     1       5.166   5.057   3.156  0.00  0.00    +0.123 C 
ATOM      6  C   UNL     1       4.954   4.641   1.697  0.00  0.00    +0.103 C 
ATOM      7  C   UNL     1       4.119   7.017   4.194  0.00  0.00    +0.215 C 
ATOM      8  O   UNL     1       5.222   7.491   4.362  0.00  0.00    -0.276 OA
ENDROOT
BRANCH   1   9
ATOM      9  C   UNL     1       3.514   3.360   0.230  0.00  0.00    +0.123 C 
BRANCH   9  15
ATOM     10  C   UNL     1       1.042   2.957   0.111  0.00  0.00    +0.124 A 
ATOM     11  C   UNL     1      -0.051   2.104   0.096  0.00  0.00    +0.046 A 
ATOM     12  C   UNL     1       0.139   0.738   0.177  0.00  0.00    +0.004 A 
ATOM     13  C   UNL     1       1.417   0.222   0.284  0.00  0.00    +0.001 A 
ATOM     14  C   UNL     1       2.508   1.070   0.300  0.00  0.00    +0.008 A 
ATOM     15  C   UNL     1       2.324   2.436   0.213  0.00  0.00    +0.008 A 
BRANCH  10  17
ATOM     16  C   UNL     1      -0.489   4.766  -0.077  0.00  0.00    +0.277 C 
ATOM     17  O   UNL     1       0.859   4.301   0.026  0.00  0.00    -0.495 OA
ENDBRANCH  10  17
ENDBRANCH   9  15
ENDBRANCH   1   9
BRANCH   7  18
ATOM     18  C   UNL     1       2.896   7.774   4.644  0.00  0.00    +0.090 C 
BRANCH  18  19
ATOM     19  C   UNL     1       3.326   9.046   5.377  0.00  0.00    +0.028 C 
ATOM     20  C   UNL     1       4.056   9.949   4.423  0.00  0.00    +0.200 C 
ATOM     21  O   UNL     1       3.616  10.088   3.302  0.00  0.00    -0.278 OA
ATOM     22  N   UNL     1       5.171  10.606   4.760  0.00  0.00    -0.318 N 
ATOM     23  C   UNL     1       5.802  10.480   6.071  0.00  0.00    +0.085 C 
ATOM     24  C   UNL     1       4.806   9.901   7.078  0.00  0.00    -0.058 C 
ATOM     25  N   UNL     1       4.202   8.690   6.501  0.00  0.00    +0.390 N 
ATOM     26  H   UNL     1       5.614  11.264   3.998  0.00  0.00    +0.149 HD
ATOM     27  H   UNL     1       5.006   8.042   6.123  0.00  0.00    -0.080 HD
BRANCH  25  28
ATOM     28  C   UNL     1       3.466   7.931   7.522  0.00  0.00    -0.067 C 
ATOM     29  C   UNL     1       2.408   8.834   8.190  0.00  0.00    -0.015 C 
ATOM     30  C   UNL     1       2.416   8.393   9.675  0.00  0.00    -0.002 C 
ATOM     31  C   UNL     1       3.918   8.123   9.943  0.00  0.00    -0.002 C 
ATOM     32  C   UNL     1       4.425   7.479   8.636  0.00  0.00    -0.015 C 
ENDBRANCH  25  28
ENDBRANCH  18  19
ENDBRANCH   7  18
TORSDOF 6
