REMARK  Name = ZINC64491020
REMARK  2 active torsions:
REMARK  status: ('A' for Active; 'I' for Inactive)
REMARK    1  A    between atoms: C_6  and  C_7
REMARK    2  A    between atoms: N_25  and  C_26
REMARK                            x       y       z     vdW  Elec       q    Type
REMARK                         _______ _______ _______ _____ _____    ______ ____
ROOT
ATOM      1  C   UNL     1      -0.741  -0.564  -0.407  0.00  0.00    +0.134 C 
ATOM      2  C   UNL     1      -1.096  -0.838   1.058  0.00  0.00    +0.131 C 
ATOM      3  C   UNL     1      -0.373  -2.120   1.449  0.00  0.00    -0.035 C 
ATOM      4  C   UNL     1       0.369  -1.824   2.510  0.00  0.00    +0.001 A 
ATOM      5  C   UNL     1       1.226  -2.658   3.367  0.00  0.00    +0.030 A 
ATOM      6  C   UNL     1       1.864  -2.015   4.383  0.00  0.00    +0.042 A 
ATOM      7  C   UNL     1       1.735  -0.643   4.626  0.00  0.00    +0.022 A 
ATOM      8  C   UNL     1       0.965   0.197   3.890  0.00  0.00    +0.027 A 
ATOM      9  C   UNL     1       0.241  -0.363   2.797  0.00  0.00    +0.043 A 
ATOM     10  N   UNL     1      -0.591   0.211   1.946  0.00  0.00    -0.375 N 
ATOM     11 CL   UNL     1       2.891  -2.944   5.429  0.00  0.00    -0.084 Cl
ATOM     12  C   UNL     1      -0.497  -3.395   0.651  0.00  0.00    +0.052 C 
ATOM     13  C   UNL     1      -0.217  -3.028  -0.817  0.00  0.00    +0.114 C 
ATOM     14  N   UNL     1      -0.955  -1.807  -1.164  0.00  0.00    -0.276 N 
ATOM     15  C   UNL     1      -1.836  -1.825  -2.183  0.00  0.00    +0.307 C 
ATOM     16  O   UNL     1      -2.382  -0.797  -2.533  0.00  0.00    -0.252 OA
ATOM     17  N   UNL     1      -2.112  -2.984  -2.815  0.00  0.00    -0.269 N 
ATOM     18  H   UNL     1      -1.727  -3.814  -2.495  0.00  0.00    +0.156 HD
ATOM     19  H   UNL     1      -0.825   1.151   1.904  0.00  0.00    +0.160 HD
ENDROOT
BRANCH  17  20
ATOM     20  C   UNL     1      -2.957  -2.988  -3.933  0.00  0.00    +0.038 A 
ATOM     21  C   UNL     1      -3.857  -1.948  -4.128  0.00  0.00    +0.027 A 
ATOM     22  C   UNL     1      -4.690  -1.951  -5.230  0.00  0.00    +0.051 A 
ATOM     23  C   UNL     1      -4.630  -2.990  -6.144  0.00  0.00    +0.166 A 
ATOM     24  C   UNL     1      -3.728  -4.034  -5.952  0.00  0.00    +0.168 A 
ATOM     25  C   UNL     1      -2.890  -4.028  -4.849  0.00  0.00    +0.073 A 
ATOM     26  O   UNL     1      -3.864  -4.922  -6.980  0.00  0.00    -0.453 OA
ATOM     27  C   UNL     1      -5.136  -4.621  -7.583  0.00  0.00    +0.466 C 
ATOM     28  O   UNL     1      -5.330  -3.224  -7.293  0.00  0.00    -0.453 OA
ENDBRANCH  17  20
BRANCH   1  34
ATOM     29  C   UNL     1       1.708  -1.053  -0.242  0.00  0.00    +0.008 A 
ATOM     30  C   UNL     1       3.032  -0.669  -0.338  0.00  0.00    +0.038 A 
ATOM     31  C   UNL     1       3.351   0.627  -0.706  0.00  0.00    +0.123 A 
ATOM     32  C   UNL     1       2.343   1.537  -0.977  0.00  0.00    +0.038 A 
ATOM     33  C   UNL     1       1.020   1.151  -0.880  0.00  0.00    +0.008 A 
ATOM     34  C   UNL     1       0.702  -0.144  -0.512  0.00  0.00    -0.025 A 
ATOM     35  F   UNL     1       4.645   1.004  -0.800  0.00  0.00    -0.205 F 
ENDBRANCH   1  34
TORSDOF 2
