REMARK  Name = ZINC43943061
REMARK  7 active torsions:
REMARK  status: ('A' for Active; 'I' for Inactive)
REMARK    1  A    between atoms: C_4  and  N_11
REMARK    2  A    between atoms: C_5  and  C_7
REMARK    3  A    between atoms: C_12  and  C_14
REMARK    4  A    between atoms: N_16  and  C_17
REMARK    5  A    between atoms: C_17  and  C_18
REMARK    6  A    between atoms: C_24  and  C_26
REMARK    7  A    between atoms: C_26  and  C_29
REMARK                            x       y       z     vdW  Elec       q    Type
REMARK                         _______ _______ _______ _____ _____    ______ ____
ROOT
ATOM      1  C   UNL     1       6.288  -1.974  -1.462  0.00  0.00    +0.299 C 
ATOM      2  O   UNL     1       6.521  -3.165  -1.495  0.00  0.00    -0.265 OA
ATOM      3  N   UNL     1       7.301  -1.091  -1.368  0.00  0.00    -0.307 N 
ATOM      4  H   UNL     1       7.114  -0.139  -1.342  0.00  0.00    +0.149 HD
ENDROOT
BRANCH   1   6
ATOM      5  N   UNL     1       3.863  -2.372  -1.619  0.00  0.00    -0.277 N 
ATOM      6  C   UNL     1       4.877  -1.488  -1.525  0.00  0.00    +0.303 C 
ATOM      7  O   UNL     1       4.643  -0.298  -1.492  0.00  0.00    -0.265 OA
ATOM      8  H   UNL     1       4.043  -3.324  -1.564  0.00  0.00    +0.155 HD
BRANCH   5  12
ATOM      9  C   UNL     1      -0.039  -1.017  -2.145  0.00  0.00    +0.001 A 
ATOM     10  C   UNL     1       1.026  -0.191  -2.454  0.00  0.00    +0.002 A 
ATOM     11  C   UNL     1       2.321  -0.636  -2.281  0.00  0.00    +0.024 A 
ATOM     12  C   UNL     1       2.554  -1.917  -1.795  0.00  0.00    +0.045 A 
ATOM     13  C   UNL     1       1.482  -2.745  -1.485  0.00  0.00    +0.076 A 
ATOM     14  C   UNL     1       0.189  -2.292  -1.662  0.00  0.00    +0.014 A 
BRANCH  13  15
ATOM     15  C   UNL     1       1.730  -4.135  -0.958  0.00  0.00    +0.419 C 
ATOM     16  F   UNL     1       0.505  -4.769  -0.722  0.00  0.00    -0.166 F 
ATOM     17  F   UNL     1       2.460  -4.867  -1.900  0.00  0.00    -0.166 F 
ATOM     18  F   UNL     1       2.453  -4.059   0.236  0.00  0.00    -0.166 F 
ENDBRANCH  13  15
ENDBRANCH   5  12
ENDBRANCH   1   6
BRANCH   3  19
ATOM     19  C   UNL     1       8.685  -1.567  -1.306  0.00  0.00    +0.108 C 
BRANCH  19  20
ATOM     20  C   UNL     1       9.632  -0.370  -1.204  0.00  0.00    +0.009 C 
ATOM     21  C   UNL     1       9.546   0.460  -2.487  0.00  0.00    +0.024 C 
ATOM     22  C   UNL     1      10.469   1.676  -2.367  0.00  0.00    +0.108 C 
ATOM     23  N   UNL     1      11.824   1.210  -2.040  0.00  0.00    -0.300 N 
ATOM     24  C   UNL     1      12.008   0.331  -0.877  0.00  0.00    +0.108 C 
ATOM     25  C   UNL     1      11.066  -0.870  -1.014  0.00  0.00    +0.024 C 
ATOM     26  C   UNL     1      12.878   1.582  -2.793  0.00  0.00    +0.236 C 
ATOM     27  O   UNL     1      13.979   1.127  -2.562  0.00  0.00    -0.274 OA
BRANCH  26  28
ATOM     28  C   UNL     1      12.690   2.563  -3.921  0.00  0.00    +0.133 C 
ATOM     29  C   UNL     1      12.641   2.002  -5.344  0.00  0.00    +0.033 C 
ATOM     30  C   UNL     1      13.869   2.782  -4.871  0.00  0.00    +0.033 C 
BRANCH  28  31
ATOM     31  C   UNL     1      11.836   3.723  -3.618  0.00  0.00    +0.079 C 
ATOM     32  N   UNL     1      11.178   4.619  -3.384  0.00  0.00    -0.195 NA
ENDBRANCH  28  31
ENDBRANCH  26  28
ENDBRANCH  19  20
ENDBRANCH   3  19
TORSDOF 7
