REMARK  Name = ZINC35501773
REMARK  5 active torsions:
REMARK  status: ('A' for Active; 'I' for Inactive)
REMARK    1  A    between atoms: C_1  and  C_2
REMARK    2  A    between atoms: C_7  and  C_8
REMARK    3  A    between atoms: C_8  and  C_10
REMARK    4  A    between atoms: C_8  and  N_21
REMARK    5  A    between atoms: N_21  and  C_22
REMARK                            x       y       z     vdW  Elec       q    Type
REMARK                         _______ _______ _______ _____ _____    ______ ____
ROOT
ATOM      1  C   UNL     1       0.243   0.049   2.492  0.00  0.00    -0.010 C 
ENDROOT
BRANCH   1   2
ATOM      2  C   UNL     1      -1.132   0.278   3.064  0.00  0.00    -0.055 A 
ATOM      3  C   UNL     1      -1.730  -0.700   3.837  0.00  0.00    +0.006 A 
ATOM      4  C   UNL     1      -2.991  -0.497   4.367  0.00  0.00    +0.048 A 
ATOM      5  C   UNL     1      -3.659   0.690   4.121  0.00  0.00    +0.142 A 
ATOM      6  C   UNL     1      -3.057   1.676   3.340  0.00  0.00    +0.076 A 
ATOM      7  C   UNL     1      -1.791   1.469   2.818  0.00  0.00    +0.029 A 
ATOM      8  N   UNL     1      -3.745   2.873   3.097  0.00  0.00    -0.280 N 
ATOM      9  C   UNL     1      -4.815   3.180   3.862  0.00  0.00    +0.255 C 
ATOM     10  O   UNL     1      -5.445   4.195   3.650  0.00  0.00    -0.272 OA
ATOM     11  C   UNL     1      -5.224   2.256   4.981  0.00  0.00    +0.325 C 
ATOM     12  O   UNL     1      -4.899   0.908   4.634  0.00  0.00    -0.481 OA
ATOM     13  H   UNL     1      -3.457   3.472   2.390  0.00  0.00    +0.155 HD
ENDBRANCH   1   2
BRANCH   1  20
ATOM     14  C   UNL     1      -0.284   0.892  -0.220  0.00  0.00    +0.044 C 
ATOM     15  C   UNL     1      -0.088  -0.570   0.090  0.00  0.00    -0.049 A 
ATOM     16  C   UNL     1      -0.155  -1.507  -0.924  0.00  0.00    +0.003 A 
ATOM     17  C   UNL     1       0.024  -2.848  -0.640  0.00  0.00    +0.000 A 
ATOM     18  C   UNL     1       0.271  -3.252   0.659  0.00  0.00    +0.000 A 
ATOM     19  C   UNL     1       0.339  -2.315   1.673  0.00  0.00    +0.002 A 
ATOM     20  C   UNL     1       0.164  -0.973   1.388  0.00  0.00    -0.054 A 
ENDBRANCH   1  20
BRANCH   1  21
ATOM     21  N   UNL     1       1.137  -0.442   3.550  0.00  0.00    +0.384 N 
ATOM     22  C   UNL     1       2.504  -0.552   3.023  0.00  0.00    -0.099 C 
ATOM     23  H   UNL     1       1.127   0.204   4.325  0.00  0.00    -0.085 HD
ATOM     24  H   UNL     1       0.823  -1.348   3.862  0.00  0.00    -0.085 HD
ENDBRANCH   1  21
TORSDOF 3
