REMARK  Name = ZINC00985808
REMARK  8 active torsions:
REMARK  status: ('A' for Active; 'I' for Inactive)
REMARK    1  A    between atoms: C_1  and  C_2
REMARK    2  A    between atoms: C_2  and  C_3
REMARK    3  A    between atoms: C_2  and  C_4
REMARK    4  A    between atoms: C_2  and  C_5
REMARK    5  A    between atoms: N_16  and  C_27
REMARK    6  A    between atoms: C_19  and  S_22
REMARK    7  A    between atoms: S_22  and  C_23
REMARK    8  A    between atoms: C_23  and  C_24
REMARK                            x       y       z     vdW  Elec       q    Type
REMARK                         _______ _______ _______ _____ _____    ______ ____
ROOT
ATOM      1  C   UNL     1       0.718  -0.497  -1.257  0.00  0.00    -0.000 C 
ATOM      2  C   UNL     1       0.745  -2.029  -1.265  0.00  0.00    +0.009 C 
ATOM      3  C   UNL     1       1.235  -2.534  -2.624  0.00  0.00    +0.037 C 
ATOM      4  C   UNL     1       2.547  -1.840  -2.956  0.00  0.00    -0.023 A 
ATOM      5  C   UNL     1       2.920  -0.707  -2.329  0.00  0.00    -0.004 A 
ATOM      6  S   UNL     1       4.485  -0.294  -3.045  0.00  0.00    -0.074 S 
ATOM      7  C   UNL     1       4.642  -1.562  -4.123  0.00  0.00    +0.102 A 
ATOM      8  C   UNL     1       3.495  -2.330  -3.958  0.00  0.00    +0.074 A 
ATOM      9  C   UNL     1       3.380  -3.536  -4.810  0.00  0.00    +0.264 A 
ATOM     10  O   UNL     1       2.401  -4.255  -4.721  0.00  0.00    -0.267 OA
ATOM     11  N   UNL     1       4.358  -3.832  -5.681  0.00  0.00    -0.280 N 
ATOM     12  C   UNL     1       5.481  -3.031  -5.804  0.00  0.00    +0.240 A 
ATOM     13  N   UNL     1       5.620  -1.907  -5.032  0.00  0.00    -0.249 N 
ATOM     14  C   UNL     1       6.812  -1.317  -5.363  0.00  0.00    +0.198 A 
ATOM     15  N   UNL     1       7.380  -2.043  -6.294  0.00  0.00    -0.120 NA
ATOM     16  N   UNL     1       6.540  -3.128  -6.573  0.00  0.00    -0.109 NA
ATOM     17  C   UNL     1       4.235  -5.028  -6.519  0.00  0.00    +0.155 C 
ATOM     18  C   UNL     1       2.161   0.028  -1.267  0.00  0.00    +0.046 C 
ENDROOT
BRANCH   1  20
ATOM     19  C   UNL     1      -0.019   1.526   0.010  0.00  0.00    +0.011 C 
ATOM     20  C   UNL     1       0.002  -0.004   0.002  0.00  0.00    -0.035 C 
ATOM     21  C   UNL     1       0.742  -0.511   1.242  0.00  0.00    +0.011 C 
ATOM     22  C   UNL     1      -1.433  -0.534   0.013  0.00  0.00    +0.011 C 
ENDBRANCH   1  20
BRANCH  14  23
ATOM     23  S   UNL     1       7.465   0.160  -4.659  0.00  0.00    -0.076 S 
BRANCH  23  24
ATOM     24  C   UNL     1       9.046   0.394  -5.518  0.00  0.00    +0.172 C 
BRANCH  24  25
ATOM     25  C   UNL     1       9.718   1.640  -5.003  0.00  0.00    +0.221 C 
ATOM     26  O   UNL     1       9.183   2.305  -4.141  0.00  0.00    -0.275 OA
ATOM     27  N   UNL     1      10.913   2.016  -5.500  0.00  0.00    -0.329 N 
ATOM     28  H   UNL     1      11.340   1.484  -6.189  0.00  0.00    +0.145 HD
ATOM     29  H   UNL     1      11.346   2.818  -5.168  0.00  0.00    +0.145 HD
ENDBRANCH  24  25
ENDBRANCH  23  24
ENDBRANCH  14  23
TORSDOF 4
