REMARK  Name = ZINC34774577
REMARK  9 active torsions:
REMARK  status: ('A' for Active; 'I' for Inactive)
REMARK    1  A    between atoms: C_1  and  C_2
REMARK    2  A    between atoms: C_5  and  C_9
REMARK    3  A    between atoms: C_6  and  C_8
REMARK    4  A    between atoms: C_9  and  N_10
REMARK    5  A    between atoms: C_18  and  C_36
REMARK    6  A    between atoms: C_23  and  S_25
REMARK    7  A    between atoms: S_25  and  C_26
REMARK    8  A    between atoms: C_26  and  C_27
REMARK    9  A    between atoms: C_30  and  N_33
REMARK                            x       y       z     vdW  Elec       q    Type
REMARK                         _______ _______ _______ _____ _____    ______ ____
ROOT
ATOM      1  N   UNL     1      -1.813  -4.000  -0.150  0.00  0.00    +0.384 N 
ATOM      2  C   UNL     1      -3.009  -3.606  -0.905  0.00  0.00    -0.059 C 
ATOM      3  C   UNL     1      -4.215  -4.408  -0.405  0.00  0.00    +0.088 C 
ATOM      4  N   UNL     1      -3.889  -5.840  -0.488  0.00  0.00    -0.318 N 
ATOM      5  C   UNL     1      -2.622  -6.298   0.103  0.00  0.00    +0.088 C 
ATOM      6  C   UNL     1      -1.492  -5.407  -0.422  0.00  0.00    -0.059 C 
ATOM      7  C   UNL     1      -4.750  -6.730  -1.103  0.00  0.00    +0.134 A 
ATOM      8  C   UNL     1      -5.855  -7.272  -0.389  0.00  0.00    +0.051 A 
ATOM      9  C   UNL     1      -6.278  -7.038   0.982  0.00  0.00    -0.031 A 
ATOM     10  C   UNL     1      -7.367  -7.666   1.448  0.00  0.00    +0.051 A 
ATOM     11  S   UNL     1      -7.916  -8.635   0.055  0.00  0.00    -0.077 S 
ATOM     12  C   UNL     1      -6.667  -8.170  -1.115  0.00  0.00    +0.115 A 
ATOM     13  N   UNL     1      -6.404  -8.476  -2.370  0.00  0.00    -0.215 NA
ATOM     14  C   UNL     1      -5.358  -7.940  -2.985  0.00  0.00    +0.191 A 
ATOM     15  N   UNL     1      -4.558  -7.083  -2.362  0.00  0.00    -0.206 NA
ATOM     16  C   UNL     1      -5.500  -6.101   1.870  0.00  0.00    +0.045 C 
ATOM     17  H   UNL     1      -1.986  -3.880   0.836  0.00  0.00    -0.081 HD
ENDROOT
BRANCH   1  18
ATOM     18  C   UNL     1      -0.681  -3.154  -0.554  0.00  0.00    -0.043 C 
BRANCH  18  23
ATOM     19  C   UNL     1      -1.746   2.325   0.942  0.00  0.00    +0.044 C 
ATOM     20  C   UNL     1      -1.468   0.896   0.551  0.00  0.00    -0.050 A 
ATOM     21  C   UNL     1      -1.668   0.484  -0.753  0.00  0.00    +0.003 A 
ATOM     22  C   UNL     1      -1.413  -0.826  -1.111  0.00  0.00    +0.002 A 
ATOM     23  C   UNL     1      -0.958  -1.725  -0.164  0.00  0.00    -0.061 A 
ATOM     24  C   UNL     1      -0.757  -1.313   1.140  0.00  0.00    -0.049 A 
ATOM     25  C   UNL     1      -1.008  -0.001   1.497  0.00  0.00    +0.007 A 
ATOM     26  C   UNL     1      -0.262  -2.293   2.172  0.00  0.00    +0.044 C 
ENDBRANCH  18  23
ENDBRANCH   1  18
BRANCH  14  27
ATOM     27  S   UNL     1      -5.030  -8.367  -4.663  0.00  0.00    -0.081 S 
BRANCH  27  28
ATOM     28  C   UNL     1      -6.357  -9.530  -5.088  0.00  0.00    +0.112 C 
BRANCH  28  29
ATOM     29  C   UNL     1      -6.192  -9.979  -6.517  0.00  0.00    -0.037 A 
ATOM     30  C   UNL     1      -6.795  -9.269  -7.538  0.00  0.00    +0.007 A 
ATOM     31  C   UNL     1      -6.644  -9.682  -8.849  0.00  0.00    +0.033 A 
ATOM     32  C   UNL     1      -5.890 -10.804  -9.138  0.00  0.00    +0.126 A 
ATOM     33  C   UNL     1      -5.287 -11.513  -8.117  0.00  0.00    +0.033 A 
ATOM     34  C   UNL     1      -5.434 -11.098  -6.806  0.00  0.00    +0.007 A 
BRANCH  32  35
ATOM     35  N   UNL     1      -5.730 -11.246 -10.542  0.00  0.00    +0.056 N 
ATOM     36  O   UNL     1      -6.258 -10.626 -11.435  0.00  0.00    -0.126 OA
ATOM     37  O   UNL     1      -5.070 -12.227 -10.794  0.00  0.00    -0.126 OA
ENDBRANCH  32  35
ENDBRANCH  28  29
ENDBRANCH  27  28
ENDBRANCH  14  27
TORSDOF 6
