REMARK  Name = ZINC02503070
REMARK  6 active torsions:
REMARK  status: ('A' for Active; 'I' for Inactive)
REMARK    1  A    between atoms: C_1  and  C_2
REMARK    2  A    between atoms: C_2  and  C_3
REMARK    3  A    between atoms: C_3  and  C_4
REMARK    4  A    between atoms: C_11  and  N_16
REMARK    5  A    between atoms: C_12  and  C_13
REMARK    6  A    between atoms: C_17  and  C_19
REMARK                            x       y       z     vdW  Elec       q    Type
REMARK                         _______ _______ _______ _____ _____    ______ ____
ROOT
ATOM      1  C   UNL     1      -6.688  -1.367   0.405  0.00  0.00    -0.006 C 
ATOM      2  C   UNL     1      -7.062  -0.135  -0.423  0.00  0.00    +0.008 C 
ATOM      3  C   UNL     1      -6.239   1.070   0.036  0.00  0.00    +0.037 C 
ATOM      4  C   UNL     1      -4.764   0.688   0.028  0.00  0.00    -0.023 A 
ATOM      5  C   UNL     1      -4.381  -0.608   0.018  0.00  0.00    -0.004 A 
ATOM      6  S   UNL     1      -2.611  -0.556   0.004  0.00  0.00    -0.077 S 
ATOM      7  C   UNL     1      -2.381   1.161   0.020  0.00  0.00    +0.085 A 
ATOM      8  C   UNL     1      -3.679   1.654   0.029  0.00  0.00    +0.068 A 
ATOM      9  C   UNL     1      -5.271  -1.812   0.017  0.00  0.00    +0.046 C 
ENDROOT
BRANCH   8  10
ATOM     10  C   UNL     1      -3.944   3.095   0.038  0.00  0.00    +0.244 C 
ATOM     11  O   UNL     1      -4.059   3.700  -1.012  0.00  0.00    -0.270 OA
ATOM     12  N   UNL     1      -4.061   3.752   1.209  0.00  0.00    -0.325 N 
ATOM     13  H   UNL     1      -3.970   3.270   2.046  0.00  0.00    +0.145 HD
ATOM     14  H   UNL     1      -4.237   4.705   1.216  0.00  0.00    +0.145 HD
ENDBRANCH   8  10
BRANCH   7  15
ATOM     15  N   UNL     1      -1.191   1.870   0.018  0.00  0.00    -0.275 N 
ATOM     16  C   UNL     1      -0.014   1.212   0.009  0.00  0.00    +0.249 C 
ATOM     17  O   UNL     1       0.002  -0.004   0.002  0.00  0.00    -0.270 OA
ATOM     18  H   UNL     1      -1.204   2.840   0.023  0.00  0.00    +0.156 HD
BRANCH  16  19
ATOM     19  C   UNL     1       1.253   1.967   0.001  0.00  0.00    +0.041 A 
ATOM     20  C   UNL     1       1.236   3.364   0.008  0.00  0.00    +0.017 A 
ATOM     21  C   UNL     1       2.421   4.067   0.001  0.00  0.00    +0.050 A 
ATOM     22  C   UNL     1       3.634   3.392  -0.014  0.00  0.00    +0.166 A 
ATOM     23  C   UNL     1       3.658   1.997  -0.022  0.00  0.00    +0.167 A 
ATOM     24  C   UNL     1       2.474   1.286  -0.009  0.00  0.00    +0.062 A 
ATOM     25  O   UNL     1       4.960   1.584  -0.036  0.00  0.00    -0.453 OA
ATOM     26  C   UNL     1       5.730   2.728   0.376  0.00  0.00    +0.466 C 
ATOM     27  O   UNL     1       4.919   3.849  -0.024  0.00  0.00    -0.453 OA
ENDBRANCH  16  19
ENDBRANCH   7  15
BRANCH   1  28
ATOM     28  C   UNL     1      -7.678  -2.498   0.117  0.00  0.00    +0.003 C 
BRANCH  28  30
ATOM     29  C   UNL     1      -8.356  -4.822   0.735  0.00  0.00    +0.004 C 
ATOM     30  C   UNL     1      -7.367  -3.691   1.023  0.00  0.00    -0.003 C 
ENDBRANCH  28  30
ENDBRANCH   1  28
TORSDOF 5
