REMARK  Name = ZINC44764352
REMARK  3 active torsions:
REMARK  status: ('A' for Active; 'I' for Inactive)
REMARK    1  A    between atoms: C_5  and  C_8
REMARK    2  A    between atoms: C_5  and  C_10
REMARK    3  A    between atoms: C_8  and  N_9
REMARK                            x       y       z     vdW  Elec       q    Type
REMARK                         _______ _______ _______ _____ _____    ______ ____
ROOT
ATOM      1  C   UNL     1      -0.120   1.488   0.284  0.00  0.00    +0.000 C 
ATOM      2  C   UNL     1       1.289   2.055   0.016  0.00  0.00    +0.000 C 
ATOM      3  C   UNL     1       2.048   2.083   1.315  0.00  0.00    +0.001 C 
ATOM      4  C   UNL     1       2.908   0.821   1.522  0.00  0.00    +0.014 C 
ATOM      5  C   UNL     1       2.182  -0.472   1.103  0.00  0.00    +0.032 C 
ATOM      6  C   UNL     1       0.741  -0.488   1.534  0.00  0.00    +0.014 C 
ATOM      7  C   UNL     1      -0.125   0.035   0.370  0.00  0.00    +0.001 C 
ENDROOT
BRANCH   5   8
ATOM      8  C   UNL     1       2.244  -0.602  -0.397  0.00  0.00    +0.220 C 
ATOM      9  O   UNL     1       2.937   0.156  -1.043  0.00  0.00    -0.275 OA
ATOM     10  N   UNL     1       1.530  -1.560  -1.020  0.00  0.00    -0.293 N 
ATOM     11  C   UNL     1       0.772  -2.569  -0.259  0.00  0.00    +0.136 C 
ATOM     12  C   UNL     1       1.123  -3.960  -0.796  0.00  0.00    +0.179 C 
ATOM     13  O   UNL     1       0.977  -3.983  -2.220  0.00  0.00    -0.373 OA
ATOM     14  C   UNL     1       1.841  -3.071  -2.895  0.00  0.00    +0.139 C 
ATOM     15  C   UNL     1       1.470  -1.637  -2.485  0.00  0.00    +0.105 C 
ATOM     16  C   UNL     1       2.461  -0.665  -3.123  0.00  0.00    +0.025 C 
ATOM     17  C   UNL     1       2.360  -0.784  -4.647  0.00  0.00    +0.002 C 
ATOM     18  C   UNL     1       2.677  -2.214  -5.083  0.00  0.00    +0.003 C 
ATOM     19  C   UNL     1       1.702  -3.191  -4.411  0.00  0.00    +0.033 C 
ENDBRANCH   5   8
BRANCH   5  20
ATOM     20  C   UNL     1       2.900  -1.668   1.731  0.00  0.00    -0.070 C 
BRANCH  20  21
ATOM     21  N   UNL     1       4.325  -1.627   1.375  0.00  0.00    +0.379 N 
ATOM     22  H   UNL     1       4.789  -2.439   1.750  0.00  0.00    -0.090 HD
ATOM     23  H   UNL     1       4.420  -1.619   0.370  0.00  0.00    -0.090 HD
ATOM     24  H   UNL     1       4.743  -0.792   1.758  0.00  0.00    -0.090 HD
ENDBRANCH  20  21
ENDBRANCH   5  20
TORSDOF 3
