REMARK  Name = ZINC21257350
REMARK  8 active torsions:
REMARK  status: ('A' for Active; 'I' for Inactive)
REMARK    1  A    between atoms: C_1  and  C_2
REMARK    2  A    between atoms: C_2  and  O_3
REMARK    3  A    between atoms: O_3  and  C_4
REMARK    4  A    between atoms: C_7  and  C_10
REMARK    5  A    between atoms: C_15  and  C_25
REMARK    6  A    between atoms: C_30  and  O_31
REMARK    7  A    between atoms: O_31  and  C_32
REMARK    8  A    between atoms: C_32  and  C_33
REMARK                            x       y       z     vdW  Elec       q    Type
REMARK                         _______ _______ _______ _____ _____    ______ ____
ROOT
ATOM      1  C   UNL     1      -1.940  -6.093  -0.195  0.00  0.00    +0.032 C 
ATOM      2  C   UNL     1      -1.332  -6.750  -1.433  0.00  0.00    +0.059 C 
ATOM      3  C   UNL     1      -1.521  -8.256  -1.365  0.00  0.00    +0.017 C 
ATOM      4  C   UNL     1      -1.508  -8.889  -0.180  0.00  0.00    +0.037 C 
ATOM      5  C   UNL     1      -1.661 -10.377   0.031  0.00  0.00    +0.139 C 
ATOM      6  N   UNL     1      -2.096 -11.107  -1.141  0.00  0.00    -0.331 N 
ATOM      7  C   UNL     1      -1.297 -11.181  -2.280  0.00  0.00    +0.049 A 
ATOM      8  C   UNL     1      -0.765 -12.384  -2.715  0.00  0.00    +0.025 A 
ATOM      9  C   UNL     1       0.061 -12.402  -3.825  0.00  0.00    +0.002 A 
ATOM     10  C   UNL     1       0.356 -11.229  -4.496  0.00  0.00    +0.002 A 
ATOM     11  C   UNL     1      -0.188 -10.027  -4.075  0.00  0.00    +0.025 A 
ATOM     12  C   UNL     1      -1.030 -10.012  -2.977  0.00  0.00    +0.052 A 
ATOM     13  N   UNL     1      -1.693  -8.861  -2.567  0.00  0.00    -0.316 N 
ATOM     14  C   UNL     1      -1.353  -8.155   1.019  0.00  0.00    +0.163 C 
ATOM     15  O   UNL     1      -1.324  -8.757   2.075  0.00  0.00    -0.292 OA
ATOM     16  C   UNL     1      -1.222  -6.662   1.035  0.00  0.00    +0.088 C 
ATOM     17  H   UNL     1      -3.072 -11.615  -1.142  0.00  0.00    +0.147 HD
ATOM     18  H   UNL     1      -2.399  -8.441  -3.299  0.00  0.00    +0.152 HD
ENDROOT
BRANCH   1  22
ATOM     19  C   UNL     1      -1.377  -1.861  -0.374  0.00  0.00    +0.121 A 
ATOM     20  C   UNL     1      -0.279  -2.709  -0.378  0.00  0.00    +0.046 A 
ATOM     21  C   UNL     1      -0.464  -4.077  -0.315  0.00  0.00    +0.007 A 
ATOM     22  C   UNL     1      -1.742  -4.601  -0.258  0.00  0.00    -0.043 A 
ATOM     23  C   UNL     1      -2.838  -3.758  -0.259  0.00  0.00    +0.007 A 
ATOM     24  C   UNL     1      -2.659  -2.390  -0.317  0.00  0.00    +0.046 A 
BRANCH  19  25
ATOM     25  O   UNL     1      -1.198  -0.515  -0.431  0.00  0.00    -0.492 OA
BRANCH  25  27
ATOM     26  C   UNL     1       0.150   1.487  -0.546  0.00  0.00    +0.048 C 
ATOM     27  C   UNL     1       0.149  -0.042  -0.487  0.00  0.00    +0.225 C 
ENDBRANCH  25  27
ENDBRANCH  19  25
ENDBRANCH   1  22
BRANCH   5  28
ATOM     28  C   UNL     1      -0.334 -10.936   0.473  0.00  0.00    +0.019 A 
ATOM     29  C   UNL     1       0.823 -10.204   0.282  0.00  0.00    +0.009 A 
ATOM     30  C   UNL     1       2.041 -10.714   0.692  0.00  0.00    +0.001 A 
ATOM     31  C   UNL     1       2.106 -11.962   1.283  0.00  0.00    +0.004 A 
ATOM     32  C   UNL     1       0.954 -12.700   1.471  0.00  0.00    +0.046 A 
ATOM     33  C   UNL     1      -0.270 -12.188   1.066  0.00  0.00    +0.126 A 
BRANCH  33  34
ATOM     34  O   UNL     1      -1.405 -12.913   1.249  0.00  0.00    -0.492 OA
BRANCH  34  35
ATOM     35  C   UNL     1      -1.265 -14.194   1.866  0.00  0.00    +0.225 C 
ATOM     36  C   UNL     1      -2.639 -14.855   1.988  0.00  0.00    +0.048 C 
ENDBRANCH  34  35
ENDBRANCH  33  34
ENDBRANCH   5  28
TORSDOF 6
