REMARK  Name = ZINC06015776
REMARK  9 active torsions:
REMARK  status: ('A' for Active; 'I' for Inactive)
REMARK    1  A    between atoms: C_1  and  C_2
REMARK    2  A    between atoms: C_1  and  C_25
REMARK    3  A    between atoms: C_2  and  N_3
REMARK    4  A    between atoms: C_8  and  C_9
REMARK    5  A    between atoms: N_14  and  C_17
REMARK    6  A    between atoms: C_17  and  C_18
REMARK    7  A    between atoms: C_18  and  C_19
REMARK    8  A    between atoms: C_19  and  C_20
REMARK    9  A    between atoms: C_25  and  C_26
REMARK                            x       y       z     vdW  Elec       q    Type
REMARK                         _______ _______ _______ _____ _____    ______ ____
ROOT
ATOM      1  N   UNL     1      -1.372  -0.511   0.012  0.00  0.00    -0.255 N 
ATOM      2  C   UNL     1      -1.981  -0.740   1.194  0.00  0.00    +0.121 C 
ATOM      3  S   UNL     1      -1.356  -0.516   2.772  0.00  0.00    -0.027 S 
ATOM      4  S   UNL     1      -3.595  -1.334   0.715  0.00  0.00    -0.061 S 
ATOM      5  C   UNL     1      -3.374  -1.245  -1.057  0.00  0.00    +0.077 C 
ATOM      6  C   UNL     1      -4.244  -1.563  -2.060  0.00  0.00    +0.021 C 
ATOM      7  C   UNL     1      -1.989  -0.729  -1.137  0.00  0.00    +0.258 C 
ATOM      8  O   UNL     1      -1.446  -0.518  -2.205  0.00  0.00    -0.269 OA
ENDROOT
BRANCH   6   9
ATOM      9  C   UNL     1      -3.855  -1.413  -3.402  0.00  0.00    +0.021 C 
ATOM     10  C   UNL     1      -4.725  -1.730  -4.405  0.00  0.00    +0.077 C 
ATOM     11  S   UNL     1      -4.501  -1.649  -6.177  0.00  0.00    -0.061 S 
ATOM     12  C   UNL     1      -6.117  -2.238  -6.656  0.00  0.00    +0.121 C 
ATOM     13  S   UNL     1      -6.741  -2.465  -8.234  0.00  0.00    -0.027 S 
ATOM     14  N   UNL     1      -6.728  -2.460  -5.474  0.00  0.00    -0.255 N 
ATOM     15  C   UNL     1      -6.111  -2.243  -4.325  0.00  0.00    +0.258 C 
ATOM     16  O   UNL     1      -6.657  -2.449  -3.257  0.00  0.00    -0.269 OA
BRANCH  14  17
ATOM     17  C   UNL     1      -8.105  -2.962  -5.464  0.00  0.00    +0.115 C 
BRANCH  17  18
ATOM     18  C   UNL     1      -8.090  -4.492  -5.460  0.00  0.00    +0.031 C 
BRANCH  18  19
ATOM     19  C   UNL     1      -9.527  -5.016  -5.449  0.00  0.00    +0.126 C 
BRANCH  19  20
ATOM     20  C   UNL     1      -9.513  -6.523  -5.445  0.00  0.00    +0.356 C 
ATOM     21  O   UNL     1      -8.451  -7.122  -5.450  0.00  0.00    -0.246 OA
ATOM     22  O   UNL     1     -10.562  -7.143  -5.436  0.00  0.00    -0.246 OA
ENDBRANCH  19  20
ENDBRANCH  18  19
ENDBRANCH  17  18
ENDBRANCH  14  17
ENDBRANCH   6   9
BRANCH   1  23
ATOM     23  C   UNL     1       0.002  -0.004   0.002  0.00  0.00    +0.115 C 
BRANCH  23  24
ATOM     24  C   UNL     1      -0.019   1.526   0.010  0.00  0.00    +0.031 C 
BRANCH  24  25
ATOM     25  C   UNL     1       1.417   2.055  -0.000  0.00  0.00    +0.126 C 
BRANCH  25  26
ATOM     26  C   UNL     1       1.396   3.562   0.008  0.00  0.00    +0.356 C 
ATOM     27  O   UNL     1       0.332   4.157   0.021  0.00  0.00    -0.246 OA
ATOM     28  O   UNL     1       2.444   4.186   0.001  0.00  0.00    -0.246 OA
ENDBRANCH  25  26
ENDBRANCH  24  25
ENDBRANCH  23  24
ENDBRANCH   1  23
TORSDOF 9
