REMARK  Name = ZINC26893712
REMARK  6 active torsions:
REMARK  status: ('A' for Active; 'I' for Inactive)
REMARK    1  A    between atoms: C_4  and  C_7
REMARK    2  A    between atoms: C_7  and  N_8
REMARK    3  A    between atoms: N_8  and  C_9
REMARK    4  A    between atoms: N_8  and  C_16
REMARK    5  A    between atoms: C_9  and  C_10
REMARK    6  A    between atoms: C_25  and  N_30
REMARK                            x       y       z     vdW  Elec       q    Type
REMARK                         _______ _______ _______ _____ _____    ______ ____
ROOT
ATOM      1  C   UNL     1       0.558   1.700  -1.425  0.00  0.00    +0.106 C 
ATOM      2  C   UNL     1       0.304   2.096  -2.873  0.00  0.00    +0.033 C 
ATOM      3  C   UNL     1       0.181   0.816  -3.710  0.00  0.00    +0.002 C 
ATOM      4  C   UNL     1       1.468  -0.005  -3.648  0.00  0.00    +0.004 C 
ATOM      5  C   UNL     1       1.760  -0.433  -2.200  0.00  0.00    +0.032 C 
ATOM      6  C   UNL     1       1.790   0.838  -1.375  0.00  0.00    -0.043 C 
ATOM      7  C   UNL     1       2.879   1.211  -0.729  0.00  0.00    +0.012 C 
ATOM      8  C   UNL     1       2.908   2.566  -0.134  0.00  0.00    +0.019 A 
ATOM      9  C   UNL     1       4.093   3.104   0.358  0.00  0.00    +0.044 A 
ATOM     10  C   UNL     1       4.095   4.378   0.890  0.00  0.00    +0.127 A 
ATOM     11  C   UNL     1       2.925   5.117   0.931  0.00  0.00    +0.036 A 
ATOM     12  C   UNL     1       1.742   4.588   0.451  0.00  0.00    +0.048 A 
ATOM     13  C   UNL     1       1.721   3.307  -0.077  0.00  0.00    +0.126 A 
ATOM     14  O   UNL     1       0.566   2.769  -0.517  0.00  0.00    -0.498 OA
ENDROOT
BRANCH  10  15
ATOM     15  N   UNL     1       5.352   4.957   1.417  0.00  0.00    +0.056 N 
ATOM     16  O   UNL     1       5.356   6.080   1.886  0.00  0.00    -0.126 OA
ATOM     17  O   UNL     1       6.382   4.308   1.381  0.00  0.00    -0.126 OA
ENDBRANCH  10  15
BRANCH   1  18
ATOM     18  N   UNL     1      -0.562   0.833  -1.035  0.00  0.00    +0.414 N 
ATOM     19  H   UNL     1      -0.737   0.119  -1.853  0.00  0.00    -0.074 HD
BRANCH  18  20
ATOM     20  C   UNL     1      -1.792   1.615  -0.848  0.00  0.00    -0.036 C 
BRANCH  20  24
ATOM     21  C   UNL     1      -3.516   2.492  -4.656  0.00  0.00    +0.000 A 
ATOM     22  C   UNL     1      -3.460   1.186  -4.207  0.00  0.00    +0.000 A 
ATOM     23  C   UNL     1      -2.902   0.902  -2.975  0.00  0.00    +0.002 A 
ATOM     24  C   UNL     1      -2.400   1.924  -2.191  0.00  0.00    -0.064 A 
ATOM     25  C   UNL     1      -2.461   3.231  -2.638  0.00  0.00    +0.002 A 
ATOM     26  C   UNL     1      -3.016   3.514  -3.872  0.00  0.00    +0.000 A 
ENDBRANCH  20  24
ENDBRANCH  18  20
BRANCH  18  27
ATOM     27  C   UNL     1      -0.237   0.065   0.174  0.00  0.00    -0.036 C 
BRANCH  27  28
ATOM     28  C   UNL     1      -1.203  -1.083   0.314  0.00  0.00    -0.064 A 
ATOM     29  C   UNL     1      -2.378  -0.916   1.022  0.00  0.00    +0.002 A 
ATOM     30  C   UNL     1      -3.266  -1.968   1.147  0.00  0.00    +0.000 A 
ATOM     31  C   UNL     1      -2.974  -3.191   0.571  0.00  0.00    +0.000 A 
ATOM     32  C   UNL     1      -1.797  -3.360  -0.133  0.00  0.00    +0.000 A 
ATOM     33  C   UNL     1      -0.911  -2.306  -0.261  0.00  0.00    +0.002 A 
ENDBRANCH  27  28
ENDBRANCH  18  27
ENDBRANCH   1  18
TORSDOF 6
