REMARK  Name = ZINC28157495
REMARK  9 active torsions:
REMARK  status: ('A' for Active; 'I' for Inactive)
REMARK    1  A    between atoms: C_1  and  C_2
REMARK    2  A    between atoms: C_2  and  C_3
REMARK    3  A    between atoms: C_6  and  C_9
REMARK    4  A    between atoms: C_12  and  C_34
REMARK    5  A    between atoms: C_19  and  C_22
REMARK    6  A    between atoms: C_22  and  C_23
REMARK    7  A    between atoms: N_25  and  C_26
REMARK    8  A    between atoms: C_29  and  C_33
REMARK    9  A    between atoms: C_31  and  C_32
REMARK                            x       y       z     vdW  Elec       q    Type
REMARK                         _______ _______ _______ _____ _____    ______ ____
ROOT
ATOM      1  C   UNL     1      -2.131  -1.479   5.213  0.00  0.00    +0.136 C 
ATOM      2  C   UNL     1      -3.333  -2.332   5.663  0.00  0.00    +0.087 C 
ATOM      3  C   UNL     1      -4.343  -2.154   4.551  0.00  0.00    +0.069 C 
ATOM      4  N   UNL     1      -3.857  -1.372   3.650  0.00  0.00    -0.182 NA
ATOM      5  N   UNL     1      -2.569  -0.918   3.924  0.00  0.00    -0.195 N 
ATOM      6  C   UNL     1      -1.834  -0.085   3.131  0.00  0.00    +0.170 C 
ATOM      7  N   UNL     1      -0.611   0.382   3.343  0.00  0.00    -0.157 NA
ATOM      8  C   UNL     1       0.025   1.179   2.528  0.00  0.00    +0.252 C 
ATOM      9  O   UNL     1       1.147   1.585   2.760  0.00  0.00    -0.272 OA
ATOM     10  C   UNL     1      -0.738   1.565   1.267  0.00  0.00    +0.150 C 
ATOM     11  S   UNL     1      -2.295   0.634   1.560  0.00  0.00    -0.078 S 
ENDROOT
BRANCH   3  12
ATOM     12  C   UNL     1      -5.679  -2.777   4.507  0.00  0.00    -0.002 A 
ATOM     13  C   UNL     1      -6.098  -3.611   5.546  0.00  0.00    +0.012 A 
ATOM     14  C   UNL     1      -7.350  -4.187   5.502  0.00  0.00    +0.039 A 
ATOM     15  C   UNL     1      -8.188  -3.947   4.425  0.00  0.00    +0.123 A 
ATOM     16  C   UNL     1      -7.776  -3.124   3.389  0.00  0.00    +0.039 A 
ATOM     17  C   UNL     1      -6.528  -2.538   3.424  0.00  0.00    +0.012 A 
ATOM     18  F   UNL     1      -9.412  -4.518   4.384  0.00  0.00    -0.205 F 
ENDBRANCH   3  12
BRANCH   1  22
ATOM     19  C   UNL     1      -1.363   1.642   8.027  0.00  0.00    -0.048 A 
ATOM     20  C   UNL     1      -0.544   0.530   7.987  0.00  0.00    +0.004 A 
ATOM     21  C   UNL     1      -0.792  -0.480   7.077  0.00  0.00    +0.006 A 
ATOM     22  C   UNL     1      -1.860  -0.378   6.206  0.00  0.00    -0.025 A 
ATOM     23  C   UNL     1      -2.677   0.737   6.241  0.00  0.00    +0.006 A 
ATOM     24  C   UNL     1      -2.432   1.745   7.155  0.00  0.00    +0.004 A 
BRANCH  19  26
ATOM     25  C   UNL     1      -0.152   3.775   8.392  0.00  0.00    +0.009 C 
ATOM     26  C   UNL     1      -1.093   2.744   9.019  0.00  0.00    +0.032 C 
ENDBRANCH  19  26
ENDBRANCH   1  22
BRANCH  10  27
ATOM     27  C   UNL     1      -0.021   1.073   0.008  0.00  0.00    +0.120 C 
BRANCH  27  28
ATOM     28  C   UNL     1      -0.743   1.582  -1.213  0.00  0.00    +0.219 C 
ATOM     29  O   UNL     1      -1.734   2.271  -1.088  0.00  0.00    -0.275 OA
ATOM     30  N   UNL     1      -0.288   1.272  -2.443  0.00  0.00    -0.285 N 
ATOM     31  H   UNL     1       0.659   0.725  -2.558  0.00  0.00    +0.155 HD
BRANCH  30  32
ATOM     32  C   UNL     1      -1.022   1.646  -3.575  0.00  0.00    +0.036 A 
ATOM     33  C   UNL     1      -2.392   1.853  -3.479  0.00  0.00    +0.024 A 
ATOM     34  C   UNL     1      -3.112   2.222  -4.598  0.00  0.00    +0.005 A 
ATOM     35  C   UNL     1      -2.471   2.386  -5.812  0.00  0.00    -0.050 A 
ATOM     36  C   UNL     1      -1.107   2.182  -5.910  0.00  0.00    +0.008 A 
ATOM     37  C   UNL     1      -0.380   1.818  -4.794  0.00  0.00    -0.029 A 
ATOM     38  C   UNL     1       1.108   1.602  -4.900  0.00  0.00    +0.045 C 
ATOM     39  C   UNL     1      -3.261   2.789  -7.031  0.00  0.00    +0.044 C 
ENDBRANCH  30  32
ENDBRANCH  27  28
ENDBRANCH  10  27
TORSDOF 6
