REMARK  Name = ZINC09253706
REMARK  9 active torsions:
REMARK  status: ('A' for Active; 'I' for Inactive)
REMARK    1  A    between atoms: C_1  and  C_2
REMARK    2  A    between atoms: C_2  and  C_4
REMARK    3  A    between atoms: C_2  and  N_46
REMARK    4  A    between atoms: C_11  and  C_12
REMARK    5  A    between atoms: C_11  and  N_46
REMARK    6  A    between atoms: N_14  and  C_15
REMARK    7  A    between atoms: C_16  and  C_23
REMARK    8  A    between atoms: C_23  and  O_25
REMARK    9  A    between atoms: O_25  and  C_26
REMARK                            x       y       z     vdW  Elec       q    Type
REMARK                         _______ _______ _______ _____ _____    ______ ____
ROOT
ATOM      1  C   UNL     1      -0.016   1.344   0.009  0.00  0.00    +0.201 C 
ATOM      2  O   UNL     1       1.026   1.964   0.003  0.00  0.00    -0.278 OA
ATOM      3  N   UNL     1       0.002  -0.004   0.002  0.00  0.00    -0.281 N 
ATOM      4  H   UNL     1      -0.831  -0.500   0.007  0.00  0.00    +0.155 HD
ENDROOT
BRANCH   3   5
ATOM      5  C   UNL     1       1.212  -0.681  -0.013  0.00  0.00    +0.086 A 
ATOM      6  C   UNL     1       1.433  -2.048  -0.017  0.00  0.00    +0.091 A 
ATOM      7  C   UNL     1       2.822  -2.509  -0.038  0.00  0.00    -0.021 A 
ATOM      8  C   UNL     1       3.747  -1.533  -0.042  0.00  0.00    -0.004 A 
ATOM      9  S   UNL     1       2.812  -0.022  -0.024  0.00  0.00    -0.077 S 
ATOM     10  C   UNL     1       5.147  -2.083  -0.061  0.00  0.00    +0.043 C 
ATOM     11  C   UNL     1       4.982  -3.553  -0.506  0.00  0.00    +0.010 C 
ATOM     12  C   UNL     1       3.541  -3.858  -0.051  0.00  0.00    +0.037 C 
BRANCH   6  13
ATOM     13  C   UNL     1       0.319  -2.998  -0.005  0.00  0.00    +0.342 C 
ATOM     14  O   UNL     1      -0.156  -3.392  -1.053  0.00  0.00    -0.245 OA
BRANCH  13  15
ATOM     15  O   UNL     1      -0.181  -3.436   1.169  0.00  0.00    -0.464 OA
ATOM     16  C   UNL     1      -1.286  -4.376   1.105  0.00  0.00    +0.280 C 
ENDBRANCH  13  15
ENDBRANCH   6  13
ENDBRANCH   3   5
BRANCH   1  17
ATOM     17  C   UNL     1      -1.331   2.079   0.020  0.00  0.00    +0.016 C 
BRANCH  17  18
ATOM     18  N   UNL     1      -1.073   3.531   0.026  0.00  0.00    +0.389 N 
ATOM     19  H   UNL     1      -0.531   3.775   0.864  0.00  0.00    -0.084 HD
ATOM     20  H   UNL     1      -0.538   3.784  -0.813  0.00  0.00    -0.084 HD
BRANCH  18  22
ATOM     21  C   UNL     1      -2.841   4.423   1.477  0.00  0.00    -0.009 C 
ATOM     22  C   UNL     1      -2.345   4.278   0.036  0.00  0.00    -0.042 C 
BRANCH  22  23
ATOM     23  C   UNL     1      -2.121   5.645  -0.558  0.00  0.00    -0.048 A 
ATOM     24  C   UNL     1      -0.845   6.171  -0.619  0.00  0.00    +0.003 A 
ATOM     25  C   UNL     1      -0.638   7.423  -1.167  0.00  0.00    +0.000 A 
ATOM     26  C   UNL     1      -1.710   8.153  -1.647  0.00  0.00    +0.001 A 
ATOM     27  C   UNL     1      -2.988   7.630  -1.582  0.00  0.00    +0.015 A 
ATOM     28  C   UNL     1      -3.194   6.375  -1.037  0.00  0.00    +0.019 A 
ATOM     29 BR   UNL     1      -4.941   5.658  -0.947  0.00  0.00    -0.050 Br
ENDBRANCH  22  23
ENDBRANCH  18  22
ENDBRANCH  17  18
ENDBRANCH   1  17
TORSDOF 7
