REMARK  Name = ZINC14470740
REMARK  4 active torsions:
REMARK  status: ('A' for Active; 'I' for Inactive)
REMARK    1  A    between atoms: C_4  and  N_32
REMARK    2  A    between atoms: C_6  and  C_7
REMARK    3  A    between atoms: C_18  and  S_23
REMARK    4  A    between atoms: S_23  and  N_26
REMARK                            x       y       z     vdW  Elec       q    Type
REMARK                         _______ _______ _______ _____ _____    ______ ____
ROOT
ATOM      1  C   UNL     1      -5.569   6.073  -6.154  0.00  0.00    +0.105 C 
ATOM      2  C   UNL     1      -5.884   6.556  -4.736  0.00  0.00    +0.029 C 
ATOM      3  C   UNL     1      -6.224   8.072  -4.828  0.00  0.00    +0.033 C 
ATOM      4  C   UNL     1      -4.861   8.738  -4.845  0.00  0.00    -0.030 C 
ATOM      5  C   UNL     1      -3.955   7.941  -4.332  0.00  0.00    -0.023 C 
ATOM      6  C   UNL     1      -4.586   6.636  -3.908  0.00  0.00    +0.049 C 
ATOM      7  C   UNL     1      -3.667   5.481  -4.150  0.00  0.00    -0.018 A 
ATOM      8  C   UNL     1      -2.591   5.295  -3.293  0.00  0.00    +0.034 A 
ATOM      9  C   UNL     1      -1.720   4.241  -3.480  0.00  0.00    +0.106 A 
ATOM     10  C   UNL     1      -1.907   3.358  -4.528  0.00  0.00    +0.030 A 
ATOM     11  C   UNL     1      -2.978   3.529  -5.382  0.00  0.00    +0.025 A 
ATOM     12  C   UNL     1      -3.854   4.591  -5.196  0.00  0.00    +0.031 A 
ATOM     13  N   UNL     1      -4.928   4.756  -6.077  0.00  0.00    -0.336 N 
ATOM     14  H   UNL     1      -5.242   4.018  -6.622  0.00  0.00    +0.147 HD
ENDROOT
BRANCH   1  20
ATOM     15  C   UNL     1      -3.283   7.011  -6.550  0.00  0.00    +0.007 A 
ATOM     16  C   UNL     1      -2.427   7.906  -7.164  0.00  0.00    +0.022 A 
ATOM     17  C   UNL     1      -2.926   8.840  -8.055  0.00  0.00    +0.071 A 
ATOM     18  C   UNL     1      -4.282   8.877  -8.329  0.00  0.00    +0.145 A 
ATOM     19  C   UNL     1      -5.135   7.978  -7.719  0.00  0.00    +0.039 A 
ATOM     20  C   UNL     1      -4.637   7.049  -6.825  0.00  0.00    -0.025 A 
ATOM     21 CL   UNL     1      -1.852   9.964  -8.827  0.00  0.00    -0.081 Cl
BRANCH  18  22
ATOM     22  N   UNL     1      -4.816   9.876  -9.282  0.00  0.00    +0.058 N 
ATOM     23  O   UNL     1      -6.010   9.909  -9.524  0.00  0.00    -0.126 OA
ATOM     24  O   UNL     1      -4.063  10.665  -9.824  0.00  0.00    -0.126 OA
ENDBRANCH  18  22
ENDBRANCH   1  20
BRANCH   9  25
ATOM     25  S   UNL     1      -0.359   4.023  -2.382  0.00  0.00    +0.061 S 
ATOM     26  O   UNL     1      -0.087   5.297  -1.814  0.00  0.00    -0.153 OA
ATOM     27  O   UNL     1       0.622   3.281  -3.093  0.00  0.00    -0.153 OA
BRANCH  25  28
ATOM     28  N   UNL     1      -0.879   3.055  -1.143  0.00  0.00    -0.177 NA
ATOM     29  C   UNL     1      -0.755   1.594  -1.232  0.00  0.00    +0.109 C 
ATOM     30  C   UNL     1      -0.013   1.086   0.008  0.00  0.00    +0.017 C 
ATOM     31  C   UNL     1      -0.730   1.580   1.266  0.00  0.00    +0.003 C 
ATOM     32  C   UNL     1      -0.724   3.110   1.292  0.00  0.00    +0.017 C 
ATOM     33  C   UNL     1      -1.474   3.641   0.066  0.00  0.00    +0.109 C 
ENDBRANCH  25  28
ENDBRANCH   9  25
TORSDOF 4
