REMARK  Name = ZINC17130779
REMARK  7 active torsions:
REMARK  status: ('A' for Active; 'I' for Inactive)
REMARK    1  A    between atoms: C_1  and  C_2
REMARK    2  A    between atoms: C_2  and  O_3
REMARK    3  A    between atoms: O_3  and  C_4
REMARK    4  A    between atoms: C_4  and  C_6
REMARK    5  A    between atoms: C_10  and  N_11
REMARK    6  A    between atoms: C_13  and  C_22
REMARK    7  A    between atoms: N_24  and  C_25
REMARK                            x       y       z     vdW  Elec       q    Type
REMARK                         _______ _______ _______ _____ _____    ______ ____
ROOT
ATOM      1  N   UNL     1       4.206  -1.392   1.114  0.00  0.00    -0.319 N 
ATOM      2  C   UNL     1       4.986  -2.375   1.525  0.00  0.00    +0.212 A 
ATOM      3  C   UNL     1       5.791  -3.160   0.571  0.00  0.00    +0.098 A 
ATOM      4  C   UNL     1       6.940  -3.769   1.055  0.00  0.00    +0.030 A 
ATOM      5  C   UNL     1       7.245  -3.623   2.434  0.00  0.00    +0.018 A 
ATOM      6  C   UNL     1       8.485  -4.042   2.936  0.00  0.00    +0.011 A 
ATOM      7  C   UNL     1       8.779  -3.857   4.257  0.00  0.00    +0.001 A 
ATOM      8  C   UNL     1       7.858  -3.265   5.109  0.00  0.00    +0.004 A 
ATOM      9  C   UNL     1       6.624  -2.863   4.640  0.00  0.00    +0.047 A 
ATOM     10  C   UNL     1       6.300  -3.048   3.304  0.00  0.00    +0.137 A 
ATOM     11  O   UNL     1       5.079  -2.693   2.841  0.00  0.00    -0.439 OA
ATOM     12  H   UNL     1       4.239  -1.101   0.190  0.00  0.00    +0.169 HD
ENDROOT
BRANCH   1  17
ATOM     13  C   UNL     1       2.465   0.256   1.748  0.00  0.00    +0.093 A 
ATOM     14  C   UNL     1       1.663   0.712   2.870  0.00  0.00    -0.021 A 
ATOM     15  C   UNL     1       1.864   0.080   4.047  0.00  0.00    -0.004 A 
ATOM     16  S   UNL     1       3.113  -1.131   3.712  0.00  0.00    -0.075 S 
ATOM     17  C   UNL     1       3.365  -0.793   1.979  0.00  0.00    +0.095 A 
ATOM     18  C   UNL     1       1.177   0.352   5.351  0.00  0.00    +0.043 C 
ATOM     19  C   UNL     1       0.467   1.709   5.252  0.00  0.00    +0.005 C 
ATOM     20  C   UNL     1      -0.323   1.755   3.940  0.00  0.00    +0.005 C 
ATOM     21  C   UNL     1       0.640   1.840   2.756  0.00  0.00    +0.037 C 
BRANCH  13  22
ATOM     22  C   UNL     1       2.337   0.846   0.464  0.00  0.00    +0.342 C 
ATOM     23  O   UNL     1       1.533   0.401  -0.333  0.00  0.00    -0.245 OA
BRANCH  22  24
ATOM     24  O   UNL     1       3.108   1.901   0.127  0.00  0.00    -0.461 OA
BRANCH  24  26
ATOM     25  C   UNL     1       3.880   3.626  -1.380  0.00  0.00    +0.048 C 
ATOM     26  C   UNL     1       2.926   2.446  -1.181  0.00  0.00    +0.229 C 
ENDBRANCH  24  26
ENDBRANCH  22  24
ENDBRANCH  13  22
ENDBRANCH   1  17
BRANCH   3  27
ATOM     27  C   UNL     1       5.390  -3.292  -0.840  0.00  0.00    +0.253 C 
ATOM     28  O   UNL     1       6.134  -3.833  -1.636  0.00  0.00    -0.270 OA
ATOM     29  N   UNL     1       4.198  -2.815  -1.250  0.00  0.00    -0.281 N 
ATOM     30  H   UNL     1       3.629  -2.333  -0.629  0.00  0.00    +0.155 HD
BRANCH  29  31
ATOM     31  C   UNL     1       3.781  -3.014  -2.570  0.00  0.00    +0.034 A 
ATOM     32  C   UNL     1       4.713  -3.025  -3.600  0.00  0.00    +0.023 A 
ATOM     33  C   UNL     1       4.298  -3.223  -4.902  0.00  0.00    +0.002 A 
ATOM     34  C   UNL     1       2.957  -3.410  -5.181  0.00  0.00    +0.000 A 
ATOM     35  C   UNL     1       2.026  -3.399  -4.158  0.00  0.00    +0.002 A 
ATOM     36  C   UNL     1       2.435  -3.208  -2.853  0.00  0.00    +0.023 A 
ENDBRANCH  29  31
ENDBRANCH   3  27
TORSDOF 6
