REMARK  Name = ZINC40983895
REMARK  13 active torsions:
REMARK  status: ('A' for Active; 'I' for Inactive)
REMARK    1  A    between atoms: C_1  and  C_2
REMARK    2  A    between atoms: C_2  and  O_3
REMARK    3  A    between atoms: O_3  and  C_4
REMARK    4  A    between atoms: C_4  and  C_6
REMARK    5  A    between atoms: C_13  and  C_15
REMARK    6  A    between atoms: N_18  and  C_21
REMARK    7  A    between atoms: C_21  and  C_22
REMARK    8  A    between atoms: C_23  and  C_37
REMARK    9  A    between atoms: C_25  and  C_27
REMARK   10  A    between atoms: C_30  and  O_33
REMARK   11  A    between atoms: O_33  and  C_34
REMARK   12  A    between atoms: C_34  and  C_35
REMARK   13  A    between atoms: C_34  and  C_36
REMARK                            x       y       z     vdW  Elec       q    Type
REMARK                         _______ _______ _______ _____ _____    ______ ____
ROOT
ATOM      1  C   UNL     1       2.706  -5.612  -5.861  0.00  0.00    +0.072 C 
ATOM      2  C   UNL     1       3.921  -6.411  -5.380  0.00  0.00    -0.006 C 
ATOM      3  C   UNL     1       4.644  -7.007  -6.589  0.00  0.00    -0.078 C 
ATOM      4  N   UNL     1       3.732  -7.894  -7.321  0.00  0.00    +0.383 N 
ATOM      5  C   UNL     1       2.601  -7.121  -7.847  0.00  0.00    -0.078 C 
ATOM      6  C   UNL     1       1.799  -6.529  -6.686  0.00  0.00    -0.006 C 
ATOM      7  H   UNL     1       3.389  -8.610  -6.698  0.00  0.00    -0.081 HD
ENDROOT
BRANCH   1  14
ATOM      8  C   UNL     1       1.521  -1.933  -3.144  0.00  0.00    +0.115 C 
ATOM      9  C   UNL     1       2.921  -1.337  -3.308  0.00  0.00    +0.018 C 
ATOM     10  C   UNL     1       3.613  -1.980  -4.512  0.00  0.00    +0.020 C 
ATOM     11  C   UNL     1       3.753  -3.486  -4.271  0.00  0.00    +0.108 C 
ATOM     12  N   UNL     1       2.427  -4.043  -3.969  0.00  0.00    -0.300 N 
ATOM     13  C   UNL     1       1.637  -3.438  -2.888  0.00  0.00    +0.122 C 
ATOM     14  C   UNL     1       1.945  -5.087  -4.671  0.00  0.00    +0.219 C 
ATOM     15  O   UNL     1       0.898  -5.605  -4.345  0.00  0.00    -0.275 OA
BRANCH   8  16
ATOM     16  C   UNL     1       0.828  -1.276  -1.978  0.00  0.00    +0.312 C 
ATOM     17  O   UNL     1       0.463  -1.942  -1.039  0.00  0.00    -0.250 OA
BRANCH  16  18
ATOM     18  O   UNL     1       0.617   0.050  -1.983  0.00  0.00    -0.465 OA
BRANCH  18  20
ATOM     19  C   UNL     1      -0.196   2.117  -1.031  0.00  0.00    +0.048 C 
ATOM     20  C   UNL     1      -0.046   0.605  -0.846  0.00  0.00    +0.229 C 
ENDBRANCH  18  20
ENDBRANCH  16  18
ENDBRANCH   8  16
ENDBRANCH   1  14
BRANCH   4  21
ATOM     21  C   UNL     1       4.453  -8.524  -8.435  0.00  0.00    -0.019 C 
BRANCH  21  22
ATOM     22  C   UNL     1       3.555  -9.526  -9.113  0.00  0.00    +0.066 A 
ATOM     23  C   UNL     1       3.438 -10.828  -8.794  0.00  0.00    +0.124 A 
ATOM     24  O   UNL     1       2.535 -11.367  -9.637  0.00  0.00    -0.440 OA
ATOM     25  C   UNL     1       2.110 -10.392 -10.459  0.00  0.00    +0.228 A 
ATOM     26  N   UNL     1       2.724  -9.277 -10.137  0.00  0.00    -0.216 NA
ATOM     27  C   UNL     1       4.180 -11.549  -7.698  0.00  0.00    +0.088 C 
BRANCH  25  28
ATOM     28  C   UNL     1       1.116 -10.548 -11.541  0.00  0.00    +0.037 A 
ATOM     29  C   UNL     1       0.764  -9.452 -12.332  0.00  0.00    +0.017 A 
ATOM     30  C   UNL     1      -0.164  -9.601 -13.340  0.00  0.00    +0.046 A 
ATOM     31  C   UNL     1      -0.749 -10.840 -13.569  0.00  0.00    +0.121 A 
ATOM     32  C   UNL     1      -0.402 -11.932 -12.785  0.00  0.00    +0.046 A 
ATOM     33  C   UNL     1       0.529 -11.792 -11.778  0.00  0.00    +0.017 A 
BRANCH  31  34
ATOM     34  O   UNL     1      -1.663 -10.983 -14.563  0.00  0.00    -0.489 OA
BRANCH  34  35
ATOM     35  C   UNL     1      -1.944  -9.829 -15.358  0.00  0.00    +0.167 C 
ATOM     36  C   UNL     1      -0.909  -9.719 -16.480  0.00  0.00    +0.051 C 
ATOM     37  C   UNL     1      -3.342  -9.955 -15.965  0.00  0.00    +0.051 C 
ENDBRANCH  34  35
ENDBRANCH  31  34
ENDBRANCH  25  28
ENDBRANCH  21  22
ENDBRANCH   4  21
TORSDOF 9
