REMARK  Name = ZINC37129223
REMARK  4 active torsions:
REMARK  status: ('A' for Active; 'I' for Inactive)
REMARK    1  A    between atoms: C_1  and  C_2
REMARK    2  A    between atoms: C_2  and  C_4
REMARK    3  A    between atoms: C_2  and  N_9
REMARK    4  A    between atoms: N_9  and  C_10
REMARK                            x       y       z     vdW  Elec       q    Type
REMARK                         _______ _______ _______ _____ _____    ______ ____
ROOT
ATOM      1  C   UNL     1       0.214  -0.735   2.360  0.00  0.00    +0.075 A 
ATOM      2  C   UNL     1       0.915  -1.368   3.341  0.00  0.00    +0.065 A 
ATOM      3  C   UNL     1       0.347  -1.630   4.587  0.00  0.00    +0.044 A 
ATOM      4  C   UNL     1      -0.926  -1.267   4.876  0.00  0.00    +0.071 A 
ATOM      5  C   UNL     1      -1.721  -0.602   3.901  0.00  0.00    +0.120 A 
ATOM      6  C   UNL     1      -1.130  -0.320   2.599  0.00  0.00    +0.123 A 
ATOM      7  N   UNL     1      -1.963   0.310   1.770  0.00  0.00    -0.189 NA
ATOM      8  S   UNL     1      -3.329   0.509   2.595  0.00  0.00    +0.117 S 
ATOM      9  N   UNL     1      -2.980  -0.175   4.009  0.00  0.00    -0.189 NA
ATOM     10 CL   UNL     1      -1.590  -1.616   6.441  0.00  0.00    -0.081 Cl
ATOM     11 CL   UNL     1       2.551  -1.859   3.033  0.00  0.00    -0.082 Cl
ENDROOT
BRANCH   1  12
ATOM     12  N   UNL     1       0.812  -0.488   1.123  0.00  0.00    -0.331 N 
ATOM     13  H   UNL     1       1.775  -0.551   1.029  0.00  0.00    +0.147 HD
BRANCH  12  15
ATOM     14  C   UNL     1      -0.083   1.390  -0.163  0.00  0.00    +0.036 C 
ATOM     15  C   UNL     1      -0.016  -0.133  -0.032  0.00  0.00    +0.133 C 
BRANCH  15  16
ATOM     16  C   UNL     1       0.590  -0.717  -1.282  0.00  0.00    +0.125 A 
ATOM     17  C   UNL     1      -0.092  -1.273  -2.301  0.00  0.00    +0.046 A 
ATOM     18  C   UNL     1       0.865  -1.686  -3.256  0.00  0.00    +0.041 A 
ATOM     19  C   UNL     1       2.074  -1.359  -2.764  0.00  0.00    +0.195 A 
ATOM     20  O   UNL     1       1.900  -0.767  -1.571  0.00  0.00    -0.466 OA
ENDBRANCH  15  16
ENDBRANCH  12  15
ENDBRANCH   1  12
TORSDOF 3
