REMARK  Name = ZINC19985137
REMARK  13 active torsions:
REMARK  status: ('A' for Active; 'I' for Inactive)
REMARK    1  A    between atoms: C_1  and  C_2
REMARK    2  A    between atoms: C_2  and  C_4
REMARK    3  A    between atoms: C_2  and  O_28
REMARK    4  A    between atoms: C_7  and  S_12
REMARK    5  A    between atoms: N_8  and  C_9
REMARK    6  A    between atoms: C_9  and  C_10
REMARK    7  A    between atoms: C_9  and  C_11
REMARK    8  A    between atoms: S_12  and  C_13
REMARK    9  A    between atoms: C_13  and  C_15
REMARK   10  A    between atoms: C_13  and  C_16
REMARK   11  A    between atoms: N_18  and  C_19
REMARK   12  A    between atoms: C_22  and  N_25
REMARK   13  A    between atoms: O_28  and  C_29
REMARK                            x       y       z     vdW  Elec       q    Type
REMARK                         _______ _______ _______ _____ _____    ______ ____
ROOT
ATOM      1  C   UNL     1       0.952  -0.887   1.624  0.00  0.00    +0.175 A 
ATOM      2  N   UNL     1       2.174  -0.438   1.681  0.00  0.00    -0.130 NA
ATOM      3  N   UNL     1       2.706  -0.750   2.809  0.00  0.00    -0.122 NA
ATOM      4  C   UNL     1       1.845  -1.420   3.538  0.00  0.00    +0.193 A 
ATOM      5  N   UNL     1       0.697  -1.524   2.807  0.00  0.00    -0.300 N 
ENDROOT
BRANCH   5   6
ATOM      6  C   UNL     1      -0.550  -2.183   3.205  0.00  0.00    +0.085 C 
ATOM      7  C   UNL     1      -0.276  -3.661   3.489  0.00  0.00    +0.030 C 
ATOM      8  C   UNL     1      -1.100  -1.515   4.466  0.00  0.00    +0.030 C 
ENDBRANCH   5   6
BRANCH   1  10
ATOM      9  C   UNL     1      -0.525   0.711   0.435  0.00  0.00    +0.060 C 
ATOM     10  C   UNL     1      -0.004  -0.727   0.470  0.00  0.00    +0.238 C 
BRANCH  10  11
ATOM     11  O   UNL     1       0.673  -1.019  -0.754  0.00  0.00    -0.479 OA
BRANCH  11  12
ATOM     12  C   UNL     1      -0.093  -1.427  -1.800  0.00  0.00    +0.157 A 
ATOM     13  C   UNL     1      -1.475  -1.435  -1.689  0.00  0.00    +0.048 A 
ATOM     14  C   UNL     1      -2.251  -1.850  -2.754  0.00  0.00    +0.004 A 
ATOM     15  C   UNL     1      -1.651  -2.259  -3.931  0.00  0.00    +0.003 A 
ATOM     16  C   UNL     1      -0.274  -2.253  -4.046  0.00  0.00    +0.042 A 
ATOM     17  C   UNL     1       0.508  -1.832  -2.986  0.00  0.00    +0.165 A 
ATOM     18  F   UNL     1       1.854  -1.821  -3.100  0.00  0.00    -0.202 F 
ENDBRANCH  11  12
ENDBRANCH  10  11
ENDBRANCH   1  10
BRANCH   4  19
ATOM     19  S   UNL     1       2.116  -2.059   5.158  0.00  0.00    -0.074 S 
BRANCH  19  20
ATOM     20  C   UNL     1       3.821  -1.572   5.542  0.00  0.00    +0.137 C 
ATOM     21  C   UNL     1       3.910  -0.047   5.619  0.00  0.00    +0.029 C 
BRANCH  20  22
ATOM     22  C   UNL     1       4.227  -2.167   6.865  0.00  0.00    +0.230 C 
ATOM     23  O   UNL     1       3.380  -2.532   7.652  0.00  0.00    -0.274 OA
ATOM     24  N   UNL     1       5.533  -2.293   7.175  0.00  0.00    -0.285 N 
ATOM     25  H   UNL     1       6.209  -1.927   6.584  0.00  0.00    +0.155 HD
BRANCH  24  26
ATOM     26  C   UNL     1       5.913  -2.953   8.349  0.00  0.00    +0.034 A 
ATOM     27  C   UNL     1       7.034  -2.531   9.052  0.00  0.00    +0.025 A 
ATOM     28  C   UNL     1       7.407  -3.184  10.211  0.00  0.00    +0.034 A 
ATOM     29  C   UNL     1       6.665  -4.257  10.671  0.00  0.00    +0.126 A 
ATOM     30  C   UNL     1       5.548  -4.679   9.973  0.00  0.00    +0.034 A 
ATOM     31  C   UNL     1       5.167  -4.026   8.817  0.00  0.00    +0.025 A 
BRANCH  29  32
ATOM     32  N   UNL     1       7.067  -4.954  11.913  0.00  0.00    +0.056 N 
ATOM     33  O   UNL     1       8.043  -4.587  12.524  0.00  0.00    -0.126 OA
ATOM     34  O   UNL     1       6.419  -5.892  12.316  0.00  0.00    -0.126 OA
ENDBRANCH  29  32
ENDBRANCH  24  26
ENDBRANCH  20  22
ENDBRANCH  19  20
ENDBRANCH   4  19
TORSDOF 9
