REMARK  Name = ZINC15771607
REMARK  8 active torsions:
REMARK  status: ('A' for Active; 'I' for Inactive)
REMARK    1  A    between atoms: C_1  and  C_2
REMARK    2  A    between atoms: C_5  and  C_8
REMARK    3  A    between atoms: C_8  and  C_10
REMARK    4  A    between atoms: C_8  and  O_40
REMARK    5  A    between atoms: C_10  and  C_11
REMARK    6  A    between atoms: C_10  and  N_18
REMARK    7  A    between atoms: C_10  and  N_31
REMARK    8  A    between atoms: C_11  and  C_12
REMARK                            x       y       z     vdW  Elec       q    Type
REMARK                         _______ _______ _______ _____ _____    ______ ____
ROOT
ATOM      1  C   UNL     1      -0.297  -0.259  -1.348  0.00  0.00    +0.175 C 
ENDROOT
BRANCH   1   2
ATOM      2  N   UNL     1      -1.364   0.704  -1.062  0.00  0.00    -0.312 N 
ATOM      3  C   UNL     1      -1.658   1.812  -1.836  0.00  0.00    +0.052 A 
ATOM      4  C   UNL     1      -1.105   2.306  -3.014  0.00  0.00    +0.026 A 
ATOM      5  C   UNL     1      -1.611   3.453  -3.586  0.00  0.00    +0.002 A 
ATOM      6  C   UNL     1      -2.675   4.122  -3.001  0.00  0.00    +0.001 A 
ATOM      7  C   UNL     1      -3.240   3.646  -1.837  0.00  0.00    +0.010 A 
ATOM      8  C   UNL     1      -2.738   2.488  -1.248  0.00  0.00    +0.008 A 
ATOM      9  C   UNL     1      -3.099   1.728  -0.038  0.00  0.00    +0.008 A 
ATOM     10  C   UNL     1      -2.217   0.638   0.026  0.00  0.00    +0.052 A 
ATOM     11  C   UNL     1      -2.325  -0.264   1.079  0.00  0.00    +0.026 A 
ATOM     12  C   UNL     1      -3.289  -0.083   2.047  0.00  0.00    +0.002 A 
ATOM     13  C   UNL     1      -4.160   0.994   1.983  0.00  0.00    +0.001 A 
ATOM     14  C   UNL     1      -4.069   1.899   0.947  0.00  0.00    +0.010 A 
ENDBRANCH   1   2
BRANCH   1  15
ATOM     15  N   UNL     1      -0.529  -1.486  -0.583  0.00  0.00    -0.215 N 
ATOM     16  C   UNL     1       0.364  -2.119   0.247  0.00  0.00    +0.092 A 
ATOM     17  C   UNL     1       1.676  -1.862   0.631  0.00  0.00    +0.030 A 
ATOM     18  C   UNL     1       2.308  -2.707   1.499  0.00  0.00    +0.002 A 
ATOM     19  C   UNL     1       1.652  -3.824   2.003  0.00  0.00    +0.002 A 
ATOM     20  C   UNL     1       0.366  -4.098   1.641  0.00  0.00    +0.032 A 
ATOM     21  C   UNL     1      -0.305  -3.247   0.753  0.00  0.00    +0.113 A 
ATOM     22  N   UNL     1      -1.545  -3.257   0.226  0.00  0.00    -0.129 NA
ATOM     23  N   UNL     1      -1.709  -2.244  -0.550  0.00  0.00    -0.062 NA
ENDBRANCH   1  15
BRANCH   1  24
ATOM     24  C   UNL     1       1.052   0.343  -0.951  0.00  0.00    +0.193 C 
BRANCH  24  29
ATOM     25  C   UNL     1       2.070   5.060  -4.129  0.00  0.00    +0.044 C 
ATOM     26  C   UNL     1       1.805   3.830  -3.300  0.00  0.00    -0.050 A 
ATOM     27  C   UNL     1       2.148   2.582  -3.785  0.00  0.00    +0.004 A 
ATOM     28  C   UNL     1       1.905   1.454  -3.025  0.00  0.00    +0.006 A 
ATOM     29  C   UNL     1       1.318   1.573  -1.779  0.00  0.00    -0.015 A 
ATOM     30  C   UNL     1       0.969   2.820  -1.296  0.00  0.00    +0.006 A 
ATOM     31  C   UNL     1       1.217   3.949  -2.054  0.00  0.00    +0.004 A 
ENDBRANCH  24  29
BRANCH  24  32
ATOM     32  O   UNL     1       1.027   0.697   0.434  0.00  0.00    -0.383 OA
ATOM     33  H   UNL     1       0.299   1.286   0.675  0.00  0.00    +0.210 HD
ENDBRANCH  24  32
ENDBRANCH   1  24
BRANCH   1  34
ATOM     34  C   UNL     1      -0.291  -0.582  -2.843  0.00  0.00    +0.091 C 
BRANCH  34  35
ATOM     35  C   UNL     1      -1.582  -1.265  -3.215  0.00  0.00    -0.043 A 
ATOM     36  C   UNL     1      -1.652  -2.645  -3.240  0.00  0.00    +0.004 A 
ATOM     37  C   UNL     1      -2.838  -3.271  -3.575  0.00  0.00    +0.000 A 
ATOM     38  C   UNL     1      -3.951  -2.517  -3.897  0.00  0.00    +0.000 A 
ATOM     39  C   UNL     1      -3.879  -1.137  -3.879  0.00  0.00    +0.000 A 
ATOM     40  C   UNL     1      -2.695  -0.510  -3.537  0.00  0.00    +0.004 A 
ENDBRANCH  34  35
ENDBRANCH   1  34
TORSDOF 7
