REMARK  Name = ZINC20150636
REMARK  12 active torsions:
REMARK  status: ('A' for Active; 'I' for Inactive)
REMARK    1  A    between atoms: C_1  and  N_2
REMARK    2  A    between atoms: N_2  and  C_3
REMARK    3  A    between atoms: N_2  and  C_4
REMARK    4  A    between atoms: C_7  and  C_10
REMARK    5  A    between atoms: N_18  and  C_21
REMARK    6  A    between atoms: C_27  and  C_29
REMARK    7  A    between atoms: C_27  and  C_33
REMARK    8  A    between atoms: C_29  and  C_30
REMARK    9  A    between atoms: C_30  and  S_31
REMARK   10  A    between atoms: S_31  and  C_32
REMARK   11  A    between atoms: C_33  and  O_35
REMARK   12  A    between atoms: O_35  and  C_36
REMARK                            x       y       z     vdW  Elec       q    Type
REMARK                         _______ _______ _______ _____ _____    ______ ____
ROOT
ATOM      1  C   UNL     1       0.165  -2.658  -4.624  0.00  0.00    +0.097 C 
ATOM      2  C   UNL     1       1.484  -2.695  -5.423  0.00  0.00    +0.111 C 
ATOM      3  C   UNL     1       1.046  -2.741  -6.912  0.00  0.00    +0.120 C 
ATOM      4  C   UNL     1       1.519  -4.101  -7.373  0.00  0.00    +0.232 C 
ATOM      5  O   UNL     1       1.378  -4.550  -8.491  0.00  0.00    -0.274 OA
ATOM      6  N   UNL     1       2.118  -4.732  -6.357  0.00  0.00    -0.210 N 
ATOM      7  C   UNL     1       2.163  -4.028  -5.202  0.00  0.00    +0.232 C 
ATOM      8  O   UNL     1       2.659  -4.396  -4.159  0.00  0.00    -0.274 OA
ATOM      9  C   UNL     1      -0.496  -2.711  -6.872  0.00  0.00    +0.130 C 
ATOM     10  N   UNL     1      -0.836  -2.099  -5.568  0.00  0.00    -0.293 NA
ATOM     11  H   UNL     1      -1.774  -2.338  -5.283  0.00  0.00    +0.124 HD
ENDROOT
BRANCH   1  15
ATOM     12  C   UNL     1       0.568  -0.122  -1.207  0.00  0.00    +0.029 A 
ATOM     13  C   UNL     1       0.636  -1.502  -1.062  0.00  0.00    +0.023 A 
ATOM     14  C   UNL     1       0.505  -2.319  -2.168  0.00  0.00    +0.007 A 
ATOM     15  C   UNL     1       0.307  -1.764  -3.419  0.00  0.00    -0.030 A 
ATOM     16  C   UNL     1       0.239  -0.391  -3.567  0.00  0.00    +0.007 A 
ATOM     17  C   UNL     1       0.363   0.431  -2.464  0.00  0.00    +0.023 A 
BRANCH  12  19
ATOM     18  C   UNL     1       0.622   2.161  -0.244  0.00  0.00    +0.129 C 
ATOM     19  N   UNL     1       0.700   0.706  -0.090  0.00  0.00    -0.336 N 
ATOM     20  C   UNL     1       0.916   0.120   1.235  0.00  0.00    +0.129 C 
ENDBRANCH  12  19
ENDBRANCH   1  15
BRANCH   6  21
ATOM     21  C   UNL     1       2.664  -6.018  -6.477  0.00  0.00    +0.044 A 
ATOM     22  C   UNL     1       2.090  -7.083  -5.797  0.00  0.00    +0.024 A 
ATOM     23  C   UNL     1       2.629  -8.349  -5.918  0.00  0.00    +0.002 A 
ATOM     24  C   UNL     1       3.740  -8.555  -6.715  0.00  0.00    +0.000 A 
ATOM     25  C   UNL     1       4.313  -7.496  -7.394  0.00  0.00    +0.002 A 
ATOM     26  C   UNL     1       3.775  -6.229  -7.282  0.00  0.00    +0.024 A 
ENDBRANCH   6  21
BRANCH   9  27
ATOM     27  C   UNL     1      -1.051  -4.112  -6.926  0.00  0.00    +0.328 C 
ATOM     28  O   UNL     1      -1.367  -4.595  -7.987  0.00  0.00    -0.249 OA
BRANCH  27  29
ATOM     29  O   UNL     1      -1.193  -4.821  -5.796  0.00  0.00    -0.467 OA
ATOM     30  C   UNL     1      -1.724  -6.142  -5.921  0.00  0.00    +0.280 C 
ENDBRANCH  27  29
ENDBRANCH   9  27
BRANCH   9  31
ATOM     31  C   UNL     1      -1.044  -1.875  -8.030  0.00  0.00    +0.045 C 
BRANCH  31  32
ATOM     32  C   UNL     1      -2.563  -1.755  -7.900  0.00  0.00    +0.071 C 
BRANCH  32  33
ATOM     33  S   UNL     1      -3.212  -0.763  -9.273  0.00  0.00    -0.164 S 
ATOM     34  C   UNL     1      -5.001  -0.718  -8.975  0.00  0.00    +0.084 C 
ENDBRANCH  32  33
ENDBRANCH  31  32
ENDBRANCH   9  31
TORSDOF 8
