REMARK  Name = ZINC62825620
REMARK  8 active torsions:
REMARK  status: ('A' for Active; 'I' for Inactive)
REMARK    1  A    between atoms: C_1  and  C_2
REMARK    2  A    between atoms: C_2  and  C_3
REMARK    3  A    between atoms: C_2  and  C_4
REMARK    4  A    between atoms: C_2  and  C_5
REMARK    5  A    between atoms: C_5  and  N_6
REMARK    6  A    between atoms: N_6  and  C_7
REMARK    7  A    between atoms: N_10  and  C_11
REMARK    8  A    between atoms: C_12  and  C_19
REMARK                            x       y       z     vdW  Elec       q    Type
REMARK                         _______ _______ _______ _____ _____    ______ ____
ROOT
ATOM      1  N   UNL     1       2.527  -0.098  -1.069  0.00  0.00    -0.288 N 
ATOM      2  C   UNL     1       3.443  -1.177  -1.448  0.00  0.00    +0.133 C 
ATOM      3  C   UNL     1       2.763   1.162  -1.484  0.00  0.00    +0.306 C 
ATOM      4  O   UNL     1       2.003   2.058  -1.169  0.00  0.00    -0.252 OA
ATOM      5  N   UNL     1       3.840   1.430  -2.248  0.00  0.00    -0.268 N 
ATOM      6  H   UNL     1       4.476   0.727  -2.454  0.00  0.00    +0.156 HD
ENDROOT
BRANCH   5   7
ATOM      7  C   UNL     1       4.042   2.716  -2.741  0.00  0.00    +0.063 A 
ATOM      8  C   UNL     1       5.199   3.432  -2.393  0.00  0.00    +0.086 A 
ATOM      9  C   UNL     1       5.389   4.723  -2.896  0.00  0.00    +0.032 A 
ATOM     10  C   UNL     1       4.443   5.284  -3.726  0.00  0.00    +0.020 A 
ATOM     11  C   UNL     1       3.301   4.574  -4.067  0.00  0.00    +0.032 A 
ATOM     12  C   UNL     1       3.102   3.296  -3.583  0.00  0.00    +0.041 A 
ATOM     13 BR   UNL     1       1.544   2.337  -4.063  0.00  0.00    -0.048 Br
ATOM     14 BR   UNL     1       4.702   7.030  -4.405  0.00  0.00    -0.050 Br
BRANCH   8  15
ATOM     15  C   UNL     1       6.205   2.828  -1.505  0.00  0.00    +0.388 C 
ATOM     16  O   UNL     1       7.267   3.401  -1.304  0.00  0.00    -0.241 OA
ATOM     17  O   UNL     1       5.979   1.752  -0.968  0.00  0.00    -0.241 OA
ENDBRANCH   8  15
ENDBRANCH   5   7
BRANCH   1  18
ATOM     18  C   UNL     1       1.356  -0.389  -0.239  0.00  0.00    +0.115 C 
BRANCH  18  20
ATOM     19  C   UNL     1       2.202   1.185   1.508  0.00  0.00    +0.012 C 
ATOM     20  C   UNL     1       1.729  -0.245   1.238  0.00  0.00    -0.022 C 
ATOM     21  C   UNL     1       2.852  -1.227   1.579  0.00  0.00    +0.012 C 
ATOM     22  C   UNL     1       0.506  -0.549   2.105  0.00  0.00    +0.012 C 
ENDBRANCH  18  20
ENDBRANCH   1  18
TORSDOF 4
