REMARK  Name = ZINC09541931
REMARK  10 active torsions:
REMARK  status: ('A' for Active; 'I' for Inactive)
REMARK    1  A    between atoms: C_1  and  C_2
REMARK    2  A    between atoms: C_2  and  O_3
REMARK    3  A    between atoms: O_3  and  C_4
REMARK    4  A    between atoms: C_7  and  C_10
REMARK    5  A    between atoms: C_12  and  C_24
REMARK    6  A    between atoms: C_14  and  C_17
REMARK    7  A    between atoms: C_22  and  O_23
REMARK    8  A    between atoms: C_27  and  C_30
REMARK    9  A    between atoms: C_30  and  O_32
REMARK   10  A    between atoms: O_32  and  C_33
REMARK                            x       y       z     vdW  Elec       q    Type
REMARK                         _______ _______ _______ _____ _____    ______ ____
ROOT
ATOM      1  C   UNL     1      -2.518   3.868   0.044  0.00  0.00    +0.040 C 
ATOM      2  N   UNL     1      -2.497   5.148   0.055  0.00  0.00    -0.299 NA
ATOM      3  C   UNL     1      -3.691   5.985   0.054  0.00  0.00    +0.081 C 
ATOM      4  C   UNL     1      -4.967   3.973  -0.323  0.00  0.00    -0.028 C 
ATOM      5  C   UNL     1      -3.790   3.067   0.053  0.00  0.00    +0.044 C 
ATOM      6  N   UNL     1      -4.869   5.211   0.475  0.00  0.00    +0.401 N 
ATOM      7  H   UNL     1      -5.715   5.776   0.332  0.00  0.00    -0.081 HD
ATOM      8  H   UNL     1      -4.782   4.970   1.469  0.00  0.00    -0.081 HD
ENDROOT
BRANCH   1  12
ATOM      9  C   UNL     1       1.182   1.786   0.000  0.00  0.00    +0.121 A 
ATOM     10  C   UNL     1      -0.013   1.076   0.008  0.00  0.00    +0.046 A 
ATOM     11  C   UNL     1      -1.215   1.747   0.017  0.00  0.00    +0.013 A 
ATOM     12  C   UNL     1      -1.233   3.145   0.029  0.00  0.00    -0.004 A 
ATOM     13  C   UNL     1      -0.029   3.855   0.021  0.00  0.00    +0.013 A 
ATOM     14  C   UNL     1       1.169   3.175   0.007  0.00  0.00    +0.046 A 
BRANCH   9  15
ATOM     15  O   UNL     1       2.365   1.120  -0.014  0.00  0.00    -0.492 OA
BRANCH  15  17
ATOM     16  C   UNL     1       4.778   0.994  -0.037  0.00  0.00    +0.048 C 
ATOM     17  C   UNL     1       3.555   1.912  -0.021  0.00  0.00    +0.225 C 
ENDBRANCH  15  17
ENDBRANCH   9  15
ENDBRANCH   1  12
BRANCH   4  18
ATOM     18  C   UNL     1      -6.266   3.274  -0.014  0.00  0.00    -0.019 A 
ATOM     19  C   UNL     1      -6.957   3.580   1.143  0.00  0.00    +0.005 A 
ATOM     20  C   UNL     1      -8.149   2.939   1.427  0.00  0.00    +0.000 A 
ATOM     21  C   UNL     1      -8.652   1.991   0.554  0.00  0.00    +0.004 A 
ATOM     22  C   UNL     1      -7.965   1.683  -0.603  0.00  0.00    +0.045 A 
ATOM     23  C   UNL     1      -6.771   2.328  -0.893  0.00  0.00    +0.118 A 
BRANCH  23  24
ATOM     24  O   UNL     1      -6.095   2.029  -2.033  0.00  0.00    -0.507 OA
ATOM     25  H   UNL     1      -5.457   1.309  -1.936  0.00  0.00    +0.292 HD
ENDBRANCH  23  24
ENDBRANCH   4  18
BRANCH   3  26
ATOM     26  C   UNL     1      -3.920   6.528  -1.332  0.00  0.00    -0.040 A 
ATOM     27  C   UNL     1      -5.206   6.817  -1.755  0.00  0.00    +0.004 A 
ATOM     28  C   UNL     1      -5.423   7.320  -3.021  0.00  0.00    +0.015 A 
ATOM     29  C   UNL     1      -4.342   7.527  -3.881  0.00  0.00    +0.059 A 
ATOM     30  C   UNL     1      -3.048   7.228  -3.450  0.00  0.00    +0.015 A 
ATOM     31  C   UNL     1      -2.845   6.731  -2.179  0.00  0.00    +0.004 A 
BRANCH  29  32
ATOM     32  C   UNL     1      -4.567   8.058  -5.240  0.00  0.00    +0.339 C 
ATOM     33  O   UNL     1      -3.626   8.237  -5.986  0.00  0.00    -0.245 OA
BRANCH  32  34
ATOM     34  O   UNL     1      -5.817   8.345  -5.653  0.00  0.00    -0.464 OA
ATOM     35  C   UNL     1      -5.963   8.864  -7.001  0.00  0.00    +0.280 C 
ENDBRANCH  32  34
ENDBRANCH  29  32
ENDBRANCH   3  26
TORSDOF 8
