REMARK  Name = ZINC41511932
REMARK  6 active torsions:
REMARK  status: ('A' for Active; 'I' for Inactive)
REMARK    1  A    between atoms: C_1  and  C_2
REMARK    2  A    between atoms: N_8  and  C_9
REMARK    3  A    between atoms: C_9  and  C_10
REMARK    4  A    between atoms: C_11  and  O_32
REMARK    5  A    between atoms: C_17  and  C_28
REMARK    6  A    between atoms: C_18  and  C_21
REMARK                            x       y       z     vdW  Elec       q    Type
REMARK                         _______ _______ _______ _____ _____    ______ ____
ROOT
ATOM      1  C   UNL     1       2.446  -0.571   2.969  0.00  0.00    +0.020 A 
ATOM      2  C   UNL     1       2.478   0.172   4.137  0.00  0.00    +0.122 A 
ATOM      3  C   UNL     1       3.406  -0.112   5.135  0.00  0.00    +0.046 A 
ATOM      4  C   UNL     1       4.299  -1.134   4.975  0.00  0.00    +0.019 A 
ATOM      5  C   UNL     1       4.278  -1.893   3.806  0.00  0.00    +0.065 A 
ATOM      6  C   UNL     1       3.345  -1.615   2.791  0.00  0.00    +0.144 A 
ATOM      7  O   UNL     1       3.334  -2.344   1.658  0.00  0.00    -0.450 OA
ATOM      8  C   UNL     1       3.966  -3.516   1.571  0.00  0.00    +0.219 A 
ATOM      9  C   UNL     1       4.900  -3.917   2.473  0.00  0.00    +0.076 A 
ATOM     10  C   UNL     1       5.218  -3.011   3.596  0.00  0.00    +0.201 A 
ATOM     11  O   UNL     1       6.188  -3.183   4.313  0.00  0.00    -0.286 OA
ENDROOT
BRANCH   9  12
ATOM     12  C   UNL     1       5.589  -5.222   2.327  0.00  0.00    -0.011 A 
ATOM     13  C   UNL     1       6.583  -5.385   1.363  0.00  0.00    +0.010 A 
ATOM     14  C   UNL     1       7.221  -6.601   1.232  0.00  0.00    +0.016 A 
ATOM     15  C   UNL     1       6.876  -7.659   2.056  0.00  0.00    +0.018 A 
ATOM     16  C   UNL     1       5.889  -7.503   3.014  0.00  0.00    +0.016 A 
ATOM     17  C   UNL     1       5.249  -6.289   3.157  0.00  0.00    +0.010 A 
ATOM     18 BR   UNL     1       7.755  -9.323   1.871  0.00  0.00    -0.050 Br
ENDBRANCH   9  12
BRANCH   8  19
ATOM     19  C   UNL     1       3.629  -4.434   0.424  0.00  0.00    +0.451 C 
ATOM     20  F   UNL     1       4.256  -5.670   0.616  0.00  0.00    -0.163 F 
ATOM     21  F   UNL     1       2.243  -4.619   0.366  0.00  0.00    -0.163 F 
ATOM     22  F   UNL     1       4.074  -3.866  -0.774  0.00  0.00    -0.163 F 
ENDBRANCH   8  19
BRANCH   2  23
ATOM     23  O   UNL     1       1.595   1.188   4.310  0.00  0.00    -0.506 OA
ATOM     24  H   UNL     1       0.767   0.922   4.733  0.00  0.00    +0.292 HD
ENDBRANCH   2  23
BRANCH   1  25
ATOM     25  C   UNL     1       1.436  -0.253   1.897  0.00  0.00    -0.035 C 
BRANCH  25  32
ATOM     26  C   UNL     1      -1.052   0.884   1.263  0.00  0.00    -0.013 C 
ATOM     27  C   UNL     1      -0.815  -0.624   1.164  0.00  0.00    -0.071 C 
ATOM     28  C   UNL     1      -2.121  -1.365   1.460  0.00  0.00    -0.016 C 
ATOM     29  C   UNL     1      -1.879  -2.874   1.359  0.00  0.00    -0.003 C 
ATOM     30  C   UNL     1      -0.757  -3.267   2.324  0.00  0.00    -0.019 C 
ATOM     31  C   UNL     1       0.498  -2.456   1.996  0.00  0.00    -0.078 C 
ATOM     32  N   UNL     1       0.209  -1.024   2.136  0.00  0.00    +0.384 N 
ATOM     33  H   UNL     1      -0.125  -0.839   3.070  0.00  0.00    -0.081 HD
ENDBRANCH  25  32
ENDBRANCH   1  25
TORSDOF 5
