REMARK  Name = ZINC09265340
REMARK  7 active torsions:
REMARK  status: ('A' for Active; 'I' for Inactive)
REMARK    1  A    between atoms: C_1  and  C_2
REMARK    2  A    between atoms: C_2  and  O_3
REMARK    3  A    between atoms: O_3  and  C_4
REMARK    4  A    between atoms: C_9  and  C_10
REMARK    5  A    between atoms: N_12  and  C_13
REMARK    6  A    between atoms: C_21  and  C_22
REMARK    7  A    between atoms: N_27  and  C_30
REMARK                            x       y       z     vdW  Elec       q    Type
REMARK                         _______ _______ _______ _____ _____    ______ ____
ROOT
ATOM      1  C   UNL     1      -0.018   1.406   0.036  0.00  0.00    +0.092 A 
ATOM      2  C   UNL     1       1.084   2.327  -0.268  0.00  0.00    +0.042 A 
ATOM      3  C   UNL     1       2.413   2.155  -0.656  0.00  0.00    +0.013 A 
ATOM      4  C   UNL     1       3.205   3.249  -0.867  0.00  0.00    +0.001 A 
ATOM      5  C   UNL     1       2.694   4.529  -0.698  0.00  0.00    +0.004 A 
ATOM      6  C   UNL     1       1.383   4.719  -0.316  0.00  0.00    +0.047 A 
ATOM      7  C   UNL     1       0.560   3.620  -0.095  0.00  0.00    +0.138 A 
ATOM      8  O   UNL     1      -0.730   3.496   0.276  0.00  0.00    -0.448 OA
ATOM      9  C   UNL     1      -1.089   2.195   0.353  0.00  0.00    +0.212 A 
ENDROOT
BRANCH   9  10
ATOM     10  C   UNL     1      -2.417   1.708   0.722  0.00  0.00    +0.284 C 
ATOM     11  O   UNL     1      -3.227   1.433  -0.144  0.00  0.00    -0.267 OA
ATOM     12  N   UNL     1      -2.744   1.563   2.021  0.00  0.00    -0.292 N 
ATOM     13  C   UNL     1      -1.743   1.766   3.080  0.00  0.00    +0.127 C 
ATOM     14  C   UNL     1      -2.325   2.745   4.112  0.00  0.00    +0.125 C 
ATOM     15  N   UNL     1      -3.626   2.243   4.576  0.00  0.00    -0.314 N 
ATOM     16  C   UNL     1      -4.598   2.186   3.477  0.00  0.00    +0.125 C 
ATOM     17  C   UNL     1      -4.111   1.191   2.418  0.00  0.00    +0.127 C 
BRANCH  15  18
ATOM     18  C   UNL     1      -4.109   3.010   5.630  0.00  0.00    +0.099 A 
ATOM     19  C   UNL     1      -3.330   3.184   6.769  0.00  0.00    +0.042 A 
ATOM     20  C   UNL     1      -3.823   3.950   7.810  0.00  0.00    +0.005 A 
ATOM     21  C   UNL     1      -5.083   4.518   7.676  0.00  0.00    +0.018 A 
ATOM     22  C   UNL     1      -5.801   4.304   6.517  0.00  0.00    +0.084 A 
ATOM     23  N   UNL     1      -5.346   3.562   5.472  0.00  0.00    -0.350 N 
ATOM     24  H   UNL     1      -5.899   3.427   4.617  0.00  0.00    +0.166 HD
ENDBRANCH  15  18
ENDBRANCH   9  10
BRANCH   1  27
ATOM     25  C   UNL     1       1.184  -0.631   0.191  0.00  0.00    +0.252 C 
ATOM     26  O   UNL     1       2.192  -0.005   0.458  0.00  0.00    -0.270 OA
ATOM     27  N   UNL     1       0.018   0.018   0.002  0.00  0.00    -0.278 N 
ATOM     28  H   UNL     1      -0.797  -0.485  -0.157  0.00  0.00    +0.155 HD
BRANCH  25  34
ATOM     29  C   UNL     1       2.449  -2.779   0.268  0.00  0.00    +0.133 A 
ATOM     30  C   UNL     1       2.487  -4.161   0.154  0.00  0.00    +0.046 A 
ATOM     31  C   UNL     1       1.338  -4.863  -0.150  0.00  0.00    +0.004 A 
ATOM     32  C   UNL     1       0.140  -4.196  -0.343  0.00  0.00    +0.001 A 
ATOM     33  C   UNL     1       0.081  -2.824  -0.229  0.00  0.00    +0.017 A 
ATOM     34  C   UNL     1       1.238  -2.100   0.073  0.00  0.00    +0.079 A 
BRANCH  29  35
ATOM     35  O   UNL     1       3.577  -2.088   0.567  0.00  0.00    -0.491 OA
BRANCH  35  37
ATOM     36  C   UNL     1       5.931  -1.903   1.079  0.00  0.00    +0.048 C 
ATOM     37  C   UNL     1       4.773  -2.848   0.751  0.00  0.00    +0.226 C 
ENDBRANCH  35  37
ENDBRANCH  29  35
ENDBRANCH  25  34
ENDBRANCH   1  27
TORSDOF 6
