REMARK  Name = ZINC41000912
REMARK  12 active torsions:
REMARK  status: ('A' for Active; 'I' for Inactive)
REMARK    1  A    between atoms: C_1  and  C_2
REMARK    2  A    between atoms: C_5  and  C_8
REMARK    3  A    between atoms: C_10  and  C_13
REMARK    4  A    between atoms: C_14  and  C_34
REMARK    5  A    between atoms: C_15  and  C_33
REMARK    6  A    between atoms: C_17  and  N_18
REMARK    7  A    between atoms: C_19  and  C_21
REMARK    8  A    between atoms: C_21  and  C_23
REMARK    9  A    between atoms: C_21  and  O_24
REMARK   10  A    between atoms: O_24  and  C_25
REMARK   11  A    between atoms: C_28  and  C_32
REMARK   12  A    between atoms: C_29  and  C_31
REMARK                            x       y       z     vdW  Elec       q    Type
REMARK                         _______ _______ _______ _____ _____    ______ ____
ROOT
ATOM      1  C   UNL     1      -0.493  -7.498   1.665  0.00  0.00    +0.071 A 
ATOM      2  C   UNL     1      -0.726  -8.839   1.191  0.00  0.00    -0.026 A 
ATOM      3  C   UNL     1      -0.858  -9.825   2.097  0.00  0.00    -0.008 A 
ATOM      4  S   UNL     1      -0.673  -8.976   3.653  0.00  0.00    -0.078 S 
ATOM      5  C   UNL     1      -0.417  -7.321   3.042  0.00  0.00    +0.085 A 
ATOM      6  C   UNL     1      -1.104 -11.292   1.855  0.00  0.00    +0.052 C 
ATOM      7  C   UNL     1      -0.818  -9.130  -0.285  0.00  0.00    +0.045 C 
ENDROOT
BRANCH   1  10
ATOM      8  C   UNL     1      -0.032  -4.357  -0.032  0.00  0.00    +0.202 A 
ATOM      9  N   UNL     1      -0.120  -5.116   1.071  0.00  0.00    -0.187 NA
ATOM     10  C   UNL     1      -0.339  -6.370   0.735  0.00  0.00    +0.261 A 
ATOM     11  O   UNL     1      -0.395  -6.441  -0.608  0.00  0.00    -0.332 OA
ATOM     12  N   UNL     1      -0.199  -5.119  -1.086  0.00  0.00    -0.056 NA
BRANCH   8  17
ATOM     13  C   UNL     1       0.903   1.326  -0.119  0.00  0.00    +0.044 C 
ATOM     14  C   UNL     1       0.659  -0.161  -0.096  0.00  0.00    -0.050 A 
ATOM     15  C   UNL     1       0.499  -0.852  -1.284  0.00  0.00    +0.004 A 
ATOM     16  C   UNL     1       0.275  -2.214  -1.269  0.00  0.00    +0.012 A 
ATOM     17  C   UNL     1       0.210  -2.893  -0.054  0.00  0.00    +0.022 A 
ATOM     18  C   UNL     1       0.371  -2.192   1.139  0.00  0.00    +0.012 A 
ATOM     19  C   UNL     1       0.600  -0.832   1.112  0.00  0.00    +0.004 A 
ENDBRANCH   8  17
ENDBRANCH   1  10
BRANCH   5  20
ATOM     20  N   UNL     1      -0.199  -6.151   3.758  0.00  0.00    -0.276 N 
ATOM     21  C   UNL     1      -0.158  -6.184   5.105  0.00  0.00    +0.258 C 
ATOM     22  O   UNL     1      -0.312  -7.235   5.691  0.00  0.00    -0.271 OA
ATOM     23  H   UNL     1      -0.076  -5.311   3.289  0.00  0.00    +0.155 HD
BRANCH  21  24
ATOM     24  C   UNL     1       0.079  -4.915   5.883  0.00  0.00    +0.256 C 
ATOM     25  C   UNL     1      -1.096  -3.959   5.668  0.00  0.00    +0.062 C 
BRANCH  24  26
ATOM     26  O   UNL     1       0.195  -5.223   7.273  0.00  0.00    -0.480 OA
BRANCH  26  27
ATOM     27  C   UNL     1       0.898  -4.351   8.042  0.00  0.00    +0.122 A 
ATOM     28  C   UNL     1       1.150  -4.646   9.374  0.00  0.00    +0.046 A 
ATOM     29  C   UNL     1       1.866  -3.757  10.153  0.00  0.00    +0.007 A 
ATOM     30  C   UNL     1       2.331  -2.575   9.607  0.00  0.00    -0.047 A 
ATOM     31  C   UNL     1       2.080  -2.279   8.280  0.00  0.00    -0.044 A 
ATOM     32  C   UNL     1       1.370  -3.167   7.495  0.00  0.00    +0.049 A 
ATOM     33  C   UNL     1       2.588  -0.990   7.687  0.00  0.00    +0.044 C 
ATOM     34  C   UNL     1       3.111  -1.608  10.459  0.00  0.00    +0.044 C 
ENDBRANCH  26  27
ENDBRANCH  24  26
ENDBRANCH  21  24
ENDBRANCH   5  20
TORSDOF 6
