REMARK  Name = ZINC36365367
REMARK  7 active torsions:
REMARK  status: ('A' for Active; 'I' for Inactive)
REMARK    1  A    between atoms: C_1  and  C_2
REMARK    2  A    between atoms: C_6  and  C_8
REMARK    3  A    between atoms: C_20  and  C_22
REMARK    4  A    between atoms: C_26  and  O_29
REMARK    5  A    between atoms: C_27  and  O_28
REMARK    6  A    between atoms: N_30  and  C_37
REMARK    7  A    between atoms: N_33  and  C_36
REMARK                            x       y       z     vdW  Elec       q    Type
REMARK                         _______ _______ _______ _____ _____    ______ ____
ROOT
ATOM      1  C   UNL     1      -0.109  -2.895   2.316  0.00  0.00    +0.069 A 
ATOM      2  C   UNL     1       0.752  -2.597   3.342  0.00  0.00    +0.089 A 
ATOM      3  C   UNL     1       0.447  -3.550   4.440  0.00  0.00    +0.082 A 
ATOM      4  C   UNL     1      -0.539  -4.322   4.008  0.00  0.00    +0.073 A 
ATOM      5  N   UNL     1      -0.879  -3.942   2.717  0.00  0.00    -0.306 N 
ATOM      6  C   UNL     1      -1.895  -4.602   2.011  0.00  0.00    +0.068 A 
ATOM      7  C   UNL     1      -2.407  -4.092   0.833  0.00  0.00    +0.028 A 
ATOM      8  C   UNL     1      -3.423  -4.765   0.178  0.00  0.00    +0.002 A 
ATOM      9  C   UNL     1      -3.926  -5.943   0.700  0.00  0.00    +0.002 A 
ATOM     10  C   UNL     1      -3.414  -6.463   1.875  0.00  0.00    +0.025 A 
ATOM     11  C   UNL     1      -2.390  -5.801   2.534  0.00  0.00    +0.052 A 
ATOM     12  N   UNL     1      -1.832  -6.337   3.701  0.00  0.00    -0.330 N 
ATOM     13  C   UNL     1      -1.256  -5.450   4.719  0.00  0.00    +0.154 C 
ATOM     14  N   UNL     1       1.185  -3.468   5.630  0.00  0.00    -0.294 N 
ATOM     15  C   UNL     1       2.140  -2.515   5.702  0.00  0.00    +0.332 A 
ATOM     16  O   UNL     1       2.780  -2.445   6.733  0.00  0.00    -0.246 OA
ATOM     17  N   UNL     1       2.441  -1.642   4.735  0.00  0.00    -0.263 N 
ATOM     18  C   UNL     1       1.812  -1.602   3.532  0.00  0.00    +0.266 A 
ATOM     19  O   UNL     1       2.108  -0.795   2.671  0.00  0.00    -0.267 OA
ATOM     20  C   UNL     1       3.511  -0.674   4.987  0.00  0.00    +0.157 C 
ATOM     21  C   UNL     1       0.931  -4.379   6.749  0.00  0.00    +0.154 C 
ATOM     22  H   UNL     1      -1.821  -7.297   3.835  0.00  0.00    +0.147 HD
ENDROOT
BRANCH   1  28
ATOM     23  C   UNL     1      -0.769   1.297  -0.306  0.00  0.00    +0.044 C 
ATOM     24  C   UNL     1      -0.507  -0.186  -0.252  0.00  0.00    -0.050 A 
ATOM     25  C   UNL     1      -0.341  -0.901  -1.425  0.00  0.00    +0.003 A 
ATOM     26  C   UNL     1      -0.099  -2.263  -1.384  0.00  0.00    +0.001 A 
ATOM     27  C   UNL     1      -0.023  -2.918  -0.172  0.00  0.00    +0.010 A 
ATOM     28  C   UNL     1      -0.189  -2.202   1.016  0.00  0.00    -0.000 A 
ATOM     29  C   UNL     1      -0.427  -0.826   0.967  0.00  0.00    +0.013 A 
ENDBRANCH   1  28
BRANCH  13  30
ATOM     30  C   UNL     1      -2.363  -4.891   5.574  0.00  0.00    +0.024 A 
ATOM     31  C   UNL     1      -2.809  -3.598   5.370  0.00  0.00    +0.009 A 
ATOM     32  C   UNL     1      -3.825  -3.082   6.153  0.00  0.00    +0.004 A 
ATOM     33  C   UNL     1      -4.399  -3.856   7.144  0.00  0.00    +0.049 A 
ATOM     34  C   UNL     1      -3.957  -5.152   7.354  0.00  0.00    +0.159 A 
ATOM     35  C   UNL     1      -2.938  -5.674   6.562  0.00  0.00    +0.164 A 
BRANCH  35  36
ATOM     36  O   UNL     1      -2.505  -6.947   6.761  0.00  0.00    -0.503 OA
ATOM     37  H   UNL     1      -1.835  -7.031   7.453  0.00  0.00    +0.292 HD
ENDBRANCH  35  36
BRANCH  34  38
ATOM     38  O   UNL     1      -4.520  -5.915   8.329  0.00  0.00    -0.503 OA
ATOM     39  H   UNL     1      -5.281  -6.433   8.033  0.00  0.00    +0.292 HD
ENDBRANCH  34  38
ENDBRANCH  13  30
TORSDOF 4
