REMARK  Name = ZINC24840174
REMARK  12 active torsions:
REMARK  status: ('A' for Active; 'I' for Inactive)
REMARK    1  A    between atoms: C_1  and  C_2
REMARK    2  A    between atoms: C_7  and  C_9
REMARK    3  A    between atoms: C_7  and  C_10
REMARK    4  A    between atoms: N_13  and  C_17
REMARK    5  A    between atoms: C_17  and  C_18
REMARK    6  A    between atoms: C_18  and  O_20
REMARK    7  A    between atoms: O_20  and  C_21
REMARK    8  A    between atoms: C_21  and  C_22
REMARK    9  A    between atoms: C_24  and  C_27
REMARK   10  A    between atoms: C_30  and  C_33
REMARK   11  A    between atoms: C_33  and  C_34
REMARK   12  A    between atoms: C_33  and  C_35
REMARK                            x       y       z     vdW  Elec       q    Type
REMARK                         _______ _______ _______ _____ _____    ______ ____
ROOT
ATOM      1  C   UNL     1      -4.972  -3.399  -2.310  0.00  0.00    +0.326 C 
ATOM      2  O   UNL     1      -4.652  -2.260  -2.557  0.00  0.00    -0.249 OA
ENDROOT
BRANCH   1   3
ATOM      3  C   UNL     1      -4.079  -4.264  -1.458  0.00  0.00    +0.238 C 
BRANCH   3  15
ATOM      4  C   UNL     1      -0.159   1.471  -0.048  0.00  0.00    +0.007 C 
ATOM      5  C   UNL     1      -0.085  -0.057  -0.027  0.00  0.00    -0.011 C 
ATOM      6  C   UNL     1      -1.501  -0.636   0.015  0.00  0.00    +0.038 C 
ATOM      7  C   UNL     1      -1.428  -2.159   0.057  0.00  0.00    +0.113 C 
ATOM      8  C   UNL     1      -0.642  -2.627   1.276  0.00  0.00    +0.041 C 
ATOM      9  C   UNL     1       0.772  -2.041   1.230  0.00  0.00    -0.032 C 
ATOM     10  C   UNL     1       0.688  -0.513   1.212  0.00  0.00    +0.009 C 
ATOM     11  C   UNL     1       1.553  -2.495   2.465  0.00  0.00    +0.011 C 
ATOM     12  C   UNL     1       1.485  -2.527  -0.033  0.00  0.00    +0.011 C 
ATOM     13  C   UNL     1      -2.817  -2.754   0.064  0.00  0.00    +0.247 C 
ATOM     14  O   UNL     1      -3.679  -2.595   0.901  0.00  0.00    -0.273 OA
ATOM     15  N   UNL     1      -2.895  -3.499  -1.058  0.00  0.00    -0.213 N 
ATOM     16  C   UNL     1      -1.756  -3.453  -1.761  0.00  0.00    +0.310 C 
ATOM     17  O   UNL     1      -1.585  -4.042  -2.810  0.00  0.00    -0.252 OA
ATOM     18  N   UNL     1      -0.823  -2.679  -1.176  0.00  0.00    -0.285 N 
ATOM     19  H   UNL     1       0.073  -2.500  -1.504  0.00  0.00    +0.151 HD
ENDBRANCH   3  15
ENDBRANCH   1   3
BRANCH   1  20
ATOM     20  O   UNL     1      -6.122  -3.893  -2.793  0.00  0.00    -0.454 OA
BRANCH  20  21
ATOM     21  C   UNL     1      -6.920  -3.018  -3.593  0.00  0.00    +0.330 C 
BRANCH  21  22
ATOM     22  C   UNL     1      -8.163  -3.741  -4.043  0.00  0.00    +0.265 A 
ATOM     23  N   UNL     1      -9.299  -3.771  -3.406  0.00  0.00    -0.188 NA
ATOM     24  C   UNL     1     -10.191  -4.508  -4.092  0.00  0.00    +0.202 A 
ATOM     25  N   UNL     1      -9.617  -4.954  -5.182  0.00  0.00    -0.056 NA
ATOM     26  O   UNL     1      -8.288  -4.456  -5.169  0.00  0.00    -0.334 OA
BRANCH  24  27
ATOM     27  C   UNL     1     -11.593  -4.772  -3.681  0.00  0.00    +0.022 A 
ATOM     28  C   UNL     1     -12.087  -4.233  -2.495  0.00  0.00    +0.012 A 
ATOM     29  C   UNL     1     -13.392  -4.482  -2.118  0.00  0.00    +0.004 A 
ATOM     30  C   UNL     1     -14.207  -5.265  -2.915  0.00  0.00    -0.045 A 
ATOM     31  C   UNL     1     -13.721  -5.802  -4.093  0.00  0.00    +0.004 A 
ATOM     32  C   UNL     1     -12.421  -5.554  -4.483  0.00  0.00    +0.012 A 
BRANCH  30  33
ATOM     33  C   UNL     1     -15.630  -5.534  -2.498  0.00  0.00    +0.013 C 
ATOM     34  C   UNL     1     -16.585  -5.003  -3.569  0.00  0.00    +0.012 C 
ATOM     35  C   UNL     1     -15.837  -7.041  -2.332  0.00  0.00    +0.012 C 
ENDBRANCH  30  33
ENDBRANCH  24  27
ENDBRANCH  21  22
ENDBRANCH  20  21
ENDBRANCH   1  20
TORSDOF 7
