REMARK  Name = ZINC29403358
REMARK  8 active torsions:
REMARK  status: ('A' for Active; 'I' for Inactive)
REMARK    1  A    between atoms: C_4  and  O_7
REMARK    2  A    between atoms: O_7  and  C_8
REMARK    3  A    between atoms: N_10  and  C_11
REMARK    4  A    between atoms: N_14  and  C_17
REMARK    5  A    between atoms: C_17  and  C_18
REMARK    6  A    between atoms: N_20  and  C_21
REMARK    7  A    between atoms: C_31  and  C_33
REMARK    8  A    between atoms: C_33  and  C_34
REMARK                            x       y       z     vdW  Elec       q    Type
REMARK                         _______ _______ _______ _____ _____    ______ ____
ROOT
ATOM      1  C   UNL     1       2.421   3.234   0.426  0.00  0.00    +0.197 C 
ATOM      2  O   UNL     1       3.424   2.553   0.400  0.00  0.00    -0.278 OA
ATOM      3  N   UNL     1       2.517   4.570   0.572  0.00  0.00    -0.313 N 
ATOM      4  H   UNL     1       1.607   5.188   0.596  0.00  0.00    +0.149 HD
ENDROOT
BRANCH   3   5
ATOM      5  C   UNL     1       3.833   5.201   0.698  0.00  0.00    +0.081 C 
ATOM      6  C   UNL     1       4.282   5.171   2.163  0.00  0.00    +0.027 C 
ATOM      7  C   UNL     1       3.142   5.711   3.026  0.00  0.00    +0.037 C 
ATOM      8  C   UNL     1       2.657   7.035   2.497  0.00  0.00    -0.041 A 
ATOM      9  C   UNL     1       1.901   7.832   3.346  0.00  0.00    +0.042 A 
ATOM     10  C   UNL     1       1.416   9.052   2.916  0.00  0.00    +0.124 A 
ATOM     11  C   UNL     1       1.687   9.483   1.628  0.00  0.00    +0.038 A 
ATOM     12  C   UNL     1       2.441   8.693   0.786  0.00  0.00    +0.007 A 
ATOM     13  C   UNL     1       2.930   7.466   1.218  0.00  0.00    -0.039 A 
ATOM     14  C   UNL     1       3.751   6.658   0.248  0.00  0.00    +0.044 C 
ATOM     15  F   UNL     1       0.679   9.821   3.747  0.00  0.00    -0.205 F 
BRANCH  14  16
ATOM     16  C   UNL     1       3.103   6.722  -1.137  0.00  0.00    +0.046 C 
BRANCH  16  17
ATOM     17  C   UNL     1       4.002   6.053  -2.144  0.00  0.00    -0.029 A 
ATOM     18  C   UNL     1       5.050   6.753  -2.723  0.00  0.00    +0.006 A 
ATOM     19  C   UNL     1       5.854   6.096  -3.641  0.00  0.00    +0.020 A 
ATOM     20  C   UNL     1       5.581   4.777  -3.954  0.00  0.00    +0.111 A 
ATOM     21  N   UNL     1       4.572   4.145  -3.388  0.00  0.00    -0.263 NA
ATOM     22  C   UNL     1       3.789   4.737  -2.507  0.00  0.00    +0.114 A 
ENDBRANCH  16  17
ENDBRANCH  14  16
ENDBRANCH   3   5
BRANCH   1  23
ATOM     23  C   UNL     1       1.067   2.585   0.297  0.00  0.00    +0.019 C 
BRANCH  23  27
ATOM     24  C   UNL     1       0.869  -1.468  -1.051  0.00  0.00    +0.073 C 
ATOM     25  C   UNL     1       0.165  -1.071   0.249  0.00  0.00    +0.004 C 
ATOM     26  C   UNL     1      -0.061   0.443   0.260  0.00  0.00    -0.076 C 
ATOM     27  N   UNL     1       1.231   1.133   0.151  0.00  0.00    +0.385 N 
ATOM     28  C   UNL     1       1.905   0.803  -1.112  0.00  0.00    -0.076 C 
ATOM     29  C   UNL     1       2.189  -0.700  -1.163  0.00  0.00    +0.004 C 
ATOM     30  H   UNL     1       1.870   0.779   0.974  0.00  0.00    -0.081 HD
BRANCH  24  33
ATOM     31  C   UNL     1       1.274  -3.576  -2.203  0.00  0.00    +0.406 C 
ATOM     32  O   UNL     1       1.169  -2.985  -3.260  0.00  0.00    -0.226 OA
ATOM     33  N   UNL     1       1.140  -2.908  -1.041  0.00  0.00    -0.278 N 
ATOM     34  H   UNL     1       1.235  -3.443  -0.084  0.00  0.00    +0.152 HD
BRANCH  31  35
ATOM     35  O   UNL     1       1.523  -4.900  -2.194  0.00  0.00    -0.412 OA
BRANCH  35  39
ATOM     36  C   UNL     1       2.257  -6.694  -5.836  0.00  0.00    +0.000 A 
ATOM     37  C   UNL     1       3.176  -5.809  -5.305  0.00  0.00    +0.004 A 
ATOM     38  C   UNL     1       2.933  -5.206  -4.086  0.00  0.00    +0.046 A 
ATOM     39  C   UNL     1       1.765  -5.491  -3.394  0.00  0.00    +0.133 A 
ATOM     40  C   UNL     1       0.846  -6.383  -3.926  0.00  0.00    +0.046 A 
ATOM     41  C   UNL     1       1.091  -6.978  -5.149  0.00  0.00    +0.004 A 
ENDBRANCH  35  39
ENDBRANCH  31  35
ENDBRANCH  24  33
ENDBRANCH  23  27
ENDBRANCH   1  23
TORSDOF 8
