REMARK  Name = ZINC28442525
REMARK  14 active torsions:
REMARK  status: ('A' for Active; 'I' for Inactive)
REMARK    1  A    between atoms: C_1  and  C_2
REMARK    2  A    between atoms: C_3  and  C_12
REMARK    3  A    between atoms: C_4  and  C_11
REMARK    4  A    between atoms: N_5  and  C_7
REMARK    5  A    between atoms: C_7  and  C_8
REMARK    6  A    between atoms: C_8  and  C_9
REMARK    7  A    between atoms: C_8  and  C_10
REMARK    8  A    between atoms: C_12  and  C_13
REMARK    9  A    between atoms: C_13  and  O_15
REMARK   10  A    between atoms: O_15  and  C_16
REMARK   11  A    between atoms: C_16  and  C_18
REMARK   12  A    between atoms: C_16  and  C_24
REMARK   13  A    between atoms: N_26  and  C_27
REMARK   14  A    between atoms: C_30  and  N_34
REMARK                            x       y       z     vdW  Elec       q    Type
REMARK                         _______ _______ _______ _____ _____    ______ ____
ROOT
ATOM      1  C   UNL     1       1.272   2.007   0.017  0.00  0.00    +0.292 C 
ENDROOT
BRANCH   1   2
ATOM      2  C   UNL     1       1.703   2.238  -1.409  0.00  0.00    +0.002 A 
ATOM      3  C   UNL     1       0.772   2.615  -2.359  0.00  0.00    +0.008 A 
ATOM      4  C   UNL     1       1.169   2.831  -3.666  0.00  0.00    +0.000 A 
ATOM      5  C   UNL     1       2.493   2.662  -4.024  0.00  0.00    +0.000 A 
ATOM      6  C   UNL     1       3.422   2.281  -3.074  0.00  0.00    +0.000 A 
ATOM      7  C   UNL     1       3.027   2.069  -1.766  0.00  0.00    +0.008 A 
ENDBRANCH   1   2
BRANCH   1   8
ATOM      8  C   UNL     1       1.148   3.331   0.726  0.00  0.00    +0.263 C 
ATOM      9  O   UNL     1       0.082   3.670   1.196  0.00  0.00    -0.271 OA
ATOM     10  N   UNL     1       2.220   4.139   0.837  0.00  0.00    -0.281 N 
ATOM     11  H   UNL     1       3.203   3.802   0.476  0.00  0.00    +0.155 HD
BRANCH  10  12
ATOM     12  C   UNL     1       2.084   5.409   1.411  0.00  0.00    +0.052 A 
ATOM     13  C   UNL     1       1.187   5.609   2.452  0.00  0.00    +0.027 A 
ATOM     14  C   UNL     1       1.055   6.862   3.017  0.00  0.00    +0.034 A 
ATOM     15  C   UNL     1       1.814   7.918   2.546  0.00  0.00    +0.128 A 
ATOM     16  C   UNL     1       2.708   7.723   1.510  0.00  0.00    +0.054 A 
ATOM     17  C   UNL     1       2.850   6.470   0.944  0.00  0.00    +0.064 A 
ATOM     18 CL   UNL     1       3.977   6.224  -0.353  0.00  0.00    -0.082 Cl
BRANCH  15  19
ATOM     19  N   UNL     1       1.669   9.260   3.155  0.00  0.00    +0.056 N 
ATOM     20  O   UNL     1       0.883   9.433   4.068  0.00  0.00    -0.126 OA
ATOM     21  O   UNL     1       2.337  10.191   2.741  0.00  0.00    -0.126 OA
ENDBRANCH  15  19
ENDBRANCH  10  12
ENDBRANCH   1   8
BRANCH   1  22
ATOM     22  O   UNL     1      -0.011   1.328   0.031  0.00  0.00    -0.447 OA
BRANCH  22  23
ATOM     23  C   UNL     1       0.009  -0.014   0.034  0.00  0.00    +0.313 C 
ATOM     24  O   UNL     1       1.064  -0.602   0.025  0.00  0.00    -0.250 OA
BRANCH  23  25
ATOM     25  C   UNL     1      -1.285  -0.787   0.047  0.00  0.00    +0.159 C 
BRANCH  25  28
ATOM     26  C   UNL     1      -0.954  -2.622  -2.515  0.00  0.00    +0.068 C 
ATOM     27  C   UNL     1      -0.841  -3.075  -1.082  0.00  0.00    +0.064 A 
ATOM     28  C   UNL     1      -0.987  -2.264   0.048  0.00  0.00    +0.006 A 
ATOM     29  C   UNL     1      -0.819  -3.042   1.143  0.00  0.00    +0.040 A 
ATOM     30  N   UNL     1      -0.570  -4.299   0.720  0.00  0.00    -0.268 N 
ATOM     31  N   UNL     1      -0.585  -4.294  -0.681  0.00  0.00    -0.176 NA
ATOM     32  C   UNL     1      -0.897  -2.586   2.577  0.00  0.00    +0.065 C 
BRANCH  30  33
ATOM     33  C   UNL     1      -0.328  -5.464   1.575  0.00  0.00    +0.146 C 
BRANCH  33  34
ATOM     34  C   UNL     1      -1.657  -6.154   1.885  0.00  0.00    +0.004 C 
ATOM     35  C   UNL     1      -2.254  -6.717   0.594  0.00  0.00    +0.009 C 
ATOM     36  C   UNL     1      -1.420  -7.295   2.877  0.00  0.00    +0.009 C 
ENDBRANCH  33  34
ENDBRANCH  30  33
ENDBRANCH  25  28
ENDBRANCH  23  25
ENDBRANCH  22  23
ENDBRANCH   1  22
TORSDOF 10
