REMARK  Name = ZINC66834835
REMARK  7 active torsions:
REMARK  status: ('A' for Active; 'I' for Inactive)
REMARK    1  A    between atoms: C_1  and  C_2
REMARK    2  A    between atoms: C_2  and  C_4
REMARK    3  A    between atoms: C_2  and  N_20
REMARK    4  A    between atoms: N_9  and  C_10
REMARK    5  A    between atoms: C_24  and  C_27
REMARK    6  A    between atoms: C_27  and  O_29
REMARK    7  A    between atoms: O_29  and  C_30
REMARK                            x       y       z     vdW  Elec       q    Type
REMARK                         _______ _______ _______ _____ _____    ______ ____
ROOT
ATOM      1  C   UNL     1       0.793  -0.386  -1.223  0.00  0.00    +0.207 C 
ATOM      2  O   UNL     1       1.869  -0.931  -1.103  0.00  0.00    -0.277 OA
ATOM      3  N   UNL     1       0.304  -0.121  -2.450  0.00  0.00    -0.242 N 
ATOM      4  C   UNL     1       1.011  -0.463  -3.546  0.00  0.00    +0.306 C 
ATOM      5  O   UNL     1       2.090  -1.009  -3.426  0.00  0.00    -0.252 OA
ATOM      6  N   UNL     1       0.522  -0.198  -4.773  0.00  0.00    -0.294 N 
ATOM      7  H   UNL     1      -0.557   0.315  -2.546  0.00  0.00    +0.159 HD
ATOM      8  H   UNL     1      -0.339   0.238  -4.869  0.00  0.00    +0.151 HD
ENDROOT
BRANCH   6   9
ATOM      9  C   UNL     1       1.291  -0.569  -5.964  0.00  0.00    +0.037 C 
ATOM     10  C   UNL     1       1.517  -2.082  -5.974  0.00  0.00    +0.029 C 
ATOM     11  C   UNL     1       2.320  -2.470  -7.217  0.00  0.00    -0.008 C 
ATOM     12  C   UNL     1       1.546  -2.061  -8.472  0.00  0.00    +0.007 C 
ATOM     13  C   UNL     1       1.320  -0.548  -8.462  0.00  0.00    -0.008 C 
ATOM     14  C   UNL     1       0.517  -0.161  -7.219  0.00  0.00    +0.029 C 
ATOM     15  C   UNL     1       2.671   0.169  -8.440  0.00  0.00    +0.007 C 
ATOM     16  C   UNL     1       3.445  -0.240  -7.185  0.00  0.00    -0.008 C 
ATOM     17  C   UNL     1       3.671  -1.753  -7.196  0.00  0.00    +0.007 C 
ATOM     18  C   UNL     1       2.642   0.148  -5.942  0.00  0.00    +0.029 C 
ENDBRANCH   6   9
BRANCH   1  20
ATOM     19  C   UNL     1       0.360   1.425   0.416  0.00  0.00    -0.004 C 
ATOM     20  C   UNL     1       0.002  -0.004   0.002  0.00  0.00    +0.017 C 
BRANCH  20  21
ATOM     21  N   UNL     1       0.323  -0.926   1.099  0.00  0.00    +0.388 N 
ATOM     22  C   UNL     1      -0.004  -2.299   0.694  0.00  0.00    -0.078 C 
ATOM     23  C   UNL     1       0.404  -3.272   1.802  0.00  0.00    -0.018 C 
ATOM     24  C   UNL     1      -0.355  -2.923   3.086  0.00  0.00    +0.011 C 
ATOM     25  C   UNL     1      -0.065  -1.466   3.458  0.00  0.00    +0.081 C 
ATOM     26  C   UNL     1      -0.455  -0.559   2.288  0.00  0.00    -0.063 C 
ATOM     27  H   UNL     1       1.308  -0.866   1.311  0.00  0.00    -0.081 HD
BRANCH  25  28
ATOM     28  C   UNL     1      -0.867  -1.089   4.677  0.00  0.00    +0.308 C 
ATOM     29  O   UNL     1      -1.666  -0.185   4.619  0.00  0.00    -0.251 OA
BRANCH  28  30
ATOM     30  O   UNL     1      -0.693  -1.758   5.828  0.00  0.00    -0.468 OA
ATOM     31  C   UNL     1      -1.486  -1.347   6.943  0.00  0.00    +0.280 C 
ENDBRANCH  28  30
ENDBRANCH  25  28
ENDBRANCH  20  21
ENDBRANCH   1  20
TORSDOF 5
