REMARK  Name = ZINC08790049
REMARK  2 active torsions:
REMARK  status: ('A' for Active; 'I' for Inactive)
REMARK    1  A    between atoms: C_8  and  C_26
REMARK    2  A    between atoms: C_26  and  C_28
REMARK                            x       y       z     vdW  Elec       q    Type
REMARK                         _______ _______ _______ _____ _____    ______ ____
ROOT
ATOM      1  C   UNL     1       1.934   3.344  -3.400  0.00  0.00    +0.000 A 
ATOM      2  C   UNL     1       3.102   2.666  -3.697  0.00  0.00    +0.002 A 
ATOM      3  C   UNL     1       3.629   1.760  -2.801  0.00  0.00    +0.023 A 
ATOM      4  C   UNL     1       2.988   1.521  -1.587  0.00  0.00    +0.038 A 
ATOM      5  C   UNL     1       1.813   2.209  -1.299  0.00  0.00    -0.011 A 
ATOM      6  C   UNL     1       1.291   3.112  -2.197  0.00  0.00    +0.006 A 
ATOM      7  C   UNL     1       1.381   1.734   0.060  0.00  0.00    +0.085 C 
ATOM      8  C   UNL     1      -0.013   1.086   0.008  0.00  0.00    +0.069 C 
ATOM      9  C   UNL     1      -0.650   1.528   1.347  0.00  0.00    -0.055 C 
ATOM     10  C   UNL     1      -2.166   1.703   1.153  0.00  0.00    -0.016 C 
ATOM     11  C   UNL     1      -2.363   3.173   0.737  0.00  0.00    -0.020 C 
ATOM     12  C   UNL     1      -0.943   3.768   0.673  0.00  0.00    -0.076 C 
ATOM     13  C   UNL     1       1.270   2.881   1.057  0.00  0.00    +0.060 C 
ATOM     14  C   UNL     1       2.247   2.723   2.191  0.00  0.00    -0.025 A 
ATOM     15  C   UNL     1       2.438   1.747   3.144  0.00  0.00    +0.005 A 
ATOM     16  C   UNL     1       3.446   1.883   4.082  0.00  0.00    +0.002 A 
ATOM     17  C   UNL     1       4.260   3.000   4.060  0.00  0.00    +0.022 A 
ATOM     18  C   UNL     1       4.072   3.981   3.107  0.00  0.00    +0.062 A 
ATOM     19  C   UNL     1       3.058   3.852   2.159  0.00  0.00    +0.054 A 
ATOM     20  N   UNL     1       2.675   4.693   1.113  0.00  0.00    -0.285 N 
ATOM     21  C   UNL     1       1.634   4.198   0.418  0.00  0.00    +0.212 C 
ATOM     22  O   UNL     1       1.093   4.712  -0.538  0.00  0.00    -0.277 OA
ATOM     23 CL   UNL     1       5.101   5.379   3.090  0.00  0.00    -0.082 Cl
ATOM     24  C   UNL     1       2.426   0.732   0.473  0.00  0.00    +0.228 C 
ATOM     25  O   UNL     1       2.458   0.106   1.512  0.00  0.00    -0.275 OA
ATOM     26  N   UNL     1       3.319   0.667  -0.533  0.00  0.00    -0.285 N 
ATOM     27  H   UNL     1       3.107   5.537   0.910  0.00  0.00    +0.155 HD
ATOM     28  H   UNL     1       4.101   0.093  -0.526  0.00  0.00    +0.155 HD
ATOM     29  N   UNL     1      -0.128   2.873   1.515  0.00  0.00    +0.395 N 
ATOM     30  H   UNL     1      -0.180   3.163   2.498  0.00  0.00    -0.079 HD
ENDROOT
BRANCH   8  31
ATOM     31  C   UNL     1      -0.802   1.613  -1.162  0.00  0.00    +0.201 C 
ATOM     32  O   UNL     1      -1.510   2.591  -1.027  0.00  0.00    -0.289 OA
BRANCH  31  33
ATOM     33  C   UNL     1      -0.720   0.970  -2.418  0.00  0.00    +0.170 A 
ATOM     34  C   UNL     1      -1.389   1.339  -3.567  0.00  0.00    +0.053 A 
ATOM     35  C   UNL     1      -1.008   0.427  -4.561  0.00  0.00    +0.042 A 
ATOM     36  C   UNL     1      -0.148  -0.448  -3.992  0.00  0.00    +0.196 A 
ATOM     37  O   UNL     1       0.023  -0.120  -2.706  0.00  0.00    -0.460 OA
ENDBRANCH  31  33
ENDBRANCH   8  31
TORSDOF 2
