REMARK  Name = ZINC23259210
REMARK  8 active torsions:
REMARK  status: ('A' for Active; 'I' for Inactive)
REMARK    1  A    between atoms: C_1  and  C_2
REMARK    2  A    between atoms: C_2  and  N_3
REMARK    3  A    between atoms: N_3  and  C_4
REMARK    4  A    between atoms: N_3  and  C_18
REMARK    5  A    between atoms: C_4  and  C_5
REMARK    6  A    between atoms: N_7  and  C_8
REMARK    7  A    between atoms: C_18  and  C_19
REMARK    8  A    between atoms: C_30  and  C_32
REMARK                            x       y       z     vdW  Elec       q    Type
REMARK                         _______ _______ _______ _____ _____    ______ ____
ROOT
ATOM      1  N   UNL     1      -6.950  -0.118  -0.138  0.00  0.00    +0.391 N 
ATOM      2  H   UNL     1      -7.236   0.766   0.452  0.00  0.00    -0.080 HD
ENDROOT
BRANCH   1   4
ATOM      3  C   UNL     1      -6.372  -0.972   2.083  0.00  0.00    -0.017 C 
ATOM      4  C   UNL     1      -5.933  -0.858   0.622  0.00  0.00    -0.081 C 
ENDBRANCH   1   4
BRANCH   1   5
ATOM      5  C   UNL     1      -6.410   0.351  -1.421  0.00  0.00    +0.020 C 
BRANCH   5   6
ATOM      6  C   UNL     1      -5.334   1.376  -1.169  0.00  0.00    +0.201 C 
ATOM      7  O   UNL     1      -5.045   1.685  -0.033  0.00  0.00    -0.278 OA
ATOM      8  N   UNL     1      -4.693   1.948  -2.207  0.00  0.00    -0.287 N 
ATOM      9  H   UNL     1      -5.008   1.728  -3.238  0.00  0.00    +0.155 HD
BRANCH   8  10
ATOM     10  C   UNL     1      -3.625   2.824  -1.974  0.00  0.00    +0.037 A 
ATOM     11  C   UNL     1      -3.647   3.669  -0.872  0.00  0.00    +0.027 A 
ATOM     12  C   UNL     1      -2.596   4.536  -0.644  0.00  0.00    +0.051 A 
ATOM     13  C   UNL     1      -1.512   4.560  -1.509  0.00  0.00    +0.162 A 
ATOM     14  C   UNL     1      -1.486   3.714  -2.611  0.00  0.00    +0.164 A 
ATOM     15  C   UNL     1      -2.543   2.847  -2.843  0.00  0.00    +0.072 A 
ATOM     16  O   UNL     1      -0.431   3.723  -3.472  0.00  0.00    -0.485 OA
ATOM     17  C   UNL     1       0.432   4.864  -3.419  0.00  0.00    +0.270 C 
ATOM     18  C   UNL     1       0.748   5.160  -1.947  0.00  0.00    +0.270 C 
ATOM     19  O   UNL     1      -0.486   5.422  -1.268  0.00  0.00    -0.485 OA
ENDBRANCH   8  10
ENDBRANCH   5   6
ENDBRANCH   1   5
BRANCH   1  20
ATOM     20  C   UNL     1      -8.154  -0.934  -0.340  0.00  0.00    +0.020 C 
BRANCH  20  21
ATOM     21  C   UNL     1      -9.320  -0.037  -0.667  0.00  0.00    +0.204 C 
ATOM     22  O   UNL     1      -9.160   1.163  -0.739  0.00  0.00    -0.277 OA
ATOM     23  N   UNL     1     -10.540  -0.569  -0.881  0.00  0.00    -0.259 N 
ATOM     24  C   UNL     1     -11.621   0.232  -1.289  0.00  0.00    +0.079 A 
ATOM     25  C   UNL     1     -11.396   1.520  -1.750  0.00  0.00    +0.027 A 
ATOM     26  C   UNL     1     -12.463   2.304  -2.148  0.00  0.00    +0.002 A 
ATOM     27  C   UNL     1     -13.751   1.805  -2.086  0.00  0.00    +0.004 A 
ATOM     28  C   UNL     1     -13.980   0.521  -1.628  0.00  0.00    +0.047 A 
ATOM     29  C   UNL     1     -12.916  -0.273  -1.227  0.00  0.00    +0.142 A 
ATOM     30  O   UNL     1     -13.150  -1.536  -0.782  0.00  0.00    -0.488 OA
ATOM     31  C   UNL     1     -12.140  -2.159   0.014  0.00  0.00    +0.256 C 
ATOM     32  C   UNL     1     -10.786  -2.010  -0.701  0.00  0.00    +0.149 C 
BRANCH  32  33
ATOM     33  C   UNL     1     -10.834  -2.692  -2.044  0.00  0.00    -0.023 A 
ATOM     34  C   UNL     1     -11.467  -2.079  -3.108  0.00  0.00    +0.005 A 
ATOM     35  C   UNL     1     -11.507  -2.703  -4.341  0.00  0.00    +0.000 A 
ATOM     36  C   UNL     1     -10.922  -3.944  -4.507  0.00  0.00    +0.000 A 
ATOM     37  C   UNL     1     -10.294  -4.560  -3.441  0.00  0.00    +0.000 A 
ATOM     38  C   UNL     1     -10.249  -3.934  -2.209  0.00  0.00    +0.005 A 
ENDBRANCH  32  33
ENDBRANCH  20  21
ENDBRANCH   1  20
TORSDOF 7
