REMARK  Name = ZINC38751997
REMARK  9 active torsions:
REMARK  status: ('A' for Active; 'I' for Inactive)
REMARK    1  A    between atoms: C_1  and  C_2
REMARK    2  A    between atoms: C_5  and  C_8
REMARK    3  A    between atoms: C_10  and  C_14
REMARK    4  A    between atoms: C_18  and  S_22
REMARK    5  A    between atoms: N_20  and  N_21
REMARK    6  A    between atoms: S_22  and  C_23
REMARK    7  A    between atoms: C_23  and  C_24
REMARK    8  A    between atoms: C_24  and  C_26
REMARK    9  A    between atoms: C_29  and  N_32
REMARK                            x       y       z     vdW  Elec       q    Type
REMARK                         _______ _______ _______ _____ _____    ______ ____
ROOT
ATOM      1  C   UNL     1      -1.156  -7.214   0.974  0.00  0.00    +0.185 C 
ATOM      2  N   UNL     1      -2.370  -6.656   0.322  0.00  0.00    -0.234 NA
ATOM      3  N   UNL     1      -3.314  -7.784   0.358  0.00  0.00    -0.228 NA
ATOM      4  C   UNL     1      -2.476  -8.977   0.102  0.00  0.00    +0.214 C 
ATOM      5  N   UNL     1      -1.097  -8.616   0.498  0.00  0.00    -0.197 NA
ATOM      6  H   UNL     1      -2.728  -5.868   0.840  0.00  0.00    +0.143 HD
ATOM      7  H   UNL     1      -4.025  -7.683  -0.351  0.00  0.00    +0.143 HD
ENDROOT
BRANCH   1  10
ATOM      8  C   UNL     1       0.061  -4.256  -0.021  0.00  0.00    +0.091 C 
ATOM      9  C   UNL     1       0.071  -5.030   1.081  0.00  0.00    +0.034 C 
ATOM     10  C   UNL     1       0.090  -6.445   0.530  0.00  0.00    +0.187 C 
ATOM     11  N   UNL     1       0.087  -6.239  -0.927  0.00  0.00    -0.176 NA
ATOM     12  N   UNL     1       0.065  -5.025  -1.142  0.00  0.00    -0.154 NA
BRANCH   8  17
ATOM     13  C   UNL     1      -0.018   1.503   0.010  0.00  0.00    +0.044 C 
ATOM     14  C   UNL     1       0.002  -0.004   0.002  0.00  0.00    -0.050 A 
ATOM     15  C   UNL     1       0.006  -0.686  -1.201  0.00  0.00    +0.004 A 
ATOM     16  C   UNL     1       0.025  -2.066  -1.215  0.00  0.00    +0.010 A 
ATOM     17  C   UNL     1       0.041  -2.772  -0.013  0.00  0.00    +0.002 A 
ATOM     18  C   UNL     1       0.037  -2.080   1.196  0.00  0.00    +0.010 A 
ATOM     19  C   UNL     1       0.023  -0.700   1.198  0.00  0.00    +0.004 A 
ENDBRANCH   8  17
ENDBRANCH   1  10
BRANCH   5  20
ATOM     20  N   UNL     1      -0.181  -8.748  -0.624  0.00  0.00    -0.264 NA
ATOM     21  H   UNL     1      -0.141  -9.702  -0.947  0.00  0.00    +0.137 HD
ATOM     22  H   UNL     1      -0.436  -8.122  -1.373  0.00  0.00    +0.137 HD
ENDBRANCH   5  20
BRANCH   4  23
ATOM     23  S   UNL     1      -3.062 -10.374   1.099  0.00  0.00    -0.116 S 
BRANCH  23  24
ATOM     24  C   UNL     1      -2.945  -9.775   2.807  0.00  0.00    +0.151 C 
BRANCH  24  25
ATOM     25  C   UNL     1      -3.408 -10.854   3.751  0.00  0.00    +0.173 C 
ATOM     26  O   UNL     1      -3.781 -11.922   3.315  0.00  0.00    -0.291 OA
BRANCH  25  27
ATOM     27  C   UNL     1      -3.409 -10.611   5.203  0.00  0.00    +0.018 A 
ATOM     28  C   UNL     1      -2.985  -9.379   5.709  0.00  0.00    +0.013 A 
ATOM     29  C   UNL     1      -2.988  -9.159   7.071  0.00  0.00    +0.033 A 
ATOM     30  C   UNL     1      -3.409 -10.155   7.935  0.00  0.00    +0.126 A 
ATOM     31  C   UNL     1      -3.829 -11.377   7.441  0.00  0.00    +0.033 A 
ATOM     32  C   UNL     1      -3.838 -11.610   6.082  0.00  0.00    +0.013 A 
BRANCH  30  33
ATOM     33  N   UNL     1      -3.408  -9.911   9.395  0.00  0.00    +0.056 N 
ATOM     34  O   UNL     1      -3.041  -8.844   9.829  0.00  0.00    -0.126 OA
ATOM     35  O   UNL     1      -3.775 -10.779  10.152  0.00  0.00    -0.126 OA
ENDBRANCH  30  33
ENDBRANCH  25  27
ENDBRANCH  24  25
ENDBRANCH  23  24
ENDBRANCH   4  23
TORSDOF 8
