REMARK  Name = ZINC12591758
REMARK  9 active torsions:
REMARK  status: ('A' for Active; 'I' for Inactive)
REMARK    1  A    between atoms: C_1  and  C_2
REMARK    2  A    between atoms: C_5  and  O_38
REMARK    3  A    between atoms: C_6  and  N_8
REMARK    4  A    between atoms: C_9  and  C_11
REMARK    5  A    between atoms: C_11  and  C_13
REMARK    6  A    between atoms: C_11  and  O_19
REMARK    7  A    between atoms: O_19  and  C_20
REMARK    8  A    between atoms: C_20  and  C_22
REMARK    9  A    between atoms: O_38  and  C_39
REMARK                            x       y       z     vdW  Elec       q    Type
REMARK                         _______ _______ _______ _____ _____    ______ ____
ROOT
ATOM      1  C   UNL     1       0.229   5.753   0.202  0.00  0.00    +0.292 C 
ENDROOT
BRANCH   1   2
ATOM      2  C   UNL     1       0.185   5.953  -1.291  0.00  0.00    +0.002 A 
ATOM      3  C   UNL     1      -0.507   5.061  -2.088  0.00  0.00    +0.008 A 
ATOM      4  C   UNL     1      -0.550   5.246  -3.457  0.00  0.00    +0.000 A 
ATOM      5  C   UNL     1       0.107   6.318  -4.030  0.00  0.00    +0.000 A 
ATOM      6  C   UNL     1       0.804   7.208  -3.234  0.00  0.00    +0.000 A 
ATOM      7  C   UNL     1       0.843   7.025  -1.864  0.00  0.00    +0.008 A 
ENDBRANCH   1   2
BRANCH   1   9
ATOM      8  N   UNL     1      -1.395   7.560   0.669  0.00  0.00    -0.279 N 
ATOM      9  C   UNL     1      -1.049   6.266   0.815  0.00  0.00    +0.263 C 
ATOM     10  O   UNL     1      -1.767   5.513   1.439  0.00  0.00    -0.271 OA
ATOM     11  H   UNL     1      -0.865   8.143   0.102  0.00  0.00    +0.155 HD
BRANCH   8  17
ATOM     12  C   UNL     1      -4.710   7.157   4.278  0.00  0.00    +0.044 C 
ATOM     13  C   UNL     1      -4.147   7.891   3.088  0.00  0.00    -0.048 A 
ATOM     14  C   UNL     1      -4.741   9.062   2.656  0.00  0.00    +0.007 A 
ATOM     15  C   UNL     1      -4.229   9.739   1.565  0.00  0.00    +0.048 A 
ATOM     16  C   UNL     1      -3.115   9.248   0.904  0.00  0.00    +0.141 A 
ATOM     17  C   UNL     1      -2.519   8.065   1.336  0.00  0.00    +0.076 A 
ATOM     18  C   UNL     1      -3.038   7.391   2.432  0.00  0.00    +0.030 A 
BRANCH  16  19
ATOM     19  O   UNL     1      -2.606   9.916  -0.165  0.00  0.00    -0.493 OA
ATOM     20  C   UNL     1      -3.269  11.122  -0.551  0.00  0.00    +0.277 C 
ENDBRANCH  16  19
ENDBRANCH   8  17
ENDBRANCH   1   9
BRANCH   1  21
ATOM     21  O   UNL     1       0.374   4.339   0.498  0.00  0.00    -0.444 OA
BRANCH  21  22
ATOM     22  C   UNL     1       1.629   3.862   0.603  0.00  0.00    +0.341 C 
ATOM     23  O   UNL     1       2.576   4.607   0.453  0.00  0.00    -0.245 OA
BRANCH  22  24
ATOM     24  C   UNL     1       1.854   2.432   0.903  0.00  0.00    +0.070 A 
ATOM     25  C   UNL     1       1.209   1.830   1.986  0.00  0.00    +0.016 A 
ATOM     26  C   UNL     1       1.417   0.493   2.266  0.00  0.00    +0.002 A 
ATOM     27  C   UNL     1       2.266  -0.267   1.480  0.00  0.00    +0.012 A 
ATOM     28  C   UNL     1       2.920   0.312   0.396  0.00  0.00    +0.034 A 
ATOM     29  C   UNL     1       2.716   1.670   0.101  0.00  0.00    +0.047 A 
ATOM     30  C   UNL     1       3.412   2.284  -1.052  0.00  0.00    +0.195 C 
ATOM     31  O   UNL     1       3.065   3.370  -1.472  0.00  0.00    -0.287 OA
ATOM     32  C   UNL     1       4.535   1.560  -1.686  0.00  0.00    +0.033 A 
ATOM     33  C   UNL     1       5.388   2.210  -2.571  0.00  0.00    +0.012 A 
ATOM     34  C   UNL     1       6.434   1.515  -3.155  0.00  0.00    +0.001 A 
ATOM     35  C   UNL     1       6.636   0.179  -2.864  0.00  0.00    +0.001 A 
ATOM     36  C   UNL     1       5.796  -0.484  -1.985  0.00  0.00    +0.012 A 
ATOM     37  C   UNL     1       4.741   0.199  -1.391  0.00  0.00    +0.033 A 
ATOM     38  C   UNL     1       3.832  -0.491  -0.449  0.00  0.00    +0.195 C 
ATOM     39  O   UNL     1       3.834  -1.704  -0.370  0.00  0.00    -0.287 OA
ENDBRANCH  22  24
ENDBRANCH  21  22
ENDBRANCH   1  21
TORSDOF 7
