REMARK  Name = ZINC24886923
REMARK  7 active torsions:
REMARK  status: ('A' for Active; 'I' for Inactive)
REMARK    1  A    between atoms: C_1  and  C_2
REMARK    2  A    between atoms: N_7  and  C_9
REMARK    3  A    between atoms: C_9  and  C_10
REMARK    4  A    between atoms: C_16  and  C_18
REMARK    5  A    between atoms: C_18  and  S_19
REMARK    6  A    between atoms: S_19  and  C_20
REMARK    7  A    between atoms: C_20  and  C_21
REMARK                            x       y       z     vdW  Elec       q    Type
REMARK                         _______ _______ _______ _____ _____    ______ ____
ROOT
ATOM      1  C   UNL     1       1.321  -3.966   2.518  0.00  0.00    +0.034 A 
ATOM      2  C   UNL     1       2.332  -4.755   2.078  0.00  0.00    +0.070 A 
ATOM      3  S   UNL     1       1.653  -6.375   2.398  0.00  0.00    -0.060 S 
ATOM      4  C   UNL     1       0.179  -5.886   3.047  0.00  0.00    +0.165 A 
ATOM      5  N   UNL     1       0.255  -4.573   3.005  0.00  0.00    -0.231 NA
ATOM      6  N   UNL     1      -0.862  -6.677   3.518  0.00  0.00    -0.264 N 
ATOM      7  C   UNL     1      -0.756  -8.020   3.486  0.00  0.00    +0.228 C 
ATOM      8  O   UNL     1       0.248  -8.539   3.046  0.00  0.00    -0.275 OA
ATOM      9  H   UNL     1      -1.665  -6.262   3.870  0.00  0.00    +0.157 HD
ENDROOT
BRANCH   1  10
ATOM     10  C   UNL     1       1.413  -2.463   2.461  0.00  0.00    -0.022 C 
BRANCH  10  16
ATOM     11  C   UNL     1      -0.019   1.526   0.010  0.00  0.00    +0.005 C 
ATOM     12  C   UNL     1       0.002  -0.004   0.002  0.00  0.00    -0.031 C 
ATOM     13  C   UNL     1       0.721  -0.499  -1.257  0.00  0.00    -0.001 C 
ATOM     14  C   UNL     1       0.805  -2.027  -1.217  0.00  0.00    -0.018 C 
ATOM     15  C   UNL     1       1.518  -2.460   0.066  0.00  0.00    -0.078 C 
ATOM     16  N   UNL     1       0.768  -1.979   1.233  0.00  0.00    +0.384 N 
ATOM     17  C   UNL     1       0.744  -0.512   1.240  0.00  0.00    -0.075 C 
ATOM     18  H   UNL     1      -0.177  -2.330   1.192  0.00  0.00    -0.081 HD
ENDBRANCH  10  16
ENDBRANCH   1  10
BRANCH   7  19
ATOM     19  C   UNL     1      -1.885  -8.877   3.997  0.00  0.00    +0.165 C 
BRANCH  19  20
ATOM     20  S   UNL     1      -1.443 -10.628   3.821  0.00  0.00    -0.144 S 
BRANCH  20  21
ATOM     21  C   UNL     1      -2.886 -11.513   4.471  0.00  0.00    +0.143 C 
BRANCH  21  22
ATOM     22  C   UNL     1      -2.647 -12.998   4.382  0.00  0.00    +0.121 A 
ATOM     23  N   UNL     1      -3.608 -13.855   4.812  0.00  0.00    -0.310 N 
ATOM     24  H   UNL     1      -4.436 -13.499   5.170  0.00  0.00    +0.170 HD
ATOM     25  C   UNL     1      -3.436 -15.189   4.751  0.00  0.00    +0.260 A 
ATOM     26  O   UNL     1      -4.308 -15.947   5.140  0.00  0.00    -0.267 OA
ATOM     27  C   UNL     1      -2.208 -15.702   4.218  0.00  0.00    +0.075 A 
ATOM     28  C   UNL     1      -1.807 -17.107   4.057  0.00  0.00    -0.023 A 
ATOM     29  C   UNL     1      -0.592 -17.335   3.529  0.00  0.00    -0.004 A 
ATOM     30  S   UNL     1       0.082 -15.720   3.214  0.00  0.00    -0.073 S 
ATOM     31  C   UNL     1      -1.277 -14.743   3.800  0.00  0.00    +0.116 A 
ATOM     32  N   UNL     1      -1.520 -13.437   3.887  0.00  0.00    -0.226 NA
ATOM     33  C   UNL     1      -0.288 -18.804   3.416  0.00  0.00    +0.043 C 
ATOM     34  C   UNL     1      -1.313 -19.485   4.349  0.00  0.00    +0.010 C 
ATOM     35  C   UNL     1      -2.463 -18.459   4.354  0.00  0.00    +0.037 C 
ENDBRANCH  21  22
ENDBRANCH  20  21
ENDBRANCH  19  20
ENDBRANCH   7  19
TORSDOF 6
