REMARK  Name = ZINC09109610
REMARK  5 active torsions:
REMARK  status: ('A' for Active; 'I' for Inactive)
REMARK    1  A    between atoms: C_1  and  C_2
REMARK    2  A    between atoms: N_23  and  C_26
REMARK    3  A    between atoms: C_29  and  N_34
REMARK    4  A    between atoms: C_31  and  O_32
REMARK    5  A    between atoms: O_32  and  C_33
REMARK                            x       y       z     vdW  Elec       q    Type
REMARK                         _______ _______ _______ _____ _____    ______ ____
ROOT
ATOM      1  C   UNL     1      -0.386   8.339   3.175  0.00  0.00    +0.046 C 
ATOM      2  C   UNL     1       0.539   7.622   2.225  0.00  0.00    -0.028 A 
ATOM      3  C   UNL     1       1.435   8.343   1.463  0.00  0.00    +0.025 A 
ATOM      4  C   UNL     1       2.288   7.694   0.587  0.00  0.00    +0.042 A 
ATOM      5  C   UNL     1       2.242   6.314   0.476  0.00  0.00    +0.024 A 
ATOM      6  C   UNL     1       1.349   5.592   1.236  0.00  0.00    -0.026 A 
ATOM      7  C   UNL     1       0.486   6.234   2.119  0.00  0.00    +0.039 A 
ATOM      8  N   UNL     1      -0.320   5.299   2.772  0.00  0.00    -0.286 N 
ATOM      9  C   UNL     1      -0.053   4.038   2.381  0.00  0.00    +0.212 C 
ATOM     10  O   UNL     1      -0.594   3.027   2.777  0.00  0.00    -0.277 OA
ATOM     11  C   UNL     1       1.046   4.125   1.357  0.00  0.00    +0.053 C 
ATOM     12  C   UNL     1       0.607   3.531   0.014  0.00  0.00    +0.089 C 
ATOM     13  C   UNL     1       1.208   2.099   0.002  0.00  0.00    +0.074 C 
ATOM     14  C   UNL     1       1.947   1.962   1.345  0.00  0.00    -0.054 C 
ATOM     15  C   UNL     1       3.414   3.802   1.006  0.00  0.00    -0.076 C 
ATOM     16  C   UNL     1       4.161   2.542   0.538  0.00  0.00    -0.020 C 
ATOM     17  C   UNL     1       3.345   1.355   1.096  0.00  0.00    -0.016 C 
ATOM     18  C   UNL     1      -0.014   1.208   0.009  0.00  0.00    +0.229 C 
ATOM     19  O   UNL     1       0.002  -0.004   0.002  0.00  0.00    -0.275 OA
ATOM     20  N   UNL     1      -1.117   1.966   0.017  0.00  0.00    -0.206 N 
ATOM     21  C   UNL     1      -0.884   3.284   0.027  0.00  0.00    +0.230 C 
ATOM     22  O   UNL     1      -1.737   4.146   0.038  0.00  0.00    -0.275 OA
ATOM     23 CL   UNL     1       3.413   8.607  -0.369  0.00  0.00    -0.084 Cl
ATOM     24  H   UNL     1      -0.994   5.530   3.431  0.00  0.00    +0.155 HD
ATOM     25  N   UNL     1       2.213   3.335   1.737  0.00  0.00    +0.395 N 
ATOM     26  H   UNL     1       2.371   3.399   2.750  0.00  0.00    -0.079 HD
ENDROOT
BRANCH  20  27
ATOM     27  C   UNL     1      -2.411   1.424   0.021  0.00  0.00    +0.086 A 
ATOM     28  C   UNL     1      -3.047   1.150   1.222  0.00  0.00    +0.030 A 
ATOM     29  C   UNL     1      -4.322   0.616   1.224  0.00  0.00    +0.035 A 
ATOM     30  C   UNL     1      -4.966   0.354   0.028  0.00  0.00    +0.130 A 
ATOM     31  C   UNL     1      -4.339   0.625  -1.173  0.00  0.00    +0.080 A 
ATOM     32  C   UNL     1      -3.062   1.165  -1.183  0.00  0.00    +0.144 A 
BRANCH  30  33
ATOM     33  N   UNL     1      -6.331  -0.218   0.036  0.00  0.00    +0.057 N 
ATOM     34  O   UNL     1      -6.886  -0.457   1.094  0.00  0.00    -0.126 OA
ATOM     35  O   UNL     1      -6.900  -0.450  -1.016  0.00  0.00    -0.126 OA
ENDBRANCH  30  33
BRANCH  32  36
ATOM     36  O   UNL     1      -2.446   1.437  -2.363  0.00  0.00    -0.493 OA
ATOM     37  C   UNL     1      -3.175   1.145  -3.558  0.00  0.00    +0.277 C 
ENDBRANCH  32  36
ENDBRANCH  20  27
TORSDOF 3
