REMARK  Name = ZINC29898251
REMARK  6 active torsions:
REMARK  status: ('A' for Active; 'I' for Inactive)
REMARK    1  A    between atoms: C_3  and  C_6
REMARK    2  A    between atoms: C_6  and  C_8
REMARK    3  A    between atoms: C_6  and  N_29
REMARK    4  A    between atoms: C_8  and  N_9
REMARK    5  A    between atoms: C_10  and  C_12
REMARK    6  A    between atoms: N_20  and  C_23
REMARK                            x       y       z     vdW  Elec       q    Type
REMARK                         _______ _______ _______ _____ _____    ______ ____
ROOT
ATOM      1  N   UNL     1      -0.468   3.231  -3.367  0.00  0.00    -0.312 N 
ATOM      2  C   UNL     1      -1.003   4.146  -4.199  0.00  0.00    +0.244 C 
ATOM      3  O   UNL     1      -1.735   3.792  -5.102  0.00  0.00    -0.270 OA
ATOM      4  H   UNL     1       0.195   3.552  -2.550  0.00  0.00    +0.149 HD
ENDROOT
BRANCH   2   5
ATOM      5  C   UNL     1      -0.698   5.583  -4.015  0.00  0.00    +0.037 A 
ATOM      6  C   UNL     1       0.143   5.988  -2.978  0.00  0.00    +0.014 A 
ATOM      7  C   UNL     1       0.434   7.329  -2.799  0.00  0.00    +0.014 A 
ATOM      8  C   UNL     1      -0.112   8.275  -3.652  0.00  0.00    +0.049 A 
ATOM      9  C   UNL     1      -0.963   7.872  -4.702  0.00  0.00    +0.050 A 
ATOM     10  C   UNL     1      -1.248   6.529  -4.883  0.00  0.00    +0.027 A 
ATOM     11  C   UNL     1      -1.358   9.113  -5.402  0.00  0.00    +0.254 C 
ATOM     12  O   UNL     1      -2.091   9.178  -6.368  0.00  0.00    -0.270 OA
ATOM     13  N   UNL     1      -0.770  10.156  -4.790  0.00  0.00    -0.231 N 
ATOM     14  C   UNL     1      -0.020   9.749  -3.751  0.00  0.00    +0.254 C 
ATOM     15  O   UNL     1       0.625  10.470  -3.017  0.00  0.00    -0.270 OA
BRANCH  13  16
ATOM     16  C   UNL     1      -0.926  11.553  -5.203  0.00  0.00    +0.085 C 
ATOM     17  C   UNL     1       0.442  12.134  -5.566  0.00  0.00    +0.023 C 
ATOM     18  C   UNL     1       0.279  13.593  -5.997  0.00  0.00    +0.002 C 
ATOM     19  C   UNL     1      -0.328  14.399  -4.847  0.00  0.00    +0.000 C 
ATOM     20  C   UNL     1      -1.696  13.819  -4.484  0.00  0.00    +0.002 C 
ATOM     21  C   UNL     1      -1.533  12.360  -4.053  0.00  0.00    +0.023 C 
ENDBRANCH  13  16
ENDBRANCH   2   5
BRANCH   1  22
ATOM     22  C   UNL     1      -0.770   1.809  -3.549  0.00  0.00    +0.097 C 
BRANCH  22  23
ATOM     23  C   UNL     1      -0.146   1.005  -2.407  0.00  0.00    +0.016 C 
BRANCH  23  24
ATOM     24  N   UNL     1       1.289   1.308  -2.321  0.00  0.00    +0.387 N 
ATOM     25  C   UNL     1       1.930   0.521  -1.260  0.00  0.00    -0.078 C 
ATOM     26  C   UNL     1       3.385   0.967  -1.102  0.00  0.00    -0.019 C 
ATOM     27  C   UNL     1       4.123   0.765  -2.429  0.00  0.00    -0.004 C 
ATOM     28  C   UNL     1       3.406   1.557  -3.526  0.00  0.00    -0.019 C 
ATOM     29  C   UNL     1       1.950   1.094  -3.614  0.00  0.00    -0.078 C 
ATOM     30  H   UNL     1       1.396   2.372  -2.062  0.00  0.00    -0.081 HD
ENDBRANCH  23  24
BRANCH  23  33
ATOM     31  C   UNL     1      -2.116   1.371   0.686  0.00  0.00    +0.041 A 
ATOM     32  C   UNL     1      -1.783   0.667  -0.494  0.00  0.00    +0.043 A 
ATOM     33  C   UNL     1      -0.816   1.373  -1.109  0.00  0.00    +0.093 A 
ATOM     34  O   UNL     1      -0.554   2.465  -0.372  0.00  0.00    -0.469 OA
ATOM     35  C   UNL     1      -1.340   2.469   0.718  0.00  0.00    +0.195 A 
ENDBRANCH  23  33
ENDBRANCH  22  23
ENDBRANCH   1  22
TORSDOF 6
