REMARK  Name = ZINC01194143
REMARK  9 active torsions:
REMARK  status: ('A' for Active; 'I' for Inactive)
REMARK    1  A    between atoms: C_1  and  C_2
REMARK    2  A    between atoms: C_2  and  C_3
REMARK    3  A    between atoms: C_8  and  N_9
REMARK    4  A    between atoms: N_9  and  C_10
REMARK    5  A    between atoms: N_9  and  S_21
REMARK    6  A    between atoms: C_10  and  C_11
REMARK    7  A    between atoms: N_13  and  C_14
REMARK    8  A    between atoms: S_21  and  C_24
REMARK    9  A    between atoms: C_27  and  C_30
REMARK                            x       y       z     vdW  Elec       q    Type
REMARK                         _______ _______ _______ _____ _____    ______ ____
ROOT
ATOM      1  N   UNL     1       0.027   0.473  -0.773  0.00  0.00    -0.194 N 
ENDROOT
BRANCH   1   7
ATOM      2  C   UNL     1       1.136  -0.799  -2.498  0.00  0.00    -0.025 A 
ATOM      3  C   UNL     1       2.244  -1.489  -2.950  0.00  0.00    +0.005 A 
ATOM      4  C   UNL     1       3.362  -1.608  -2.145  0.00  0.00    +0.000 A 
ATOM      5  C   UNL     1       3.376  -1.036  -0.886  0.00  0.00    +0.002 A 
ATOM      6  C   UNL     1       2.271  -0.345  -0.428  0.00  0.00    +0.025 A 
ATOM      7  C   UNL     1       1.146  -0.224  -1.234  0.00  0.00    +0.055 A 
BRANCH   2   9
ATOM      8  C   UNL     1      -0.425   0.802  -3.568  0.00  0.00    +0.009 C 
ATOM      9  C   UNL     1      -0.084  -0.676  -3.373  0.00  0.00    +0.033 C 
ENDBRANCH   2   9
ENDBRANCH   1   7
BRANCH   1  10
ATOM     10  S   UNL     1      -1.478  -0.206  -0.891  0.00  0.00    +0.075 S 
ATOM     11  O   UNL     1      -2.218   0.248   0.234  0.00  0.00    -0.150 OA
ATOM     12  O   UNL     1      -1.916   0.005  -2.226  0.00  0.00    -0.150 OA
BRANCH  10  13
ATOM     13  C   UNL     1      -1.282  -1.946  -0.695  0.00  0.00    +0.109 A 
ATOM     14  C   UNL     1      -0.534  -2.664  -1.609  0.00  0.00    +0.029 A 
ATOM     15  C   UNL     1      -0.376  -4.029  -1.452  0.00  0.00    +0.005 A 
ATOM     16  C   UNL     1      -0.973  -4.676  -0.387  0.00  0.00    -0.050 A 
ATOM     17  C   UNL     1      -1.724  -3.958   0.525  0.00  0.00    +0.005 A 
ATOM     18  C   UNL     1      -1.879  -2.593   0.371  0.00  0.00    +0.029 A 
ATOM     19  C   UNL     1      -0.805  -6.164  -0.219  0.00  0.00    +0.044 C 
ENDBRANCH  10  13
ENDBRANCH   1  10
BRANCH   1  20
ATOM     20  C   UNL     1       0.185   1.806  -0.187  0.00  0.00    +0.227 C 
BRANCH  20  21
ATOM     21  C   UNL     1       0.769   2.742  -1.215  0.00  0.00    +0.236 C 
ATOM     22  O   UNL     1       1.075   2.323  -2.311  0.00  0.00    -0.274 OA
ATOM     23  N   UNL     1       0.950   4.043  -0.916  0.00  0.00    -0.283 N 
ATOM     24  H   UNL     1       0.786   4.361  -0.014  0.00  0.00    +0.155 HD
BRANCH  23  25
ATOM     25  C   UNL     1       1.375   4.936  -1.906  0.00  0.00    +0.047 A 
ATOM     26  C   UNL     1       1.384   4.545  -3.239  0.00  0.00    +0.024 A 
ATOM     27  C   UNL     1       1.800   5.429  -4.214  0.00  0.00    +0.002 A 
ATOM     28  C   UNL     1       2.217   6.701  -3.865  0.00  0.00    +0.001 A 
ATOM     29  C   UNL     1       2.213   7.093  -2.539  0.00  0.00    +0.017 A 
ATOM     30  C   UNL     1       1.794   6.214  -1.558  0.00  0.00    +0.039 A 
ATOM     31 BR   UNL     1       1.791   6.750   0.255  0.00  0.00    -0.048 Br
ENDBRANCH  23  25
ENDBRANCH  20  21
ENDBRANCH   1  20
TORSDOF 7
