REMARK  Name = ZINC37602536
REMARK  9 active torsions:
REMARK  status: ('A' for Active; 'I' for Inactive)
REMARK    1  A    between atoms: C_1  and  C_2
REMARK    2  A    between atoms: C_2  and  C_3
REMARK    3  A    between atoms: C_11  and  O_23
REMARK    4  A    between atoms: C_14  and  C_16
REMARK    5  A    between atoms: O_23  and  C_24
REMARK    6  A    between atoms: C_24  and  C_25
REMARK    7  A    between atoms: C_27  and  C_30
REMARK    8  A    between atoms: N_32  and  C_33
REMARK    9  A    between atoms: C_33  and  C_34
REMARK                            x       y       z     vdW  Elec       q    Type
REMARK                         _______ _______ _______ _____ _____    ______ ____
ROOT
ATOM      1  C   UNL     1      -1.879  -0.491  -0.944  0.00  0.00    +0.216 C 
ATOM      2  O   UNL     1      -2.898   0.157  -0.828  0.00  0.00    -0.276 OA
ATOM      3  N   UNL     1      -1.853  -1.781  -0.554  0.00  0.00    -0.290 N 
ATOM      4  C   UNL     1      -0.673  -2.628  -0.790  0.00  0.00    +0.113 C 
ATOM      5  C   UNL     1      -0.101  -3.025   0.570  0.00  0.00    +0.054 C 
ATOM      6  C   UNL     1      -1.190  -3.513   1.488  0.00  0.00    -0.040 A 
ATOM      7  C   UNL     1      -0.813  -4.296   2.574  0.00  0.00    +0.007 A 
ATOM      8  C   UNL     1      -1.756  -4.769   3.460  0.00  0.00    +0.046 A 
ATOM      9  C   UNL     1      -3.096  -4.461   3.270  0.00  0.00    +0.121 A 
ATOM     10  C   UNL     1      -3.472  -3.685   2.187  0.00  0.00    +0.051 A 
ATOM     11  C   UNL     1      -2.520  -3.215   1.294  0.00  0.00    -0.016 A 
ATOM     12  C   UNL     1      -2.998  -2.395   0.127  0.00  0.00    +0.137 C 
ENDROOT
BRANCH  12  13
ATOM     13  C   UNL     1      -3.926  -1.315   0.621  0.00  0.00    -0.020 A 
ATOM     14  C   UNL     1      -3.470  -0.370   1.520  0.00  0.00    +0.006 A 
ATOM     15  C   UNL     1      -4.320   0.621   1.974  0.00  0.00    +0.003 A 
ATOM     16  C   UNL     1      -5.628   0.667   1.529  0.00  0.00    +0.038 A 
ATOM     17  C   UNL     1      -6.086  -0.279   0.628  0.00  0.00    +0.124 A 
ATOM     18  C   UNL     1      -5.232  -1.268   0.170  0.00  0.00    +0.044 A 
ATOM     19  F   UNL     1      -7.364  -0.235   0.193  0.00  0.00    -0.205 F 
ENDBRANCH  12  13
BRANCH   1  21
ATOM     20  C   UNL     1      -0.940   1.605  -1.879  0.00  0.00    +0.013 C 
ATOM     21  C   UNL     1      -0.642   0.147  -1.522  0.00  0.00    +0.092 C 
ENDBRANCH   1  21
BRANCH   9  22
ATOM     22  O   UNL     1      -4.033  -4.919   4.142  0.00  0.00    -0.485 OA
BRANCH  22  23
ATOM     23  C   UNL     1      -3.569  -5.714   5.234  0.00  0.00    +0.291 C 
BRANCH  23  24
ATOM     24  C   UNL     1      -4.740  -6.128   6.087  0.00  0.00    +0.116 A 
ATOM     25  N   UNL     1      -5.477  -7.200   5.978  0.00  0.00    -0.236 NA
ATOM     26  C   UNL     1      -6.477  -7.375   6.848  0.00  0.00    +0.133 A 
ATOM     27  C   UNL     1      -6.634  -6.393   7.789  0.00  0.00    +0.080 A 
ATOM     28  S   UNL     1      -5.398  -5.322   7.405  0.00  0.00    -0.076 S 
BRANCH  26  29
ATOM     29  C   UNL     1      -7.357  -8.555   6.797  0.00  0.00    +0.263 C 
ATOM     30  O   UNL     1      -8.257  -8.678   7.606  0.00  0.00    -0.269 OA
ATOM     31  N   UNL     1      -7.167  -9.497   5.853  0.00  0.00    -0.303 N 
ATOM     32  H   UNL     1      -6.449  -9.399   5.207  0.00  0.00    +0.150 HD
BRANCH  31  33
ATOM     33  C   UNL     1      -8.043 -10.671   5.802  0.00  0.00    +0.179 C 
BRANCH  33  34
ATOM     34  C   UNL     1      -7.620 -11.564   4.664  0.00  0.00    +0.122 A 
ATOM     35  C   UNL     1      -6.728 -12.567   4.741  0.00  0.00    +0.046 A 
ATOM     36  C   UNL     1      -6.636 -13.134   3.449  0.00  0.00    +0.041 A 
ATOM     37  C   UNL     1      -7.478 -12.443   2.659  0.00  0.00    +0.195 A 
ATOM     38  O   UNL     1      -8.076 -11.497   3.402  0.00  0.00    -0.466 OA
ENDBRANCH  33  34
ENDBRANCH  31  33
ENDBRANCH  26  29
ENDBRANCH  23  24
ENDBRANCH  22  23
ENDBRANCH   9  22
TORSDOF 8
