REMARK  Name = ZINC36353957
REMARK  7 active torsions:
REMARK  status: ('A' for Active; 'I' for Inactive)
REMARK    1  A    between atoms: C_6  and  N_7
REMARK    2  A    between atoms: C_8  and  C_10
REMARK    3  A    between atoms: C_16  and  C_18
REMARK    4  A    between atoms: C_24  and  C_25
REMARK    5  A    between atoms: C_25  and  C_27
REMARK    6  A    between atoms: C_25  and  N_30
REMARK    7  A    between atoms: C_34  and  C_36
REMARK                            x       y       z     vdW  Elec       q    Type
REMARK                         _______ _______ _______ _____ _____    ______ ____
ROOT
ATOM      1  C   UNL     1      -0.009   1.385   0.013  0.00  0.00    +0.024 A 
ATOM      2  C   UNL     1       1.161   2.089   0.013  0.00  0.00    +0.012 A 
ATOM      3  C   UNL     1       2.381   1.409   0.009  0.00  0.00    +0.002 A 
ATOM      4  C   UNL     1       2.404   0.003   0.005  0.00  0.00    +0.048 A 
ATOM      5  C   UNL     1       1.204  -0.699   0.006  0.00  0.00    +0.049 A 
ATOM      6  C   UNL     1       0.005  -0.009   0.009  0.00  0.00    +0.035 A 
ATOM      7  N   UNL     1       3.726  -0.382   0.002  0.00  0.00    -0.360 N 
ATOM      8  H   UNL     1       4.039  -1.300  -0.002  0.00  0.00    +0.165 HD
ATOM      9  C   UNL     1       4.533   0.724   0.003  0.00  0.00    +0.086 A 
ATOM     10  C   UNL     1       3.783   1.837   0.007  0.00  0.00    -0.025 A 
ENDROOT
BRANCH   6  11
ATOM     11  N   UNL     1      -1.204  -0.715   0.010  0.00  0.00    -0.285 N 
ATOM     12  C   UNL     1      -1.305  -1.877  -0.665  0.00  0.00    +0.221 C 
ATOM     13  O   UNL     1      -0.328  -2.353  -1.203  0.00  0.00    -0.275 OA
ATOM     14  H   UNL     1      -1.968  -0.368   0.496  0.00  0.00    +0.155 HD
BRANCH  12  15
ATOM     15  C   UNL     1      -2.633  -2.586  -0.751  0.00  0.00    +0.093 C 
ATOM     16  C   UNL     1      -3.116  -2.944   0.656  0.00  0.00    +0.040 C 
ATOM     17  C   UNL     1      -4.292  -3.874   0.578  0.00  0.00    -0.030 C 
ATOM     18  C   UNL     1      -4.614  -4.548  -0.480  0.00  0.00    -0.030 C 
ATOM     19  C   UNL     1      -3.862  -4.487  -1.777  0.00  0.00    +0.042 C 
ATOM     20  C   UNL     1      -2.475  -3.880  -1.559  0.00  0.00    +0.118 C 
BRANCH  20  21
ATOM     21  C   UNL     1      -1.838  -3.572  -2.889  0.00  0.00    +0.360 C 
ATOM     22  O   UNL     1      -1.000  -4.326  -3.353  0.00  0.00    -0.246 OA
ATOM     23  O   UNL     1      -2.160  -2.568  -3.502  0.00  0.00    -0.246 OA
ENDBRANCH  20  21
ENDBRANCH  12  15
ENDBRANCH   6  11
BRANCH  10  24
ATOM     24  C   UNL     1       4.287   3.257   0.009  0.00  0.00    +0.081 C 
BRANCH  24  25
ATOM     25  N   UNL     1       5.632   3.300  -0.579  0.00  0.00    +0.399 N 
ATOM     26  C   UNL     1       6.122   4.695  -0.598  0.00  0.00    -0.076 C 
ATOM     27  C   UNL     1       6.934   4.811  -1.912  0.00  0.00    -0.020 C 
ATOM     28  C   UNL     1       6.093   3.936  -2.878  0.00  0.00    -0.008 C 
ATOM     29  C   UNL     1       5.584   2.801  -1.965  0.00  0.00    +0.020 C 
ATOM     30  H   UNL     1       6.260   2.729  -0.033  0.00  0.00    -0.079 HD
BRANCH  29  31
ATOM     31  C   UNL     1       6.474   1.592  -2.105  0.00  0.00    +0.197 C 
ATOM     32  O   UNL     1       7.093   1.180  -1.147  0.00  0.00    -0.278 OA
ATOM     33  N   UNL     1       6.582   0.970  -3.296  0.00  0.00    -0.331 N 
ATOM     34  H   UNL     1       6.088   1.299  -4.062  0.00  0.00    +0.145 HD
ATOM     35  H   UNL     1       7.155   0.192  -3.386  0.00  0.00    +0.145 HD
ENDBRANCH  29  31
ENDBRANCH  24  25
BRANCH  24  36
ATOM     36  C   UNL     1       4.341   3.769   1.425  0.00  0.00    +0.347 C 
ATOM     37  O   UNL     1       5.418   3.963   1.963  0.00  0.00    -0.248 OA
ATOM     38  O   UNL     1       3.307   3.989   2.034  0.00  0.00    -0.248 OA
ENDBRANCH  24  36
ENDBRANCH  10  24
TORSDOF 7
