REMARK  Name = ZINC09951067
REMARK  8 active torsions:
REMARK  status: ('A' for Active; 'I' for Inactive)
REMARK    1  A    between atoms: C_1  and  C_2
REMARK    2  A    between atoms: C_2  and  C_4
REMARK    3  A    between atoms: C_2  and  S_17
REMARK    4  A    between atoms: N_6  and  C_7
REMARK    5  A    between atoms: C_7  and  C_8
REMARK    6  A    between atoms: S_17  and  C_18
REMARK    7  A    between atoms: C_21  and  C_29
REMARK    8  A    between atoms: N_22  and  C_23
REMARK                            x       y       z     vdW  Elec       q    Type
REMARK                         _______ _______ _______ _____ _____    ______ ____
ROOT
ATOM      1  S   UNL     1       9.743  -2.489   1.225  0.00  0.00    -0.074 S 
ENDROOT
BRANCH   1   2
ATOM      2  C   UNL     1      10.615  -3.005  -0.216  0.00  0.00    +0.193 A 
ATOM      3  N   UNL     1      10.252  -2.798  -1.462  0.00  0.00    -0.122 NA
ATOM      4  N   UNL     1      11.117  -3.307  -2.265  0.00  0.00    -0.125 NA
ATOM      5  C   UNL     1      12.087  -3.872  -1.581  0.00  0.00    +0.201 A 
ATOM      6  N   UNL     1      11.797  -3.690  -0.246  0.00  0.00    -0.297 N 
BRANCH   6   7
ATOM      7  C   UNL     1      12.590  -4.140   0.901  0.00  0.00    +0.091 C 
ATOM      8  C   UNL     1      11.752  -5.093   1.757  0.00  0.00    +0.025 C 
ATOM      9  C   UNL     1      12.579  -5.562   2.955  0.00  0.00    +0.002 C 
ATOM     10  C   UNL     1      12.993  -4.352   3.795  0.00  0.00    +0.000 C 
ATOM     11  C   UNL     1      13.831  -3.400   2.939  0.00  0.00    +0.002 C 
ATOM     12  C   UNL     1      13.003  -2.930   1.741  0.00  0.00    +0.025 C 
ENDBRANCH   6   7
BRANCH   5  13
ATOM     13  C   UNL     1      13.262  -4.561  -2.135  0.00  0.00    +0.172 A 
ATOM     14  C   UNL     1      13.697  -4.491  -3.425  0.00  0.00    +0.053 A 
ATOM     15  C   UNL     1      14.846  -5.301  -3.510  0.00  0.00    +0.042 A 
ATOM     16  C   UNL     1      15.055  -5.821  -2.284  0.00  0.00    +0.196 A 
ATOM     17  O   UNL     1      14.100  -5.369  -1.455  0.00  0.00    -0.460 OA
ENDBRANCH   5  13
ENDBRANCH   1   2
BRANCH   1  19
ATOM     18  C   UNL     1       8.809  -0.436  -0.316  0.00  0.00    +0.029 C 
ATOM     19  C   UNL     1       8.326  -1.665   0.457  0.00  0.00    +0.137 C 
BRANCH  19  20
ATOM     20  C   UNL     1       7.355  -1.236   1.526  0.00  0.00    +0.226 C 
ATOM     21  O   UNL     1       7.746  -1.037   2.657  0.00  0.00    -0.275 OA
ATOM     22  N   UNL     1       6.051  -1.073   1.226  0.00  0.00    -0.310 N 
ATOM     23  H   UNL     1       5.696  -1.253   0.201  0.00  0.00    +0.149 HD
BRANCH  22  24
ATOM     24  C   UNL     1       5.107  -0.655   2.265  0.00  0.00    +0.139 C 
BRANCH  24  25
ATOM     25  C   UNL     1       3.725  -0.548   1.674  0.00  0.00    -0.027 A 
ATOM     26  C   UNL     1       2.885  -1.646   1.677  0.00  0.00    +0.009 A 
ATOM     27  C   UNL     1       1.617  -1.553   1.135  0.00  0.00    +0.050 A 
ATOM     28  C   UNL     1       1.183  -0.356   0.589  0.00  0.00    +0.166 A 
ATOM     29  C   UNL     1       2.028   0.751   0.586  0.00  0.00    +0.167 A 
ATOM     30  C   UNL     1       3.298   0.650   1.131  0.00  0.00    +0.054 A 
ATOM     31  O   UNL     1       1.376   1.797  -0.001  0.00  0.00    -0.453 OA
ATOM     32  C   UNL     1      -0.018   1.436   0.010  0.00  0.00    +0.466 C 
ATOM     33  O   UNL     1       0.002  -0.004   0.002  0.00  0.00    -0.453 OA
ENDBRANCH  24  25
ENDBRANCH  22  24
ENDBRANCH  19  20
ENDBRANCH   1  19
TORSDOF 7
