REMARK  Name = ZINC34830420
REMARK  6 active torsions:
REMARK  status: ('A' for Active; 'I' for Inactive)
REMARK    1  A    between atoms: C_1  and  C_2
REMARK    2  A    between atoms: C_7  and  C_8
REMARK    3  A    between atoms: N_17  and  C_18
REMARK    4  A    between atoms: C_18  and  C_20
REMARK    5  A    between atoms: C_18  and  C_21
REMARK    6  A    between atoms: C_30  and  C_32
REMARK                            x       y       z     vdW  Elec       q    Type
REMARK                         _______ _______ _______ _____ _____    ______ ____
ROOT
ATOM      1  C   UNL     1      -0.661  -2.278   2.483  0.00  0.00    +0.018 C 
ATOM      2  C   UNL     1      -0.715  -3.438   1.487  0.00  0.00    -0.004 C 
ENDROOT
BRANCH   1   3
ATOM      3  C   UNL     1      -1.336  -2.688   3.767  0.00  0.00    +0.202 C 
ATOM      4  O   UNL     1      -0.673  -2.888   4.763  0.00  0.00    -0.277 OA
ATOM      5  N   UNL     1      -2.675  -2.832   3.809  0.00  0.00    -0.301 N 
ATOM      6  C   UNL     1      -3.352  -3.132   5.022  0.00  0.00    +0.109 C 
ATOM      7  C   UNL     1      -3.390  -4.652   5.388  0.00  0.00    +0.038 C 
ATOM      8  C   UNL     1      -3.586  -5.445   4.055  0.00  0.00    +0.109 C 
ATOM      9  N   UNL     1      -4.462  -4.828   3.121  0.00  0.00    -0.296 N 
ATOM     10  C   UNL     1      -3.839  -4.000   2.056  0.00  0.00    +0.127 C 
ATOM     11  C   UNL     1      -3.510  -2.677   2.590  0.00  0.00    +0.126 C 
ATOM     12  C   UNL     1      -5.798  -4.987   3.198  0.00  0.00    +0.247 C 
ATOM     13  O   UNL     1      -6.288  -5.558   4.152  0.00  0.00    -0.270 OA
BRANCH  12  14
ATOM     14  C   UNL     1      -6.667  -4.465   2.122  0.00  0.00    +0.040 A 
ATOM     15  C   UNL     1      -7.759  -5.214   1.679  0.00  0.00    +0.013 A 
ATOM     16  C   UNL     1      -8.567  -4.723   0.675  0.00  0.00    +0.004 A 
ATOM     17  C   UNL     1      -8.300  -3.490   0.106  0.00  0.00    +0.038 A 
ATOM     18  C   UNL     1      -7.218  -2.741   0.541  0.00  0.00    +0.124 A 
ATOM     19  C   UNL     1      -6.404  -3.220   1.550  0.00  0.00    +0.051 A 
ATOM     20  F   UNL     1      -6.962  -1.539  -0.019  0.00  0.00    -0.205 F 
ENDBRANCH  12  14
ENDBRANCH   1   3
BRANCH   1  29
ATOM     21  C   UNL     1       0.785  -0.833   3.728  0.00  0.00    -0.005 C 
ATOM     22  C   UNL     1       2.241  -0.548   4.083  0.00  0.00    -0.047 A 
ATOM     23  C   UNL     1       2.686   0.642   4.652  0.00  0.00    +0.010 A 
ATOM     24  C   UNL     1       4.000   0.809   4.932  0.00  0.00    +0.045 A 
ATOM     25  S   UNL     1       4.693  -0.747   4.391  0.00  0.00    -0.101 S 
ATOM     26  C   UNL     1       3.189  -1.498   3.839  0.00  0.00    -0.010 A 
ATOM     27  C   UNL     1       2.958  -2.848   3.243  0.00  0.00    +0.024 C 
ATOM     28  C   UNL     1       1.443  -3.114   3.271  0.00  0.00    -0.071 C 
ATOM     29  N   UNL     1       0.740  -1.931   2.755  0.00  0.00    +0.395 N 
ATOM     30  H   UNL     1       1.180  -1.633   1.897  0.00  0.00    -0.079 HD
BRANCH  21  37
ATOM     31  C   UNL     1      -0.332   1.203   5.446  0.00  0.00    +0.044 C 
ATOM     32  C   UNL     1      -0.374   1.374   3.950  0.00  0.00    -0.049 A 
ATOM     33  C   UNL     1      -0.941   2.508   3.399  0.00  0.00    +0.003 A 
ATOM     34  C   UNL     1      -0.979   2.665   2.026  0.00  0.00    +0.000 A 
ATOM     35  C   UNL     1      -0.449   1.688   1.204  0.00  0.00    +0.000 A 
ATOM     36  C   UNL     1       0.119   0.555   1.754  0.00  0.00    +0.002 A 
ATOM     37  C   UNL     1       0.161   0.400   3.128  0.00  0.00    -0.054 A 
ENDBRANCH  21  37
ENDBRANCH   1  29
TORSDOF 4
