REMARK  Name = ZINC36228870
REMARK  8 active torsions:
REMARK  status: ('A' for Active; 'I' for Inactive)
REMARK    1  A    between atoms: C_1  and  C_2
REMARK    2  A    between atoms: C_11  and  N_32
REMARK    3  A    between atoms: C_13  and  S_15
REMARK    4  A    between atoms: S_15  and  C_16
REMARK    5  A    between atoms: C_16  and  C_17
REMARK    6  A    between atoms: N_19  and  C_20
REMARK    7  A    between atoms: C_25  and  C_26
REMARK    8  A    between atoms: N_28  and  C_29
REMARK                            x       y       z     vdW  Elec       q    Type
REMARK                         _______ _______ _______ _____ _____    ______ ____
ROOT
ATOM      1  S   UNL     1       2.763  -7.977  -0.035  0.00  0.00    -0.077 S 
ENDROOT
BRANCH   1  13
ATOM      2  C   UNL     1      -2.101   0.844   1.555  0.00  0.00    +0.008 C 
ATOM      3  C   UNL     1      -1.642  -0.540   1.090  0.00  0.00    -0.009 C 
ATOM      4  C   UNL     1      -0.545  -0.389   0.033  0.00  0.00    +0.008 C 
ATOM      5  C   UNL     1      -0.257  -1.745  -0.612  0.00  0.00    +0.037 C 
ATOM      6  C   UNL     1       0.029  -2.765   0.487  0.00  0.00    -0.025 A 
ATOM      7  C   UNL     1      -0.355  -2.528   1.761  0.00  0.00    -0.004 A 
ATOM      8  S   UNL     1       0.170  -3.953   2.681  0.00  0.00    -0.073 S 
ATOM      9  C   UNL     1       0.904  -4.864   1.361  0.00  0.00    +0.115 A 
ATOM     10  C   UNL     1       0.715  -4.023   0.235  0.00  0.00    +0.051 A 
ATOM     11  C   UNL     1       1.213  -4.494  -1.014  0.00  0.00    +0.129 A 
ATOM     12  N   UNL     1       1.808  -5.684  -0.993  0.00  0.00    -0.207 NA
ATOM     13  C   UNL     1       1.951  -6.419   0.100  0.00  0.00    +0.191 A 
ATOM     14  N   UNL     1       1.506  -6.035   1.299  0.00  0.00    -0.214 NA
ATOM     15  C   UNL     1      -1.075  -1.323   2.283  0.00  0.00    +0.046 C 
BRANCH  11  16
ATOM     16  N   UNL     1       1.085  -3.759  -2.179  0.00  0.00    -0.343 N 
ATOM     17  H   UNL     1       1.635  -3.971  -2.949  0.00  0.00    +0.144 HD
ATOM     18  H   UNL     1       0.445  -3.032  -2.225  0.00  0.00    +0.144 HD
ENDBRANCH  11  16
ENDBRANCH   1  13
BRANCH   1  19
ATOM     19  C   UNL     1       3.191  -8.098  -1.794  0.00  0.00    +0.173 C 
BRANCH  19  20
ATOM     20  C   UNL     1       3.901  -9.402  -2.049  0.00  0.00    +0.228 C 
ATOM     21  O   UNL     1       4.099 -10.174  -1.135  0.00  0.00    -0.275 OA
ATOM     22  N   UNL     1       4.315  -9.711  -3.294  0.00  0.00    -0.284 N 
ATOM     23  H   UNL     1       4.228  -9.062  -4.009  0.00  0.00    +0.155 HD
BRANCH  22  24
ATOM     24  C   UNL     1       4.869 -10.963  -3.553  0.00  0.00    +0.046 A 
ATOM     25  C   UNL     1       5.685 -11.573  -2.611  0.00  0.00    +0.024 A 
ATOM     26  C   UNL     1       6.233 -12.813  -2.870  0.00  0.00    +0.002 A 
ATOM     27  C   UNL     1       5.974 -13.458  -4.068  0.00  0.00    +0.001 A 
ATOM     28  C   UNL     1       5.166 -12.867  -5.015  0.00  0.00    +0.015 A 
ATOM     29  C   UNL     1       4.600 -11.615  -4.765  0.00  0.00    +0.058 A 
BRANCH  29  30
ATOM     30  C   UNL     1       3.729 -10.980  -5.772  0.00  0.00    +0.246 C 
ATOM     31  O   UNL     1       3.169  -9.931  -5.517  0.00  0.00    -0.270 OA
ATOM     32  N   UNL     1       3.553 -11.563  -6.975  0.00  0.00    -0.308 N 
ATOM     33  H   UNL     1       3.999 -12.400  -7.178  0.00  0.00    +0.149 HD
BRANCH  32  34
ATOM     34  C   UNL     1       2.688 -10.932  -7.975  0.00  0.00    +0.073 C 
ATOM     35  C   UNL     1       1.723 -11.836  -8.745  0.00  0.00    +0.024 C 
ATOM     36  C   UNL     1       2.954 -11.258  -9.446  0.00  0.00    +0.024 C 
ENDBRANCH  32  34
ENDBRANCH  29  30
ENDBRANCH  22  24
ENDBRANCH  19  20
ENDBRANCH   1  19
TORSDOF 7
