REMARK  Name = ZINC12833775
REMARK  8 active torsions:
REMARK  status: ('A' for Active; 'I' for Inactive)
REMARK    1  A    between atoms: C_1  and  C_2
REMARK    2  A    between atoms: C_14  and  S_18
REMARK    3  A    between atoms: S_18  and  C_19
REMARK    4  A    between atoms: C_19  and  C_20
REMARK    5  A    between atoms: C_25  and  C_28
REMARK    6  A    between atoms: C_28  and  C_29
REMARK    7  A    between atoms: C_28  and  C_30
REMARK    8  A    between atoms: C_28  and  C_31
REMARK                            x       y       z     vdW  Elec       q    Type
REMARK                         _______ _______ _______ _____ _____    ______ ____
ROOT
ATOM      1  C   UNL     1       4.336  -1.829 -10.104  0.00  0.00    +0.008 C 
ATOM      2  C   UNL     1       3.614  -0.974  -9.060  0.00  0.00    -0.009 C 
ATOM      3  C   UNL     1       3.349  -1.808  -7.803  0.00  0.00    +0.008 C 
ATOM      4  C   UNL     1       2.860  -0.903  -6.671  0.00  0.00    +0.037 C 
ATOM      5  C   UNL     1       1.673  -0.085  -7.174  0.00  0.00    -0.024 A 
ATOM      6  C   UNL     1       1.456   0.064  -8.501  0.00  0.00    -0.004 A 
ATOM      7  S   UNL     1      -0.002   1.068  -8.605  0.00  0.00    -0.073 S 
ATOM      8  C   UNL     1      -0.288   1.267  -6.863  0.00  0.00    +0.114 A 
ATOM      9  C   UNL     1       0.765   0.543  -6.284  0.00  0.00    +0.056 A 
ATOM     10  C   UNL     1       0.775   0.539  -4.805  0.00  0.00    +0.173 A 
ATOM     11  N   UNL     1       1.556   0.003  -3.900  0.00  0.00    -0.128 NA
ATOM     12  N   UNL     1       1.125   0.300  -2.724  0.00  0.00    -0.122 NA
ATOM     13  C   UNL     1       0.045   1.043  -2.809  0.00  0.00    +0.198 A 
ATOM     14  N   UNL     1      -0.222   1.218  -4.139  0.00  0.00    -0.260 N 
ATOM     15  C   UNL     1      -1.187   1.889  -4.832  0.00  0.00    +0.208 A 
ATOM     16  N   UNL     1      -1.204   1.899  -6.135  0.00  0.00    -0.230 NA
ATOM     17  C   UNL     1       2.268  -0.498  -9.626  0.00  0.00    +0.046 C 
ENDROOT
BRANCH  13  18
ATOM     18  S   UNL     1      -0.890   1.687  -1.462  0.00  0.00    -0.076 S 
BRANCH  18  19
ATOM     19  C   UNL     1      -0.013   1.086   0.008  0.00  0.00    +0.173 C 
BRANCH  19  20
ATOM     20  C   UNL     1      -0.718   1.572   1.248  0.00  0.00    +0.229 C 
ATOM     21  O   UNL     1      -1.715   2.256   1.150  0.00  0.00    -0.275 OA
ATOM     22  N   UNL     1      -0.242   1.246   2.466  0.00  0.00    -0.264 N 
ATOM     23  C   UNL     1      -0.892   1.694   3.609  0.00  0.00    +0.165 A 
ATOM     24  N   UNL     1      -0.587   1.480   4.874  0.00  0.00    -0.229 NA
ATOM     25  C   UNL     1      -1.315   1.988   5.849  0.00  0.00    +0.056 A 
ATOM     26  C   UNL     1      -2.401   2.732   5.523  0.00  0.00    +0.072 A 
ATOM     27  S   UNL     1      -2.320   2.674   3.739  0.00  0.00    -0.060 S 
ATOM     28  H   UNL     1       0.555   0.699   2.544  0.00  0.00    +0.157 HD
BRANCH  25  29
ATOM     29  C   UNL     1      -0.954   1.742   7.291  0.00  0.00    +0.005 C 
ATOM     30  C   UNL     1      -1.914   0.712   7.889  0.00  0.00    +0.017 C 
ATOM     31  C   UNL     1       0.479   1.212   7.374  0.00  0.00    +0.017 C 
ATOM     32  C   UNL     1      -1.059   3.052   8.074  0.00  0.00    +0.017 C 
ENDBRANCH  25  29
ENDBRANCH  19  20
ENDBRANCH  18  19
ENDBRANCH  13  18
TORSDOF 4
