REMARK  Name = ZINC46791906
REMARK  10 active torsions:
REMARK  status: ('A' for Active; 'I' for Inactive)
REMARK    1  A    between atoms: C_1  and  C_2
REMARK    2  A    between atoms: C_4  and  C_7
REMARK    3  A    between atoms: C_7  and  O_8
REMARK    4  A    between atoms: O_8  and  C_9
REMARK    5  A    between atoms: C_12  and  C_15
REMARK    6  A    between atoms: C_16  and  C_17
REMARK    7  A    between atoms: N_19  and  C_20
REMARK    8  A    between atoms: C_20  and  C_21
REMARK    9  A    between atoms: C_29  and  C_36
REMARK   10  A    between atoms: C_32  and  C_35
REMARK                            x       y       z     vdW  Elec       q    Type
REMARK                         _______ _______ _______ _____ _____    ______ ____
ROOT
ATOM      1  C   UNL     1      -5.951 -10.883   0.009  0.00  0.00    +0.237 C 
ATOM      2  O   UNL     1      -7.137 -10.608  -0.006  0.00  0.00    -0.271 OA
ATOM      3  N   UNL     1      -5.559 -12.173   0.001  0.00  0.00    -0.308 N 
ATOM      4  H   UNL     1      -4.614 -12.392   0.013  0.00  0.00    +0.149 HD
ENDROOT
BRANCH   1   6
ATOM      5  C   UNL     1      -5.346  -8.524   0.043  0.00  0.00    +0.013 C 
ATOM      6  C   UNL     1      -4.953  -9.815   0.035  0.00  0.00    +0.068 C 
BRANCH   5  10
ATOM      7  C   UNL     1      -2.450  -5.426   0.120  0.00  0.00    +0.121 A 
ATOM      8  C   UNL     1      -3.803  -5.109   0.102  0.00  0.00    +0.046 A 
ATOM      9  C   UNL     1      -4.747  -6.110   0.077  0.00  0.00    +0.011 A 
ATOM     10  C   UNL     1      -4.342  -7.450   0.069  0.00  0.00    -0.025 A 
ATOM     11  C   UNL     1      -2.978  -7.764   0.087  0.00  0.00    +0.011 A 
ATOM     12  C   UNL     1      -2.042  -6.755   0.107  0.00  0.00    +0.046 A 
BRANCH   7  13
ATOM     13  O   UNL     1      -1.523  -4.435   0.145  0.00  0.00    -0.486 OA
BRANCH  13  14
ATOM     14  C   UNL     1      -2.010  -3.091   0.158  0.00  0.00    +0.285 C 
BRANCH  14  18
ATOM     15  C   UNL     1      -0.034   1.506   0.246  0.00  0.00    +0.073 C 
ATOM     16  C   UNL     1      -0.012  -0.001   0.225  0.00  0.00    +0.076 A 
ATOM     17  N   UNL     1      -1.026  -0.829   0.201  0.00  0.00    -0.246 NA
ATOM     18  C   UNL     1      -0.845  -2.135   0.185  0.00  0.00    +0.086 A 
ATOM     19  C   UNL     1       0.438  -2.579   0.195  0.00  0.00    +0.073 A 
ATOM     20  S   UNL     1       1.322  -1.028   0.220  0.00  0.00    -0.080 S 
ENDBRANCH  14  18
ENDBRANCH  13  14
ENDBRANCH   7  13
ENDBRANCH   5  10
ENDBRANCH   1   6
BRANCH   3  21
ATOM     21  C   UNL     1      -6.559 -13.243  -0.025  0.00  0.00    +0.141 C 
BRANCH  21  22
ATOM     22  C   UNL     1      -5.864 -14.580  -0.029  0.00  0.00    -0.014 A 
ATOM     23  C   UNL     1      -5.518 -15.187  -1.229  0.00  0.00    +0.010 A 
ATOM     24  C   UNL     1      -4.881 -16.414  -1.188  0.00  0.00    +0.042 A 
ATOM     25  C   UNL     1      -4.611 -16.996   0.047  0.00  0.00    +0.099 A 
ATOM     26  N   UNL     1      -4.958 -16.385   1.169  0.00  0.00    -0.349 N 
ATOM     27  C   UNL     1      -5.561 -15.211   1.161  0.00  0.00    +0.089 A 
ATOM     28  N   UNL     1      -3.973 -18.229   0.102  0.00  0.00    -0.312 N 
ATOM     29  C   UNL     1      -3.560 -18.811   1.390  0.00  0.00    +0.137 C 
ATOM     30  C   UNL     1      -4.081 -20.251   1.458  0.00  0.00    +0.133 C 
ATOM     31  O   UNL     1      -3.673 -20.956   0.283  0.00  0.00    -0.371 OA
ATOM     32  C   UNL     1      -4.204 -20.423  -0.933  0.00  0.00    +0.133 C 
ATOM     33  C   UNL     1      -3.695 -18.994  -1.123  0.00  0.00    +0.137 C 
ATOM     34  C   UNL     1      -3.754 -21.290  -2.110  0.00  0.00    +0.039 C 
ATOM     35  C   UNL     1      -5.609 -20.239   1.543  0.00  0.00    +0.039 C 
ATOM     36  H   UNL     1      -4.760 -16.809   2.019  0.00  0.00    +0.167 HD
ENDBRANCH  21  22
ENDBRANCH   3  21
TORSDOF 7
