REMARK  Name = ZINC43069552
REMARK  10 active torsions:
REMARK  status: ('A' for Active; 'I' for Inactive)
REMARK    1  A    between atoms: C_1  and  C_2
REMARK    2  A    between atoms: C_2  and  C_3
REMARK    3  A    between atoms: C_2  and  C_4
REMARK    4  A    between atoms: C_4  and  C_5
REMARK    5  A    between atoms: C_5  and  C_6
REMARK    6  A    between atoms: C_6  and  C_34
REMARK    7  A    between atoms: C_9  and  C_17
REMARK    8  A    between atoms: C_24  and  N_29
REMARK    9  A    between atoms: N_29  and  S_30
REMARK   10  A    between atoms: S_30  and  C_33
REMARK                            x       y       z     vdW  Elec       q    Type
REMARK                         _______ _______ _______ _____ _____    ______ ____
ROOT
ATOM      1  C   UNL     1      -2.812  -2.681  -0.185  0.00  0.00    +0.107 C 
ATOM      2  C   UNL     1      -3.623  -2.111   0.958  0.00  0.00    +0.196 C 
ATOM      3  O   UNL     1      -3.792  -0.912   1.065  0.00  0.00    -0.289 OA
ATOM      4  C   UNL     1      -4.180  -3.005   1.896  0.00  0.00    +0.112 C 
ATOM      5  C   UNL     1      -3.983  -4.380   1.766  0.00  0.00    +0.218 C 
ATOM      6  C   UNL     1      -3.231  -4.934   0.710  0.00  0.00    +0.110 A 
ATOM      7  N   UNL     1      -2.648  -4.136  -0.254  0.00  0.00    -0.314 N 
ATOM      8  C   UNL     1      -2.008  -4.946  -1.111  0.00  0.00    +0.200 A 
ATOM      9  N   UNL     1      -2.163  -6.190  -0.731  0.00  0.00    -0.243 NA
ATOM     10  C   UNL     1      -2.903  -6.235   0.377  0.00  0.00    +0.142 A 
ATOM     11  O   UNL     1      -4.530  -5.207   2.682  0.00  0.00    -0.285 OA
ATOM     12  C   UNL     1      -3.462  -2.222  -1.492  0.00  0.00    +0.043 C 
ENDROOT
BRANCH   4  13
ATOM     13  C   UNL     1      -4.975  -2.484   3.020  0.00  0.00    +0.179 C 
ATOM     14  N   UNL     1      -5.132  -1.198   3.092  0.00  0.00    -0.111 NA
ATOM     15  S   UNL     1      -6.002  -0.514   4.326  0.00  0.00    +0.102 S 
ATOM     16  O   UNL     1      -7.300  -0.247   3.814  0.00  0.00    -0.146 OA
ATOM     17  O   UNL     1      -5.181   0.498   4.894  0.00  0.00    -0.146 OA
ATOM     18  C   UNL     1      -6.185  -1.773   5.548  0.00  0.00    +0.137 A 
ATOM     19  C   UNL     1      -6.601  -1.462   6.823  0.00  0.00    +0.057 A 
ATOM     20  C   UNL     1      -6.736  -2.470   7.770  0.00  0.00    +0.076 A 
ATOM     21  C   UNL     1      -6.450  -3.785   7.426  0.00  0.00    +0.028 A 
ATOM     22  C   UNL     1      -6.034  -4.094   6.146  0.00  0.00    +0.029 A 
ATOM     23  C   UNL     1      -5.899  -3.088   5.197  0.00  0.00    +0.082 A 
ATOM     24  N   UNL     1      -5.490  -3.394   3.897  0.00  0.00    -0.192 NA
BRANCH  20  25
ATOM     25  N   UNL     1      -7.159  -2.161   9.068  0.00  0.00    -0.103 NA
BRANCH  25  26
ATOM     26  S   UNL     1      -7.319  -3.364  10.195  0.00  0.00    +0.059 S 
ATOM     27  O   UNL     1      -8.352  -4.199   9.690  0.00  0.00    -0.154 OA
ATOM     28  O   UNL     1      -6.003  -3.869  10.376  0.00  0.00    -0.154 OA
ATOM     29  C   UNL     1      -7.877  -2.520  11.700  0.00  0.00    +0.220 C 
ENDBRANCH  25  26
ENDBRANCH  20  25
ENDBRANCH   4  13
BRANCH   1  30
ATOM     30  C   UNL     1      -1.416  -2.058  -0.121  0.00  0.00    +0.037 C 
BRANCH  30  31
ATOM     31  C   UNL     1      -0.683  -2.574   1.119  0.00  0.00    +0.006 C 
BRANCH  31  33
ATOM     32  C   UNL     1       1.340  -2.282   2.555  0.00  0.00    +0.007 C 
ATOM     33  C   UNL     1       0.663  -1.858   1.250  0.00  0.00    -0.017 C 
ATOM     34  C   UNL     1       1.557  -2.233   0.067  0.00  0.00    +0.007 C 
ENDBRANCH  31  33
ENDBRANCH  30  31
ENDBRANCH   1  30
TORSDOF 6
