REMARK  Name = ZINC59136389
REMARK  9 active torsions:
REMARK  status: ('A' for Active; 'I' for Inactive)
REMARK    1  A    between atoms: C_1  and  O_2
REMARK    2  A    between atoms: O_2  and  C_3
REMARK    3  A    between atoms: C_5  and  C_17
REMARK    4  A    between atoms: C_7  and  C_14
REMARK    5  A    between atoms: C_8  and  O_9
REMARK    6  A    between atoms: O_9  and  C_10
REMARK    7  A    between atoms: C_10  and  C_11
REMARK    8  A    between atoms: C_14  and  C_15
REMARK    9  A    between atoms: N_24  and  C_27
REMARK                            x       y       z     vdW  Elec       q    Type
REMARK                         _______ _______ _______ _____ _____    ______ ____
ROOT
ATOM      1  C   UNL     1      -5.373   0.080  -0.388  0.00  0.00    +0.026 C 
ATOM      2  C   UNL     1      -6.564  -0.522  -0.016  0.00  0.00    +0.102 C 
ATOM      3  C   UNL     1      -6.587  -1.830   0.659  0.00  0.00    +0.274 C 
ATOM      4  O   UNL     1      -5.439  -2.484   0.937  0.00  0.00    -0.268 OA
ATOM      5  N   UNL     1      -7.756  -2.349   0.987  0.00  0.00    -0.153 NA
ATOM      6  C   UNL     1      -8.904  -1.727   0.727  0.00  0.00    +0.171 C 
ATOM      7  S   UNL     1     -10.362  -2.491   1.196  0.00  0.00    -0.016 S 
ATOM      8  N   UNL     1      -8.981  -0.535   0.117  0.00  0.00    -0.213 N 
ATOM      9  C   UNL     1      -7.868   0.122  -0.273  0.00  0.00    +0.262 C 
ATOM     10  O   UNL     1      -7.937   1.206  -0.821  0.00  0.00    -0.269 OA
ENDROOT
BRANCH   8  11
ATOM     11  C   UNL     1     -10.238   0.041  -0.114  0.00  0.00    +0.078 A 
ATOM     12  C   UNL     1     -10.803   0.880   0.836  0.00  0.00    +0.027 A 
ATOM     13  C   UNL     1     -12.042   1.447   0.606  0.00  0.00    +0.002 A 
ATOM     14  C   UNL     1     -12.720   1.179  -0.569  0.00  0.00    +0.003 A 
ATOM     15  C   UNL     1     -12.161   0.344  -1.518  0.00  0.00    +0.040 A 
ATOM     16  C   UNL     1     -10.919  -0.223  -1.297  0.00  0.00    +0.145 A 
ATOM     17  F   UNL     1     -10.370  -1.035  -2.227  0.00  0.00    -0.204 F 
ENDBRANCH   8  11
BRANCH   1  20
ATOM     18  C   UNL     1      -1.799  -0.822   0.267  0.00  0.00    +0.162 A 
ATOM     19  C   UNL     1      -2.973  -0.099   0.222  0.00  0.00    +0.057 A 
ATOM     20  C   UNL     1      -4.124  -0.677  -0.336  0.00  0.00    -0.020 A 
ATOM     21  C   UNL     1      -4.071  -1.985  -0.843  0.00  0.00    +0.015 A 
ATOM     22  C   UNL     1      -2.903  -2.691  -0.793  0.00  0.00    +0.002 A 
ATOM     23  C   UNL     1      -1.760  -2.120  -0.247  0.00  0.00    +0.166 A 
BRANCH  18  25
ATOM     24  C   UNL     1      -0.792   1.062   1.313  0.00  0.00    +0.277 C 
ATOM     25  O   UNL     1      -0.679  -0.270   0.806  0.00  0.00    -0.491 OA
ENDBRANCH  18  25
BRANCH  23  26
ATOM     26  O   UNL     1      -0.603  -2.828  -0.208  0.00  0.00    -0.477 OA
BRANCH  26  27
ATOM     27  C   UNL     1       0.323  -2.618  -1.276  0.00  0.00    +0.354 C 
BRANCH  27  28
ATOM     28  C   UNL     1       1.583  -3.400  -1.010  0.00  0.00    +0.393 C 
ATOM     29  O   UNL     1       1.680  -4.075   0.001  0.00  0.00    -0.243 OA
ATOM     30  O   UNL     1       2.506  -3.359  -1.805  0.00  0.00    -0.243 OA
ENDBRANCH  27  28
ENDBRANCH  26  27
ENDBRANCH  23  26
BRANCH  22  31
ATOM     31  C   UNL     1      -2.853  -4.095  -1.339  0.00  0.00    +0.065 C 
BRANCH  31  32
ATOM     32  C   UNL     1      -3.034  -5.079  -0.212  0.00  0.00    -0.030 C 
ATOM     33  C   UNL     1      -4.021  -5.940  -0.247  0.00  0.00    +0.004 C 
ENDBRANCH  31  32
ENDBRANCH  22  31
ENDBRANCH   1  20
TORSDOF 8
