REMARK  Name = ZINC36609514
REMARK  15 active torsions:
REMARK  status: ('A' for Active; 'I' for Inactive)
REMARK    1  A    between atoms: C_1  and  C_2
REMARK    2  A    between atoms: C_2  and  C_3
REMARK    3  A    between atoms: C_2  and  C_4
REMARK    4  A    between atoms: C_2  and  C_5
REMARK    5  A    between atoms: C_5  and  C_6
REMARK    6  A    between atoms: C_6  and  C_7
REMARK    7  A    between atoms: C_6  and  C_8
REMARK    8  A    between atoms: C_6  and  N_9
REMARK    9  A    between atoms: C_10  and  C_12
REMARK   10  A    between atoms: C_12  and  C_14
REMARK   11  A    between atoms: C_12  and  N_21
REMARK   12  A    between atoms: C_18  and  O_20
REMARK   13  A    between atoms: N_21  and  C_22
REMARK   14  A    between atoms: C_28  and  C_30
REMARK   15  A    between atoms: C_31  and  C_32
REMARK                            x       y       z     vdW  Elec       q    Type
REMARK                         _______ _______ _______ _____ _____    ______ ____
ROOT
ATOM      1  C   UNL     1       5.241   0.243  -4.140  0.00  0.00    +0.198 C 
ENDROOT
BRANCH   1   2
ATOM      2  C   UNL     1       4.545   1.367  -4.863  0.00  0.00    -0.014 A 
ATOM      3  C   UNL     1       5.030   2.659  -4.761  0.00  0.00    +0.006 A 
ATOM      4  C   UNL     1       4.395   3.692  -5.423  0.00  0.00    +0.004 A 
ATOM      5  C   UNL     1       3.272   3.438  -6.187  0.00  0.00    +0.045 A 
ATOM      6  C   UNL     1       2.784   2.144  -6.291  0.00  0.00    +0.117 A 
ATOM      7  C   UNL     1       3.427   1.107  -5.631  0.00  0.00    +0.051 A 
BRANCH   6   8
ATOM      8  O   UNL     1       1.680   1.891  -7.042  0.00  0.00    -0.507 OA
ATOM      9  H   UNL     1       1.873   1.682  -7.966  0.00  0.00    +0.292 HD
ENDBRANCH   6   8
ENDBRANCH   1   2
BRANCH   1  11
ATOM     10  N   UNL     1       3.893   0.495  -2.082  0.00  0.00    -0.308 N 
ATOM     11  C   UNL     1       5.113   0.446  -2.652  0.00  0.00    +0.239 C 
ATOM     12  O   UNL     1       6.107   0.566  -1.969  0.00  0.00    -0.273 OA
ATOM     13  H   UNL     1       3.097   0.399  -2.628  0.00  0.00    +0.149 HD
BRANCH  10  14
ATOM     14  C   UNL     1       3.768   0.692  -0.635  0.00  0.00    +0.030 C 
ATOM     15  C   UNL     1       4.548   1.942  -0.222  0.00  0.00    +0.031 C 
ATOM     16  C   UNL     1       4.333  -0.526   0.097  0.00  0.00    +0.031 C 
BRANCH  14  17
ATOM     17  C   UNL     1       2.292   0.868  -0.270  0.00  0.00    +0.031 C 
BRANCH  17  19
ATOM     18  C   UNL     1       1.273   0.992  -2.548  0.00  0.00    +0.010 C 
ATOM     19  C   UNL     1       1.621   1.790  -1.289  0.00  0.00    -0.036 C 
ATOM     20  C   UNL     1       2.576   2.928  -1.655  0.00  0.00    +0.010 C 
ATOM     21  C   UNL     1       0.342   2.372  -0.685  0.00  0.00    +0.010 C 
ENDBRANCH  17  19
ENDBRANCH  14  17
ENDBRANCH  10  14
ENDBRANCH   1  11
BRANCH   1  22
ATOM     22  N   UNL     1       6.658   0.227  -4.510  0.00  0.00    -0.245 N 
ATOM     23  C   UNL     1       7.483  -0.699  -3.981  0.00  0.00    +0.297 C 
ATOM     24  O   UNL     1       7.031  -1.590  -3.287  0.00  0.00    -0.260 OA
BRANCH  22  25
ATOM     25  C   UNL     1       7.156   1.172  -5.412  0.00  0.00    +0.038 A 
ATOM     26  C   UNL     1       8.079   2.120  -4.989  0.00  0.00    +0.023 A 
ATOM     27  C   UNL     1       8.568   3.052  -5.883  0.00  0.00    +0.002 A 
ATOM     28  C   UNL     1       8.140   3.042  -7.198  0.00  0.00    +0.000 A 
ATOM     29  C   UNL     1       7.221   2.100  -7.623  0.00  0.00    +0.002 A 
ATOM     30  C   UNL     1       6.732   1.162  -6.735  0.00  0.00    +0.023 A 
ENDBRANCH  22  25
BRANCH  23  31
ATOM     31  C   UNL     1       8.891  -0.632  -4.235  0.00  0.00    -0.002 C 
ATOM     32  C   UNL     1      10.045  -0.579  -4.444  0.00  0.00    -0.057 C 
BRANCH  32  33
ATOM     33  C   UNL     1      11.452  -0.512  -4.698  0.00  0.00    +0.025 A 
ATOM     34  C   UNL     1      11.976   0.514  -5.490  0.00  0.00    +0.017 A 
ATOM     35  C   UNL     1      13.333   0.571  -5.730  0.00  0.00    +0.001 A 
ATOM     36  C   UNL     1      14.175  -0.385  -5.190  0.00  0.00    +0.000 A 
ATOM     37  C   UNL     1      13.665  -1.404  -4.405  0.00  0.00    +0.001 A 
ATOM     38  C   UNL     1      12.311  -1.471  -4.151  0.00  0.00    +0.017 A 
ENDBRANCH  32  33
ENDBRANCH  23  31
ENDBRANCH   1  22
TORSDOF 10
