REMARK  Name = ZINC02247782
REMARK  5 active torsions:
REMARK  status: ('A' for Active; 'I' for Inactive)
REMARK    1  A    between atoms: C_1  and  C_2
REMARK    2  A    between atoms: C_5  and  C_8
REMARK    3  A    between atoms: C_19  and  C_21
REMARK    4  A    between atoms: C_32  and  S_34
REMARK    5  A    between atoms: S_34  and  C_35
REMARK                            x       y       z     vdW  Elec       q    Type
REMARK                         _______ _______ _______ _____ _____    ______ ____
ROOT
ATOM      1  C   UNL     1       0.096  -4.013  -0.595  0.00  0.00    +0.159 C 
ATOM      2  C   UNL     1      -1.155  -4.577   0.042  0.00  0.00    +0.025 C 
ATOM      3  C   UNL     1      -1.024  -5.269   1.193  0.00  0.00    +0.058 C 
ATOM      4  C   UNL     1      -2.260  -5.825   1.801  0.00  0.00    +0.040 A 
ATOM      5  C   UNL     1      -2.285  -6.265   3.117  0.00  0.00    +0.013 A 
ATOM      6  C   UNL     1      -3.457  -6.774   3.644  0.00  0.00    +0.001 A 
ATOM      7  C   UNL     1      -4.598  -6.846   2.864  0.00  0.00    +0.004 A 
ATOM      8  C   UNL     1      -4.580  -6.410   1.552  0.00  0.00    +0.046 A 
ATOM      9  C   UNL     1      -3.414  -5.898   1.011  0.00  0.00    +0.131 A 
ATOM     10  O   UNL     1      -3.366  -5.471  -0.276  0.00  0.00    -0.479 OA
ATOM     11  C   UNL     1      -2.506  -4.370  -0.576  0.00  0.00    +0.237 C 
ATOM     12  N   UNL     1       0.185  -5.454   1.776  0.00  0.00    -0.326 N 
ATOM     13  C   UNL     1       1.321  -4.998   1.290  0.00  0.00    +0.216 C 
ATOM     14  N   UNL     1       1.352  -4.274   0.119  0.00  0.00    -0.209 N 
ATOM     15  N   UNL     1       2.689  -3.944  -0.115  0.00  0.00    -0.239 N 
ATOM     16  C   UNL     1       3.405  -4.477   0.924  0.00  0.00    +0.174 C 
ATOM     17  N   UNL     1       2.586  -5.094   1.737  0.00  0.00    -0.192 NA
ATOM     18  H   UNL     1       0.216  -5.955   2.606  0.00  0.00    +0.169 HD
ATOM     19  H   UNL     1       3.041  -3.439  -0.865  0.00  0.00    +0.172 HD
ENDROOT
BRANCH   1  24
ATOM     20  C   UNL     1      -0.553   1.710  -1.072  0.00  0.00    +0.044 C 
ATOM     21  C   UNL     1      -0.383   0.217  -0.948  0.00  0.00    -0.050 A 
ATOM     22  C   UNL     1      -0.460  -0.583  -2.072  0.00  0.00    +0.004 A 
ATOM     23  C   UNL     1      -0.305  -1.952  -1.958  0.00  0.00    +0.006 A 
ATOM     24  C   UNL     1      -0.072  -2.521  -0.720  0.00  0.00    -0.021 A 
ATOM     25  C   UNL     1       0.006  -1.720   0.405  0.00  0.00    +0.006 A 
ATOM     26  C   UNL     1      -0.145  -0.351   0.290  0.00  0.00    +0.004 A 
ENDBRANCH   1  24
BRANCH  11  27
ATOM     27  C   UNL     1      -3.113  -3.101  -0.035  0.00  0.00    +0.032 A 
ATOM     28  C   UNL     1      -3.520  -3.038   1.285  0.00  0.00    +0.010 A 
ATOM     29  C   UNL     1      -4.076  -1.875   1.782  0.00  0.00    +0.001 A 
ATOM     30  C   UNL     1      -4.226  -0.772   0.961  0.00  0.00    +0.003 A 
ATOM     31  C   UNL     1      -3.819  -0.833  -0.359  0.00  0.00    +0.039 A 
ATOM     32  C   UNL     1      -3.257  -1.996  -0.857  0.00  0.00    +0.130 A 
ATOM     33  F   UNL     1      -2.855  -2.055  -2.145  0.00  0.00    -0.205 F 
ENDBRANCH  11  27
BRANCH  16  34
ATOM     34  S   UNL     1       5.151  -4.356   1.132  0.00  0.00    -0.092 S 
ATOM     35  C   UNL     1       5.473  -5.252   2.676  0.00  0.00    +0.093 C 
ENDBRANCH  16  34
TORSDOF 3
