REMARK  Name = ZINC36609490
REMARK  8 active torsions:
REMARK  status: ('A' for Active; 'I' for Inactive)
REMARK    1  A    between atoms: C_4  and  N_7
REMARK    2  A    between atoms: N_7  and  C_8
REMARK    3  A    between atoms: C_8  and  C_10
REMARK    4  A    between atoms: C_8  and  C_19
REMARK    5  A    between atoms: N_21  and  C_22
REMARK    6  A    between atoms: C_28  and  C_30
REMARK    7  A    between atoms: C_32  and  N_37
REMARK    8  A    between atoms: C_35  and  O_36
REMARK                            x       y       z     vdW  Elec       q    Type
REMARK                         _______ _______ _______ _____ _____    ______ ____
ROOT
ATOM      1  N   UNL     1       4.445  -0.585   0.322  0.00  0.00    -0.251 N 
ATOM      2  C   UNL     1       5.286  -0.156  -0.640  0.00  0.00    +0.255 C 
ATOM      3  O   UNL     1       6.324   0.399  -0.337  0.00  0.00    -0.269 OA
ENDROOT
BRANCH   1   7
ATOM      4  C   UNL     1       5.144   0.427   4.301  0.00  0.00    +0.000 A 
ATOM      5  C   UNL     1       5.450  -0.843   3.848  0.00  0.00    +0.002 A 
ATOM      6  C   UNL     1       5.219  -1.182   2.530  0.00  0.00    +0.023 A 
ATOM      7  C   UNL     1       4.679  -0.245   1.658  0.00  0.00    +0.038 A 
ATOM      8  C   UNL     1       4.373   1.030   2.116  0.00  0.00    +0.023 A 
ATOM      9  C   UNL     1       4.606   1.362   3.436  0.00  0.00    +0.002 A 
ENDBRANCH   1   7
BRANCH   2  10
ATOM     10  C   UNL     1       4.946  -0.360  -2.061  0.00  0.00    +0.081 A 
ATOM     11  C   UNL     1       4.108  -1.412  -2.439  0.00  0.00    +0.049 A 
ATOM     12  C   UNL     1       3.795  -1.597  -3.768  0.00  0.00    +0.127 A 
ATOM     13  C   UNL     1       4.308  -0.746  -4.733  0.00  0.00    +0.036 A 
ATOM     14  C   UNL     1       5.138   0.297  -4.373  0.00  0.00    +0.048 A 
ATOM     15  C   UNL     1       5.459   0.503  -3.039  0.00  0.00    +0.129 A 
BRANCH  12  16
ATOM     16  N   UNL     1       2.907  -2.712  -4.168  0.00  0.00    +0.056 N 
ATOM     17  O   UNL     1       2.358  -3.380  -3.322  0.00  0.00    -0.126 OA
ATOM     18  O   UNL     1       2.730  -2.954  -5.339  0.00  0.00    -0.126 OA
ENDBRANCH  12  16
BRANCH  15  19
ATOM     19  O   UNL     1       6.269   1.531  -2.684  0.00  0.00    -0.506 OA
ATOM     20  H   UNL     1       7.209   1.306  -2.673  0.00  0.00    +0.292 HD
ENDBRANCH  15  19
ENDBRANCH   2  10
BRANCH   1  21
ATOM     21  C   UNL     1       3.285  -1.407  -0.033  0.00  0.00    +0.198 C 
BRANCH  21  22
ATOM     22  C   UNL     1       2.387  -1.553   1.169  0.00  0.00    -0.014 A 
ATOM     23  C   UNL     1       1.563  -0.509   1.545  0.00  0.00    +0.010 A 
ATOM     24  C   UNL     1       0.737  -0.638   2.646  0.00  0.00    +0.050 A 
ATOM     25  C   UNL     1       0.734  -1.816   3.376  0.00  0.00    +0.166 A 
ATOM     26  C   UNL     1       1.564  -2.868   2.997  0.00  0.00    +0.167 A 
ATOM     27  C   UNL     1       2.385  -2.733   1.889  0.00  0.00    +0.055 A 
ATOM     28  O   UNL     1       1.379  -3.904   3.866  0.00  0.00    -0.453 OA
ATOM     29  C   UNL     1       0.731  -3.330   5.017  0.00  0.00    +0.466 C 
ATOM     30  O   UNL     1       0.028  -2.193   4.482  0.00  0.00    -0.453 OA
ENDBRANCH  21  22
BRANCH  21  31
ATOM     31  C   UNL     1       2.523  -0.746  -1.152  0.00  0.00    +0.239 C 
ATOM     32  O   UNL     1       2.911   0.309  -1.609  0.00  0.00    -0.273 OA
ATOM     33  N   UNL     1       1.411  -1.326  -1.645  0.00  0.00    -0.311 N 
ATOM     34  H   UNL     1       1.101  -2.169  -1.280  0.00  0.00    +0.149 HD
BRANCH  33  35
ATOM     35  C   UNL     1       0.670  -0.683  -2.733  0.00  0.00    +0.073 C 
ATOM     36  C   UNL     1      -0.301   0.345  -2.151  0.00  0.00    +0.022 C 
ATOM     37  C   UNL     1      -1.075   1.017  -3.287  0.00  0.00    +0.002 C 
ATOM     38  C   UNL     1      -1.859  -0.041  -4.066  0.00  0.00    +0.000 C 
ATOM     39  C   UNL     1      -0.887  -1.069  -4.648  0.00  0.00    +0.002 C 
ATOM     40  C   UNL     1      -0.113  -1.741  -3.512  0.00  0.00    +0.022 C 
ENDBRANCH  33  35
ENDBRANCH  21  31
ENDBRANCH   1  21
TORSDOF 8
