REMARK  Name = ZINC39467669
REMARK  6 active torsions:
REMARK  status: ('A' for Active; 'I' for Inactive)
REMARK    1  A    between atoms: C_1  and  O_2
REMARK    2  A    between atoms: O_2  and  P_3
REMARK    3  A    between atoms: C_11  and  C_28
REMARK    4  A    between atoms: C_12  and  C_21
REMARK    5  A    between atoms: C_21  and  C_22
REMARK    6  A    between atoms: C_28  and  C_29
REMARK                            x       y       z     vdW  Elec       q    Type
REMARK                         _______ _______ _______ _____ _____    ______ ____
ROOT
ATOM      1  P   UNL     1       0.876  -1.475  -1.123  0.00  0.00    +0.393 P 
ATOM      2  O   UNL     1       2.283  -1.091  -1.376  0.00  0.00    -0.241 OA
ATOM      3  N   UNL     1      -0.010  -1.359  -2.510  0.00  0.00    -0.268 NA
ATOM      4  N   UNL     1      -1.195  -2.061  -2.577  0.00  0.00    +0.399 N 
ATOM      5  C   UNL     1      -1.704  -1.870  -3.945  0.00  0.00    -0.046 C 
ATOM      6  C   UNL     1      -3.029  -2.593  -4.143  0.00  0.00    +0.005 C 
ATOM      7  C   UNL     1      -4.070  -2.060  -3.195  0.00  0.00    -0.021 C 
ATOM      8  C   UNL     1      -5.122  -2.815  -2.886  0.00  0.00    -0.044 C 
ATOM      9  C   UNL     1      -5.256  -4.153  -3.487  0.00  0.00    -0.043 C 
ATOM     10  C   UNL     1      -4.182  -4.773  -3.966  0.00  0.00    -0.019 C 
ATOM     11  C   UNL     1      -2.839  -4.090  -3.880  0.00  0.00    +0.016 C 
ATOM     12  C   UNL     1      -2.271  -4.269  -2.472  0.00  0.00    -0.003 C 
ATOM     13  C   UNL     1      -0.965  -3.483  -2.314  0.00  0.00    -0.020 C 
ATOM     14  C   UNL     1      -0.469  -3.716  -0.880  0.00  0.00    +0.159 C 
ATOM     15  O   UNL     1       0.787  -3.041  -0.690  0.00  0.00    -0.299 OA
ATOM     16  H   UNL     1       0.292  -0.815  -3.254  0.00  0.00    +0.113 HD
ATOM     17  H   UNL     1      -1.848  -1.691  -1.903  0.00  0.00    -0.055 HD
ENDROOT
BRANCH   1  19
ATOM     18  C   UNL     1       0.362   0.883   0.025  0.00  0.00    +0.206 C 
ATOM     19  O   UNL     1       0.241  -0.541   0.025  0.00  0.00    -0.301 OA
ENDBRANCH   1  19
BRANCH   9  20
ATOM     20  C   UNL     1      -6.607  -4.817  -3.558  0.00  0.00    +0.070 C 
BRANCH  20  21
ATOM     21  C   UNL     1      -7.322  -4.370  -4.807  0.00  0.00    -0.043 A 
ATOM     22  C   UNL     1      -8.094  -3.223  -4.788  0.00  0.00    +0.004 A 
ATOM     23  C   UNL     1      -8.749  -2.813  -5.934  0.00  0.00    +0.000 A 
ATOM     24  C   UNL     1      -8.633  -3.548  -7.098  0.00  0.00    +0.000 A 
ATOM     25  C   UNL     1      -7.860  -4.694  -7.117  0.00  0.00    +0.000 A 
ATOM     26  C   UNL     1      -7.201  -5.103  -5.973  0.00  0.00    +0.004 A 
ENDBRANCH  20  21
ENDBRANCH   9  20
BRANCH   8  27
ATOM     27  C   UNL     1      -6.168  -2.304  -1.930  0.00  0.00    +0.070 C 
BRANCH  27  28
ATOM     28  C   UNL     1      -5.846  -2.773  -0.534  0.00  0.00    -0.043 A 
ATOM     29  C   UNL     1      -6.444  -3.915  -0.034  0.00  0.00    +0.004 A 
ATOM     30  C   UNL     1      -6.148  -4.345   1.246  0.00  0.00    +0.000 A 
ATOM     31  C   UNL     1      -5.254  -3.635   2.025  0.00  0.00    +0.000 A 
ATOM     32  C   UNL     1      -4.655  -2.494   1.524  0.00  0.00    +0.000 A 
ATOM     33  C   UNL     1      -4.948  -2.066   0.243  0.00  0.00    +0.004 A 
ENDBRANCH  27  28
ENDBRANCH   8  27
TORSDOF 5
