REMARK  Name = ZINC63162447
REMARK  6 active torsions:
REMARK  status: ('A' for Active; 'I' for Inactive)
REMARK    1  A    between atoms: C_3  and  C_6
REMARK    2  A    between atoms: C_6  and  C_7
REMARK    3  A    between atoms: C_6  and  N_24
REMARK    4  A    between atoms: C_7  and  N_8
REMARK    5  A    between atoms: N_11  and  C_12
REMARK    6  A    between atoms: C_14  and  C_20
REMARK                            x       y       z     vdW  Elec       q    Type
REMARK                         _______ _______ _______ _____ _____    ______ ____
ROOT
ATOM      1  N   UNL     1       3.480   1.555  -2.305  0.00  0.00    -0.300 N 
ATOM      2  C   UNL     1       3.711   1.640  -3.631  0.00  0.00    +0.304 C 
ATOM      3  O   UNL     1       4.236   0.713  -4.217  0.00  0.00    -0.253 OA
ATOM      4  N   UNL     1       3.360   2.752  -4.306  0.00  0.00    -0.265 N 
ATOM      5  H   UNL     1       3.062   2.295  -1.838  0.00  0.00    +0.150 HD
ATOM      6  H   UNL     1       2.877   3.461  -3.854  0.00  0.00    +0.157 HD
ENDROOT
BRANCH   4   7
ATOM      7  C   UNL     1       3.694   2.884  -5.662  0.00  0.00    +0.100 A 
ATOM      8  C   UNL     1       2.718   3.088  -6.598  0.00  0.00    +0.042 A 
ATOM      9  C   UNL     1       3.079   3.217  -7.947  0.00  0.00    +0.073 A 
ATOM     10  C   UNL     1       4.380   3.139  -8.309  0.00  0.00    +0.098 A 
ATOM     11  N   UNL     1       5.351   2.935  -7.380  0.00  0.00    -0.327 N 
ATOM     12  H   UNL     1       6.279   2.881  -7.660  0.00  0.00    +0.168 HD
ATOM     13  C   UNL     1       5.042   2.812  -6.075  0.00  0.00    +0.270 A 
ATOM     14  O   UNL     1       5.925   2.635  -5.252  0.00  0.00    -0.266 OA
BRANCH   9  15
ATOM     15  C   UNL     1       2.018   3.442  -8.992  0.00  0.00    +0.419 C 
ATOM     16  F   UNL     1       2.618   3.538 -10.253  0.00  0.00    -0.166 F 
ATOM     17  F   UNL     1       1.120   2.370  -8.984  0.00  0.00    -0.166 F 
ATOM     18  F   UNL     1       1.331   4.628  -8.712  0.00  0.00    -0.166 F 
ENDBRANCH   9  15
ENDBRANCH   4   7
BRANCH   1  19
ATOM     19  C   UNL     1       3.862   0.346  -1.571  0.00  0.00    +0.098 C 
BRANCH  19  20
ATOM     20  C   UNL     1       3.374   0.453  -0.125  0.00  0.00    +0.016 C 
BRANCH  20  21
ATOM     21  N   UNL     1       3.873  -0.694   0.646  0.00  0.00    +0.387 N 
ATOM     22  C   UNL     1       5.354  -0.646   0.736  0.00  0.00    -0.078 C 
ATOM     23  C   UNL     1       5.662  -1.519   1.979  0.00  0.00    -0.020 C 
ATOM     24  C   UNL     1       4.504  -1.170   2.941  0.00  0.00    -0.020 C 
ATOM     25  C   UNL     1       3.382  -0.625   2.039  0.00  0.00    -0.078 C 
ATOM     26  H   UNL     1       3.577  -1.558   0.215  0.00  0.00    -0.081 HD
ENDBRANCH  20  21
BRANCH  20  29
ATOM     27  C   UNL     1      -0.253   1.094  -0.005  0.00  0.00    +0.041 A 
ATOM     28  C   UNL     1       1.086   1.546   0.021  0.00  0.00    +0.043 A 
ATOM     29  C   UNL     1       1.868   0.458  -0.101  0.00  0.00    +0.093 A 
ATOM     30  O   UNL     1       1.077  -0.623  -0.200  0.00  0.00    -0.469 OA
ATOM     31  C   UNL     1      -0.210  -0.244  -0.142  0.00  0.00    +0.195 A 
ENDBRANCH  20  29
ENDBRANCH  19  20
ENDBRANCH   1  19
TORSDOF 6
