REMARK  Name = ZINC13521383
REMARK  11 active torsions:
REMARK  status: ('A' for Active; 'I' for Inactive)
REMARK    1  A    between atoms: C_1  and  C_2
REMARK    2  A    between atoms: C_3  and  S_14
REMARK    3  A    between atoms: C_4  and  C_7
REMARK    4  A    between atoms: C_8  and  C_9
REMARK    5  A    between atoms: S_14  and  N_17
REMARK    6  A    between atoms: C_20  and  C_23
REMARK    7  A    between atoms: N_25  and  C_26
REMARK    8  A    between atoms: C_26  and  C_27
REMARK    9  A    between atoms: C_27  and  C_28
REMARK   10  A    between atoms: C_28  and  N_29
REMARK   11  A    between atoms: C_33  and  C_36
REMARK                            x       y       z     vdW  Elec       q    Type
REMARK                         _______ _______ _______ _____ _____    ______ ____
ROOT
ATOM      1  N   UNL     1       1.570  -0.083  -3.281  0.00  0.00    -0.176 NA
ATOM      2  C   UNL     1       2.271   1.194  -3.090  0.00  0.00    +0.110 C 
ATOM      3  C   UNL     1       3.571   0.932  -2.322  0.00  0.00    +0.030 C 
ATOM      4  C   UNL     1       4.390  -0.130  -3.060  0.00  0.00    +0.077 C 
ATOM      5  C   UNL     1       3.595  -1.436  -3.123  0.00  0.00    +0.030 C 
ATOM      6  C   UNL     1       2.297  -1.203  -3.894  0.00  0.00    +0.110 C 
ENDROOT
BRANCH   4   7
ATOM      7  C   UNL     1       5.685  -0.365  -2.326  0.00  0.00    +0.216 C 
ATOM      8  O   UNL     1       5.929   0.255  -1.313  0.00  0.00    -0.276 OA
ATOM      9  N   UNL     1       6.572  -1.265  -2.795  0.00  0.00    -0.315 N 
ATOM     10  H   UNL     1       6.376  -1.761  -3.606  0.00  0.00    +0.149 HD
BRANCH   9  11
ATOM     11  C   UNL     1       7.830  -1.494  -2.082  0.00  0.00    +0.102 C 
BRANCH  11  12
ATOM     12  C   UNL     1       8.649  -2.555  -2.819  0.00  0.00    +0.000 C 
BRANCH  12  13
ATOM     13  C   UNL     1       9.964  -2.794  -2.074  0.00  0.00    -0.077 C 
BRANCH  13  14
ATOM     14  N   UNL     1      10.750  -3.813  -2.782  0.00  0.00    +0.380 N 
ATOM     15  C   UNL     1      11.131  -3.304  -4.105  0.00  0.00    -0.079 C 
ATOM     16  C   UNL     1      11.880  -4.391  -4.878  0.00  0.00    -0.018 C 
ATOM     17  C   UNL     1      13.138  -4.787  -4.101  0.00  0.00    -0.001 C 
ATOM     18  C   UNL     1      12.735  -5.247  -2.697  0.00  0.00    -0.031 C 
ATOM     19  C   UNL     1      11.954  -4.128  -2.004  0.00  0.00    -0.076 C 
ATOM     20  C   UNL     1      13.991  -5.573  -1.885  0.00  0.00    +0.005 C 
ATOM     21  H   UNL     1      10.194  -4.648  -2.893  0.00  0.00    -0.082 HD
ENDBRANCH  13  14
ENDBRANCH  12  13
ENDBRANCH  11  12
ENDBRANCH   9  11
ENDBRANCH   4   7
BRANCH   1  22
ATOM     22  S   UNL     1      -0.007  -0.259  -2.809  0.00  0.00    +0.066 S 
ATOM     23  O   UNL     1      -0.548  -1.319  -3.586  0.00  0.00    -0.153 OA
ATOM     24  O   UNL     1      -0.575   1.044  -2.799  0.00  0.00    -0.153 OA
BRANCH  22  27
ATOM     25  C   UNL     1      -0.018   1.503   0.010  0.00  0.00    +0.071 C 
ATOM     26  C   UNL     1       0.002  -0.004   0.002  0.00  0.00    +0.107 A 
ATOM     27  C   UNL     1       0.008  -0.816  -1.138  0.00  0.00    +0.174 A 
ATOM     28  C   UNL     1       0.028  -2.129  -0.719  0.00  0.00    +0.187 A 
ATOM     29  O   UNL     1       0.034  -2.122   0.629  0.00  0.00    -0.353 OA
ATOM     30  N   UNL     1       0.023  -0.772   1.056  0.00  0.00    -0.081 NA
BRANCH  28  31
ATOM     31  C   UNL     1       0.040  -3.312  -1.579  0.00  0.00    +0.052 C 
ATOM     32  C   UNL     1       0.059  -4.548  -1.029  0.00  0.00    +0.019 C 
BRANCH  32  33
ATOM     33  C   UNL     1       0.071  -5.731  -1.889  0.00  0.00    +0.012 A 
ATOM     34  C   UNL     1       0.085  -7.071  -1.533  0.00  0.00    +0.015 A 
ATOM     35  C   UNL     1       0.095  -8.012  -2.534  0.00  0.00    +0.008 A 
ATOM     36  C   UNL     1       0.090  -7.604  -3.831  0.00  0.00    +0.046 A 
ATOM     37  S   UNL     1       0.064  -5.827  -3.672  0.00  0.00    -0.097 S 
ENDBRANCH  32  33
ENDBRANCH  28  31
ENDBRANCH  22  27
ENDBRANCH   1  22
TORSDOF 9
