REMARK  Name = ZINC38546630
REMARK  6 active torsions:
REMARK  status: ('A' for Active; 'I' for Inactive)
REMARK    1  A    between atoms: C_4  and  C_7
REMARK    2  A    between atoms: C_7  and  C_9
REMARK    3  A    between atoms: C_7  and  N_26
REMARK    4  A    between atoms: C_13  and  N_14
REMARK    5  A    between atoms: C_15  and  C_17
REMARK    6  A    between atoms: N_29  and  C_32
REMARK                            x       y       z     vdW  Elec       q    Type
REMARK                         _______ _______ _______ _____ _____    ______ ____
ROOT
ATOM      1  C   UNL     1       3.923  -0.735   0.155  0.00  0.00    -0.004 C 
ENDROOT
BRANCH   1   2
ATOM      2  C   UNL     1       4.244  -1.208  -1.240  0.00  0.00    -0.025 A 
ATOM      3  C   UNL     1       5.199  -0.535  -2.003  0.00  0.00    -0.033 A 
ATOM      4  C   UNL     1       5.433  -1.021  -3.252  0.00  0.00    -0.005 A 
ATOM      5  S   UNL     1       4.338  -2.409  -3.381  0.00  0.00    -0.078 S 
ATOM      6  C   UNL     1       3.607  -2.293  -1.755  0.00  0.00    +0.074 A 
ATOM      7  C   UNL     1       6.394  -0.495  -4.268  0.00  0.00    +0.043 C 
ATOM      8  C   UNL     1       6.830   0.913  -3.837  0.00  0.00    +0.005 C 
ATOM      9  C   UNL     1       7.213   0.876  -2.355  0.00  0.00    +0.005 C 
ATOM     10  C   UNL     1       5.962   0.685  -1.496  0.00  0.00    +0.036 C 
BRANCH   6  11
ATOM     11  N   UNL     1       2.634  -3.104  -1.167  0.00  0.00    -0.273 N 
ATOM     12  C   UNL     1       2.112  -4.137  -1.857  0.00  0.00    +0.284 C 
ATOM     13  O   UNL     1       2.488  -4.363  -2.993  0.00  0.00    -0.266 OA
ATOM     14  H   UNL     1       2.335  -2.924  -0.263  0.00  0.00    +0.156 HD
BRANCH  12  15
ATOM     15  C   UNL     1       1.090  -4.989  -1.240  0.00  0.00    +0.189 A 
ATOM     16  C   UNL     1       0.485  -6.066  -1.822  0.00  0.00    +0.054 A 
ATOM     17  C   UNL     1      -0.419  -6.580  -0.878  0.00  0.00    +0.042 A 
ATOM     18  C   UNL     1      -0.326  -5.804   0.224  0.00  0.00    +0.196 A 
ATOM     19  O   UNL     1       0.588  -4.849   0.004  0.00  0.00    -0.458 OA
ENDBRANCH  12  15
ENDBRANCH   6  11
ENDBRANCH   1   2
BRANCH   1  20
ATOM     20  N   UNL     1       3.973  -1.874   1.081  0.00  0.00    +0.389 N 
ATOM     21  C   UNL     1       3.757  -1.397   2.453  0.00  0.00    -0.058 C 
ATOM     22  C   UNL     1       3.696  -2.595   3.406  0.00  0.00    +0.086 C 
ATOM     23  N   UNL     1       4.916  -3.397   3.227  0.00  0.00    -0.333 N 
ATOM     24  C   UNL     1       5.299  -3.782   1.860  0.00  0.00    +0.086 C 
ATOM     25  C   UNL     1       5.285  -2.527   0.980  0.00  0.00    -0.058 C 
ATOM     26  H   UNL     1       3.250  -2.535   0.840  0.00  0.00    -0.080 HD
BRANCH  23  27
ATOM     27  C   UNL     1       5.690  -3.781   4.324  0.00  0.00    +0.030 A 
ATOM     28  C   UNL     1       5.237  -3.540   5.615  0.00  0.00    +0.023 A 
ATOM     29  C   UNL     1       6.004  -3.922   6.698  0.00  0.00    +0.002 A 
ATOM     30  C   UNL     1       7.223  -4.543   6.498  0.00  0.00    +0.000 A 
ATOM     31  C   UNL     1       7.678  -4.784   5.215  0.00  0.00    +0.002 A 
ATOM     32  C   UNL     1       6.913  -4.410   4.128  0.00  0.00    +0.023 A 
ENDBRANCH  23  27
ENDBRANCH   1  20
BRANCH   1  36
ATOM     33  C   UNL     1       0.008   0.974   0.211  0.00  0.00    +0.000 A 
ATOM     34  C   UNL     1       1.086   1.730  -0.209  0.00  0.00    +0.000 A 
ATOM     35  C   UNL     1       2.353   1.177  -0.227  0.00  0.00    +0.002 A 
ATOM     36  C   UNL     1       2.542  -0.132   0.175  0.00  0.00    -0.057 A 
ATOM     37  C   UNL     1       1.464  -0.888   0.597  0.00  0.00    +0.002 A 
ATOM     38  C   UNL     1       0.197  -0.335   0.614  0.00  0.00    +0.000 A 
ENDBRANCH   1  36
TORSDOF 6
