REMARK  Name = ZINC27584679
REMARK  7 active torsions:
REMARK  status: ('A' for Active; 'I' for Inactive)
REMARK    1  A    between atoms: C_1  and  C_2
REMARK    2  A    between atoms: C_5  and  C_8
REMARK    3  A    between atoms: C_8  and  C_10
REMARK    4  A    between atoms: C_8  and  N_25
REMARK    5  A    between atoms: C_10  and  N_11
REMARK    6  A    between atoms: C_12  and  C_14
REMARK    7  A    between atoms: C_15  and  C_24
REMARK                            x       y       z     vdW  Elec       q    Type
REMARK                         _______ _______ _______ _____ _____    ______ ____
ROOT
ATOM      1  C   UNL     1       4.523   8.738  -0.080  0.00  0.00    +0.094 C 
ENDROOT
BRANCH   1   2
ATOM      2  N   UNL     1       4.191   9.448   1.158  0.00  0.00    -0.310 N 
ATOM      3  C   UNL     1       2.960   9.971   1.325  0.00  0.00    +0.280 C 
ATOM      4  O   UNL     1       2.124   9.853   0.449  0.00  0.00    -0.267 OA
ATOM      5  H   UNL     1       4.946   9.555   1.950  0.00  0.00    +0.149 HD
BRANCH   3   6
ATOM      6  C   UNL     1       2.627  10.683   2.567  0.00  0.00    +0.193 A 
ATOM      7  C   UNL     1       1.423  11.249   2.845  0.00  0.00    +0.008 A 
ATOM      8  C   UNL     1       1.551  11.839   4.177  0.00  0.00    +0.024 A 
ATOM      9  C   UNL     1       0.687  12.549   5.014  0.00  0.00    +0.013 A 
ATOM     10  C   UNL     1       1.123  12.970   6.238  0.00  0.00    +0.016 A 
ATOM     11  C   UNL     1       2.423  12.706   6.650  0.00  0.00    +0.021 A 
ATOM     12  C   UNL     1       3.291  12.006   5.839  0.00  0.00    +0.062 A 
ATOM     13  C   UNL     1       2.867  11.563   4.591  0.00  0.00    +0.137 A 
ATOM     14  O   UNL     1       3.470  10.875   3.603  0.00  0.00    -0.450 OA
ATOM     15 BR   UNL     1       3.006  13.305   8.346  0.00  0.00    -0.050 Br
ATOM     16  C   UNL     1       0.204  11.265   1.960  0.00  0.00    +0.048 C 
ENDBRANCH   3   6
ENDBRANCH   1   2
BRANCH   1  17
ATOM     17  C   UNL     1       6.008   8.372  -0.075  0.00  0.00    -0.020 C 
BRANCH  17  22
ATOM     18  C   UNL     1       9.183  13.200   0.002  0.00  0.00    +0.044 C 
ATOM     19  C   UNL     1       8.355  11.941  -0.018  0.00  0.00    -0.050 A 
ATOM     20  C   UNL     1       8.141  11.236   1.151  0.00  0.00    +0.003 A 
ATOM     21  C   UNL     1       7.382  10.081   1.133  0.00  0.00    +0.002 A 
ATOM     22  C   UNL     1       6.836   9.632  -0.055  0.00  0.00    -0.059 A 
ATOM     23  C   UNL     1       7.054  10.334  -1.225  0.00  0.00    +0.002 A 
ATOM     24  C   UNL     1       7.809  11.492  -1.206  0.00  0.00    +0.003 A 
ENDBRANCH  17  22
BRANCH  17  25
ATOM     25  N   UNL     1       6.326   7.597  -1.282  0.00  0.00    +0.385 N 
ATOM     26  C   UNL     1       5.494   6.390  -1.365  0.00  0.00    -0.078 C 
ATOM     27  C   UNL     1       5.747   5.686  -2.701  0.00  0.00    -0.019 C 
ATOM     28  C   UNL     1       7.229   5.315  -2.804  0.00  0.00    -0.004 C 
ATOM     29  C   UNL     1       8.075   6.584  -2.665  0.00  0.00    -0.019 C 
ATOM     30  C   UNL     1       7.755   7.262  -1.331  0.00  0.00    -0.078 C 
ATOM     31  H   UNL     1       6.098   8.223  -2.157  0.00  0.00    -0.081 HD
ENDBRANCH  17  25
ENDBRANCH   1  17
TORSDOF 5
