REMARK  Name = ZINC39666497
REMARK  8 active torsions:
REMARK  status: ('A' for Active; 'I' for Inactive)
REMARK    1  A    between atoms: C_1  and  C_2
REMARK    2  A    between atoms: C_6  and  C_9
REMARK    3  A    between atoms: C_13  and  C_22
REMARK    4  A    between atoms: N_24  and  C_25
REMARK    5  A    between atoms: C_25  and  C_26
REMARK    6  A    between atoms: C_26  and  C_28
REMARK    7  A    between atoms: C_26  and  O_29
REMARK    8  A    between atoms: O_29  and  C_30
REMARK                            x       y       z     vdW  Elec       q    Type
REMARK                         _______ _______ _______ _____ _____    ______ ____
ROOT
ATOM      1  C   UNL     1       0.050  -2.813   2.410  0.00  0.00    +0.251 C 
ATOM      2  O   UNL     1       1.113  -3.112   2.917  0.00  0.00    -0.270 OA
ATOM      3  N   UNL     1      -1.105  -3.181   2.999  0.00  0.00    -0.296 N 
ATOM      4  C   UNL     1      -2.487  -2.918   2.533  0.00  0.00    +0.121 C 
ATOM      5  C   UNL     1      -3.259  -4.220   2.844  0.00  0.00    +0.100 C 
ATOM      6  C   UNL     1      -2.463  -4.886   3.979  0.00  0.00    -0.004 C 
ATOM      7  C   UNL     1      -1.280  -3.947   4.257  0.00  0.00    +0.115 C 
ATOM      8  C   UNL     1      -3.333  -5.024   5.225  0.00  0.00    -0.010 C 
ATOM      9  C   UNL     1      -2.539  -5.741   6.320  0.00  0.00    -0.082 C 
ATOM     10  N   UNL     1      -2.124  -7.065   5.840  0.00  0.00    +0.379 N 
ATOM     11  C   UNL     1      -1.213  -6.920   4.698  0.00  0.00    -0.082 C 
ATOM     12  C   UNL     1      -1.951  -6.253   3.534  0.00  0.00    -0.010 C 
ATOM     13  H   UNL     1      -1.654  -7.559   6.583  0.00  0.00    -0.086 HD
ATOM     14  H   UNL     1      -2.939  -7.587   5.554  0.00  0.00    -0.086 HD
ENDROOT
BRANCH   1  20
ATOM     15  C   UNL     1      -0.050   1.568   0.016  0.00  0.00    +0.047 C 
ATOM     16  C   UNL     1      -0.025   0.062  -0.010  0.00  0.00    -0.014 A 
ATOM     17  C   UNL     1      -0.028  -0.608  -1.220  0.00  0.00    +0.007 A 
ATOM     18  C   UNL     1      -0.006  -1.990  -1.255  0.00  0.00    +0.021 A 
ATOM     19  C   UNL     1       0.019  -2.714  -0.079  0.00  0.00    +0.056 A 
ATOM     20  C   UNL     1       0.023  -2.047   1.149  0.00  0.00    +0.091 A 
ATOM     21  C   UNL     1       0.006  -0.648   1.176  0.00  0.00    +0.140 A 
ATOM     22  F   UNL     1       0.014   0.007   2.357  0.00  0.00    -0.204 F 
ATOM     23 CL   UNL     1       0.046  -4.449  -0.126  0.00  0.00    -0.083 Cl
ENDBRANCH   1  20
BRANCH   5  24
ATOM     24  C   UNL     1      -4.660  -3.903   3.299  0.00  0.00    +0.218 C 
ATOM     25  O   UNL     1      -4.874  -2.907   3.955  0.00  0.00    -0.275 OA
ATOM     26  N   UNL     1      -5.676  -4.728   2.975  0.00  0.00    -0.312 N 
ATOM     27  H   UNL     1      -5.505  -5.525   2.450  0.00  0.00    +0.149 HD
BRANCH  26  28
ATOM     28  C   UNL     1      -7.038  -4.420   3.417  0.00  0.00    +0.148 C 
BRANCH  28  29
ATOM     29  C   UNL     1      -7.994  -5.507   2.919  0.00  0.00    +0.187 C 
ATOM     30  C   UNL     1      -9.416  -5.186   3.381  0.00  0.00    +0.053 C 
BRANCH  29  31
ATOM     31  O   UNL     1      -7.956  -5.558   1.492  0.00  0.00    -0.486 OA
BRANCH  31  32
ATOM     32  C   UNL     1      -8.299  -6.736   0.907  0.00  0.00    +0.139 A 
ATOM     33  C   UNL     1      -8.775  -7.783   1.681  0.00  0.00    +0.047 A 
ATOM     34  C   UNL     1      -9.124  -8.979   1.084  0.00  0.00    +0.004 A 
ATOM     35  C   UNL     1      -8.998  -9.133  -0.284  0.00  0.00    +0.002 A 
ATOM     36  C   UNL     1      -8.523  -8.092  -1.059  0.00  0.00    +0.023 A 
ATOM     37  C   UNL     1      -8.178  -6.890  -0.468  0.00  0.00    +0.083 A 
ATOM     38 CL   UNL     1      -7.589  -5.580  -1.442  0.00  0.00    -0.080 Cl
ENDBRANCH  31  32
ENDBRANCH  29  31
ENDBRANCH  28  29
ENDBRANCH  26  28
ENDBRANCH   5  24
TORSDOF 6
