REMARK  Name = ZINC09938766
REMARK  6 active torsions:
REMARK  status: ('A' for Active; 'I' for Inactive)
REMARK    1  A    between atoms: C_3  and  S_29
REMARK    2  A    between atoms: C_6  and  C_7
REMARK    3  A    between atoms: C_7  and  C_8
REMARK    4  A    between atoms: C_8  and  N_9
REMARK    5  A    between atoms: C_10  and  C_12
REMARK    6  A    between atoms: S_29  and  N_32
REMARK                            x       y       z     vdW  Elec       q    Type
REMARK                         _______ _______ _______ _____ _____    ______ ____
ROOT
ATOM      1  N   UNL     1      -1.998   5.735   1.194  0.00  0.00    -0.315 N 
ATOM      2  C   UNL     1      -1.452   5.097   0.140  0.00  0.00    +0.218 C 
ATOM      3  O   UNL     1      -0.952   5.734  -0.762  0.00  0.00    -0.275 OA
ATOM      4  H   UNL     1      -2.398   5.225   1.916  0.00  0.00    +0.149 HD
ENDROOT
BRANCH   2   5
ATOM      5  C   UNL     1      -1.465   3.591   0.082  0.00  0.00    +0.092 C 
ATOM      6  C   UNL     1      -0.788   3.123  -1.209  0.00  0.00    +0.016 C 
ATOM      7  C   UNL     1      -0.752   1.593  -1.232  0.00  0.00    +0.020 C 
ATOM      8  C   UNL     1      -0.013   1.086   0.008  0.00  0.00    +0.107 C 
ATOM      9  N   UNL     1      -0.700   1.559   1.216  0.00  0.00    -0.309 N 
ATOM     10  C   UNL     1      -0.705   3.026   1.284  0.00  0.00    +0.119 C 
ATOM     11  C   UNL     1      -0.138   1.016   2.348  0.00  0.00    +0.165 A 
ATOM     12  N   UNL     1       1.134   1.131   2.632  0.00  0.00    -0.225 NA
ATOM     13  C   UNL     1       1.840   0.666   3.697  0.00  0.00    +0.085 A 
ATOM     14  C   UNL     1       3.236   0.915   3.812  0.00  0.00    +0.036 A 
ATOM     15  C   UNL     1       3.940   0.455   4.857  0.00  0.00    +0.048 A 
ATOM     16  S   UNL     1       2.700  -0.396   5.814  0.00  0.00    -0.091 S 
ATOM     17  C   UNL     1       1.306  -0.081   4.749  0.00  0.00    +0.091 A 
ATOM     18  C   UNL     1      -0.043  -0.472   4.890  0.00  0.00    +0.235 A 
ATOM     19  O   UNL     1      -0.457  -1.126   5.833  0.00  0.00    -0.279 OA
ATOM     20  S   UNL     1      -1.082   0.088   3.547  0.00  0.00    -0.011 S 
ENDBRANCH   2   5
BRANCH   1  21
ATOM     21  C   UNL     1      -1.986   7.199   1.251  0.00  0.00    +0.109 C 
BRANCH  21  22
ATOM     22  C   UNL     1      -2.662   7.665   2.541  0.00  0.00    +0.054 C 
BRANCH  22  28
ATOM     23  C   UNL     1      -1.591   9.831   3.195  0.00  0.00    +0.005 A 
ATOM     24  C   UNL     1      -1.577  11.213   3.244  0.00  0.00    +0.029 A 
ATOM     25  C   UNL     1      -2.627  11.934   2.706  0.00  0.00    +0.105 A 
ATOM     26  C   UNL     1      -3.688  11.274   2.115  0.00  0.00    +0.029 A 
ATOM     27  C   UNL     1      -3.699   9.892   2.062  0.00  0.00    +0.005 A 
ATOM     28  C   UNL     1      -2.650   9.171   2.599  0.00  0.00    -0.046 A 
BRANCH  25  29
ATOM     29  S   UNL     1      -2.611  13.694   2.772  0.00  0.00    +0.056 S 
ATOM     30  O   UNL     1      -1.250  14.085   2.890  0.00  0.00    -0.153 OA
ATOM     31  O   UNL     1      -3.445  14.148   1.715  0.00  0.00    -0.153 OA
BRANCH  29  32
ATOM     32  N   UNL     1      -3.355  14.137   4.184  0.00  0.00    -0.204 NA
ATOM     33  H   UNL     1      -3.095  14.957   4.633  0.00  0.00    +0.144 HD
ATOM     34  H   UNL     1      -4.050  13.577   4.563  0.00  0.00    +0.144 HD
ENDBRANCH  29  32
ENDBRANCH  25  29
ENDBRANCH  22  28
ENDBRANCH  21  22
ENDBRANCH   1  21
TORSDOF 6
