REMARK  Name = ZINC16193279
REMARK  9 active torsions:
REMARK  status: ('A' for Active; 'I' for Inactive)
REMARK    1  A    between atoms: C_1  and  C_2
REMARK    2  A    between atoms: C_2  and  O_4
REMARK    3  A    between atoms: O_4  and  C_5
REMARK    4  A    between atoms: C_5  and  C_6
REMARK    5  A    between atoms: CA_7  and  C_31
REMARK    6  A    between atoms: CA_11  and  N_15
REMARK    7  A    between atoms: C_16  and  C_18
REMARK    8  A    between atoms: C_20  and  C_24
REMARK    9  A    between atoms: N_22  and  C_23
REMARK                            x       y       z     vdW  Elec       q    Type
REMARK                         _______ _______ _______ _____ _____    ______ ____
ROOT
ATOM      1  C   UNL     1       8.697   4.301  -0.530  0.00  0.00    +0.006 C 
ATOM      2  CA  UNL     1       7.935   3.880   0.465  0.00  0.00    +0.130 C 
ATOM      3  N   UNL     1       6.601   3.490   0.231  0.00  0.00    -0.249 N 
ATOM      4  C   UNL     1       5.772   3.863  -0.962  0.00  0.00    +0.169 C 
ATOM      5  CA  UNL     1       4.930   2.684  -0.501  0.00  0.00    +0.191 C 
ATOM      6  C   UNL     1       5.702   2.672   0.799  0.00  0.00    +0.244 C 
ATOM      7  O   UNL     1       5.568   2.149   1.885  0.00  0.00    -0.273 OA
ATOM      8  S   UNL     1       6.832   3.559  -2.410  0.00  0.00    -0.131 S 
ATOM      9  C   UNL     1       8.331   4.489  -1.967  0.00  0.00    +0.107 C 
ENDROOT
BRANCH   5  10
ATOM     10  N   UNL     1       3.513   3.016  -0.330  0.00  0.00    -0.296 N 
ATOM     11  C   UNL     1       2.579   2.048  -0.415  0.00  0.00    +0.264 C 
ATOM     12  O   UNL     1       2.917   0.888  -0.554  0.00  0.00    -0.268 OA
ATOM     13  H   UNL     1       3.247   3.932  -0.156  0.00  0.00    +0.150 HD
BRANCH  11  14
ATOM     14  C   UNL     1       1.153   2.394  -0.339  0.00  0.00    +0.142 A 
ATOM     15  C   UNL     1       0.309   2.684  -1.399  0.00  0.00    +0.103 A 
ATOM     16  C   UNL     1      -0.934   2.953  -0.819  0.00  0.00    +0.184 A 
ATOM     17  N   UNL     1      -0.811   2.817   0.477  0.00  0.00    -0.165 NA
ATOM     18  N   UNL     1       0.391   2.495   0.793  0.00  0.00    -0.260 N 
ATOM     19  C   UNL     1       0.874   2.270   2.158  0.00  0.00    +0.173 C 
ATOM     20 CL   UNL     1       0.712   2.716  -3.087  0.00  0.00    -0.079 Cl
BRANCH  16  21
ATOM     21  C   UNL     1      -2.194   3.329  -1.556  0.00  0.00    +0.437 C 
ATOM     22  F   UNL     1      -2.906   2.170  -1.884  0.00  0.00    -0.164 F 
ATOM     23  F   UNL     1      -2.985   4.146  -0.740  0.00  0.00    -0.164 F 
ATOM     24  F   UNL     1      -1.861   4.019  -2.726  0.00  0.00    -0.164 F 
ENDBRANCH  16  21
ENDBRANCH  11  14
ENDBRANCH   5  10
BRANCH   2  25
ATOM     25  C   UNL     1       8.485   3.817   1.830  0.00  0.00    +0.401 C 
ATOM     26  O   UNL     1       7.825   3.337   2.730  0.00  0.00    -0.239 OA
ATOM     27  OXT UNL     1       9.722   4.292   2.081  0.00  0.00    -0.239 OA
ENDBRANCH   2  25
BRANCH   1  28
ATOM     28  C   UNL     1      10.121   4.636  -0.168  0.00  0.00    +0.266 C 
BRANCH  28  29
ATOM     29  O   UNL     1      10.861   4.973  -1.372  0.00  0.00    -0.460 OA
BRANCH  29  31
ATOM     30  C   UNL     1      12.987   5.668  -2.417  0.00  0.00    +0.136 C 
ATOM     31  C   UNL     1      12.176   5.201  -1.235  0.00  0.00    +0.304 C 
ATOM     32  O   UNL     1      12.711   5.031  -0.165  0.00  0.00    -0.251 OA
ENDBRANCH  29  31
ENDBRANCH  28  29
ENDBRANCH   1  28
TORSDOF 7
