REMARK  Name = ZINC39537767
REMARK  7 active torsions:
REMARK  status: ('A' for Active; 'I' for Inactive)
REMARK    1  A    between atoms: C_1  and  N_2
REMARK    2  A    between atoms: N_2  and  C_3
REMARK    3  A    between atoms: N_2  and  C_9
REMARK    4  A    between atoms: C_3  and  C_4
REMARK    5  A    between atoms: C_9  and  C_10
REMARK    6  A    between atoms: N_12  and  C_25
REMARK    7  A    between atoms: C_14  and  C_16
REMARK                            x       y       z     vdW  Elec       q    Type
REMARK                         _______ _______ _______ _____ _____    ______ ____
ROOT
ATOM      1  C   UNL     1       2.304  -0.586   0.776  0.00  0.00    -0.048 C 
ATOM      2  C   UNL     1       3.069   0.418   1.156  0.00  0.00    +0.093 C 
ATOM      3  N   UNL     1       4.374   0.255   0.733  0.00  0.00    -0.242 N 
ATOM      4  N   UNL     1       4.521  -0.908   0.032  0.00  0.00    -0.225 NA
ATOM      5  C   UNL     1       3.189  -1.546   0.011  0.00  0.00    +0.129 C 
ATOM      6  H   UNL     1       5.200  -1.511   0.470  0.00  0.00    +0.146 HD
ENDROOT
BRANCH   5   7
ATOM      7  C   UNL     1       3.233  -2.885   0.700  0.00  0.00    -0.021 A 
ATOM      8  C   UNL     1       4.052  -3.070   1.798  0.00  0.00    +0.009 A 
ATOM      9  C   UNL     1       4.095  -4.297   2.433  0.00  0.00    +0.050 A 
ATOM     10  C   UNL     1       3.317  -5.346   1.970  0.00  0.00    +0.166 A 
ATOM     11  C   UNL     1       2.492  -5.160   0.863  0.00  0.00    +0.167 A 
ATOM     12  C   UNL     1       2.449  -3.925   0.235  0.00  0.00    +0.055 A 
ATOM     13  O   UNL     1       1.835  -6.329   0.607  0.00  0.00    -0.453 OA
ATOM     14  C   UNL     1       2.571  -7.345   1.313  0.00  0.00    +0.466 C 
ATOM     15  O   UNL     1       3.178  -6.631   2.406  0.00  0.00    -0.453 OA
ENDBRANCH   5   7
BRANCH   3  16
ATOM     16  C   UNL     1       5.407   1.160   0.989  0.00  0.00    +0.049 A 
ATOM     17  C   UNL     1       6.687   0.907   0.513  0.00  0.00    +0.025 A 
ATOM     18  C   UNL     1       7.706   1.804   0.767  0.00  0.00    +0.002 A 
ATOM     19  C   UNL     1       7.453   2.952   1.495  0.00  0.00    +0.000 A 
ATOM     20  C   UNL     1       6.179   3.207   1.970  0.00  0.00    +0.002 A 
ATOM     21  C   UNL     1       5.154   2.317   1.714  0.00  0.00    +0.025 A 
ENDBRANCH   3  16
BRANCH   1  22
ATOM     22  C   UNL     1       0.832  -0.749   1.056  0.00  0.00    -0.044 C 
BRANCH  22  24
ATOM     23  C   UNL     1       0.270   1.202  -0.221  0.00  0.00    -0.096 C 
ATOM     24  N   UNL     1       0.058  -0.245  -0.086  0.00  0.00    +0.383 N 
ATOM     25  H   UNL     1       0.361  -0.709  -0.929  0.00  0.00    -0.082 HD
BRANCH  24  26
ATOM     26  C   UNL     1      -1.370  -0.513   0.133  0.00  0.00    -0.028 C 
BRANCH  26  27
ATOM     27  C   UNL     1      -2.147  -0.221  -1.152  0.00  0.00    +0.204 C 
ATOM     28  N   UNL     1      -1.519  -0.906  -2.289  0.00  0.00    -0.266 NA
ATOM     29  C   UNL     1      -1.156   0.004  -3.130  0.00  0.00    +0.126 C 
ATOM     30  C   UNL     1      -1.515   1.333  -2.611  0.00  0.00    +0.126 C 
ATOM     31  N   UNL     1      -2.091   1.213  -1.463  0.00  0.00    -0.266 NA
ENDBRANCH  26  27
ENDBRANCH  24  26
ENDBRANCH  22  24
ENDBRANCH   1  22
TORSDOF 6
