REMARK  Name = ZINC33384550
REMARK  7 active torsions:
REMARK  status: ('A' for Active; 'I' for Inactive)
REMARK    1  A    between atoms: C_1  and  C_2
REMARK    2  A    between atoms: C_2  and  C_24
REMARK    3  A    between atoms: C_7  and  S_22
REMARK    4  A    between atoms: N_10  and  O_11
REMARK    5  A    between atoms: O_11  and  C_12
REMARK    6  A    between atoms: N_14  and  C_15
REMARK    7  A    between atoms: S_22  and  C_23
REMARK                            x       y       z     vdW  Elec       q    Type
REMARK                         _______ _______ _______ _____ _____    ______ ____
ROOT
ATOM      1  C   UNL     1       0.237   1.620   0.132  0.00  0.00    +0.011 C 
ATOM      2  C   UNL     1       0.105   0.097   0.086  0.00  0.00    -0.025 C 
ATOM      3  C   UNL     1       0.672  -0.419  -1.235  0.00  0.00    +0.043 C 
ATOM      4  C   UNL     1       0.645  -1.945  -1.234  0.00  0.00    -0.030 A 
ATOM      5  C   UNL     1       0.677  -2.652  -2.385  0.00  0.00    +0.050 A 
ATOM      6  S   UNL     1       0.623  -4.349  -1.853  0.00  0.00    -0.089 S 
ATOM      7  C   UNL     1       0.558  -4.091  -0.093  0.00  0.00    +0.054 A 
ATOM      8  C   UNL     1       0.582  -2.704   0.015  0.00  0.00    +0.023 A 
ATOM      9  C   UNL     1       0.550  -1.995   1.326  0.00  0.00    +0.090 C 
ATOM     10  N   UNL     1       0.276  -2.605   2.439  0.00  0.00    -0.077 NA
ATOM     11  C   UNL     1       0.862  -0.511   1.270  0.00  0.00    +0.066 C 
ATOM     12  C   UNL     1      -1.373  -0.285   0.183  0.00  0.00    +0.011 C 
ENDROOT
BRANCH   7  13
ATOM     13  S   UNL     1       0.482  -5.293   1.193  0.00  0.00    -0.121 S 
ATOM     14  C   UNL     1       0.485  -6.878   0.312  0.00  0.00    +0.090 C 
ENDBRANCH   7  13
BRANCH  10  15
ATOM     15  O   UNL     1      -0.547  -3.757   2.431  0.00  0.00    -0.299 OA
BRANCH  15  16
ATOM     16  C   UNL     1      -0.753  -4.292   3.648  0.00  0.00    +0.430 C 
ATOM     17  O   UNL     1      -0.247  -3.782   4.629  0.00  0.00    -0.224 OA
ATOM     18  N   UNL     1      -1.520  -5.392   3.780  0.00  0.00    -0.249 N 
ATOM     19  H   UNL     1      -1.861  -5.843   2.992  0.00  0.00    +0.158 HD
BRANCH  18  20
ATOM     20  C   UNL     1      -1.822  -5.885   5.055  0.00  0.00    +0.037 A 
ATOM     21  C   UNL     1      -1.937  -7.254   5.262  0.00  0.00    +0.023 A 
ATOM     22  C   UNL     1      -2.236  -7.737   6.521  0.00  0.00    +0.002 A 
ATOM     23  C   UNL     1      -2.420  -6.861   7.574  0.00  0.00    +0.000 A 
ATOM     24  C   UNL     1      -2.307  -5.497   7.371  0.00  0.00    +0.002 A 
ATOM     25  C   UNL     1      -2.003  -5.008   6.116  0.00  0.00    +0.023 A 
ENDBRANCH  18  20
ENDBRANCH  15  16
ENDBRANCH  10  15
TORSDOF 4
