REMARK  Name = ZINC09491889
REMARK  6 active torsions:
REMARK  status: ('A' for Active; 'I' for Inactive)
REMARK    1  A    between atoms: C_4  and  C_7
REMARK    2  A    between atoms: C_17  and  C_19
REMARK    3  A    between atoms: C_25  and  C_27
REMARK    4  A    between atoms: C_27  and  O_28
REMARK    5  A    between atoms: O_28  and  C_29
REMARK    6  A    between atoms: C_29  and  C_31
REMARK                            x       y       z     vdW  Elec       q    Type
REMARK                         _______ _______ _______ _____ _____    ______ ____
ROOT
ATOM      1  C   UNL     1       9.138  -2.206  -0.061  0.00  0.00    +0.013 C 
ATOM      2  C   UNL     1       8.550  -3.341  -0.490  0.00  0.00    -0.024 C 
ATOM      3  C   UNL     1       9.400  -4.510  -0.889  0.00  0.00    +0.037 C 
ATOM      4  C   UNL     1       8.637  -5.636  -1.555  0.00  0.00    +0.005 C 
ATOM      5  C   UNL     1       7.216  -5.808  -1.022  0.00  0.00    +0.012 C 
ATOM      6  C   UNL     1       6.431  -4.530  -1.325  0.00  0.00    +0.066 C 
ATOM      7  C   UNL     1       7.139  -3.414  -0.559  0.00  0.00    +0.068 C 
ATOM      8  N   UNL     1       6.240  -2.643  -0.055  0.00  0.00    -0.181 NA
ATOM      9  N   UNL     1       4.941  -3.158  -0.153  0.00  0.00    -0.182 N 
ATOM     10  C   UNL     1       5.044  -4.548  -0.654  0.00  0.00    +0.140 C 
ATOM     11  C   UNL     1       3.803  -2.508   0.159  0.00  0.00    +0.273 C 
ATOM     12  O   UNL     1       2.732  -3.064   0.032  0.00  0.00    -0.270 OA
ENDROOT
BRANCH   1  16
ATOM     13  C   UNL     1      13.326  -2.108   0.606  0.00  0.00    +0.000 A 
ATOM     14  C   UNL     1      12.584  -3.191   1.044  0.00  0.00    +0.001 A 
ATOM     15  C   UNL     1      11.222  -3.230   0.832  0.00  0.00    +0.008 A 
ATOM     16  C   UNL     1      10.591  -2.172   0.171  0.00  0.00    -0.025 A 
ATOM     17  C   UNL     1      11.348  -1.083  -0.274  0.00  0.00    +0.008 A 
ATOM     18  C   UNL     1      12.708  -1.057  -0.049  0.00  0.00    +0.001 A 
ENDBRANCH   1  16
BRANCH  10  19
ATOM     19  C   UNL     1       5.003  -5.536   0.483  0.00  0.00    -0.024 A 
ATOM     20  C   UNL     1       5.653  -5.253   1.669  0.00  0.00    +0.005 A 
ATOM     21  C   UNL     1       5.611  -6.157   2.714  0.00  0.00    +0.000 A 
ATOM     22  C   UNL     1       4.928  -7.350   2.568  0.00  0.00    +0.000 A 
ATOM     23  C   UNL     1       4.282  -7.636   1.380  0.00  0.00    +0.000 A 
ATOM     24  C   UNL     1       4.320  -6.730   0.337  0.00  0.00    +0.005 A 
ENDBRANCH  10  19
BRANCH  11  25
ATOM     25  C   UNL     1       3.860  -1.090   0.666  0.00  0.00    +0.330 C 
BRANCH  25  26
ATOM     26  O   UNL     1       2.513  -0.615   0.928  0.00  0.00    -0.451 OA
BRANCH  26  27
ATOM     27  C   UNL     1       2.387   0.645   1.391  0.00  0.00    +0.346 C 
ATOM     28  O   UNL     1       3.377   1.328   1.569  0.00  0.00    -0.245 OA
BRANCH  27  29
ATOM     29  C   UNL     1       1.054   1.192   1.679  0.00  0.00    +0.139 A 
ATOM     30  C   UNL     1       0.902   2.481   2.154  0.00  0.00    +0.107 A 
ATOM     31  N   UNL     1      -0.345   2.953   2.409  0.00  0.00    -0.314 N 
ATOM     32  H   UNL     1      -0.454   3.885   2.753  0.00  0.00    +0.170 HD
ATOM     33  C   UNL     1      -1.435   2.196   2.211  0.00  0.00    +0.327 A 
ATOM     34  O   UNL     1      -2.530   2.665   2.456  0.00  0.00    -0.247 OA
ATOM     35  N   UNL     1      -1.357   0.937   1.746  0.00  0.00    -0.274 N 
ATOM     36  H   UNL     1      -2.193   0.407   1.603  0.00  0.00    +0.173 HD
ATOM     37  C   UNL     1      -0.158   0.383   1.470  0.00  0.00    +0.268 A 
ATOM     38  O   UNL     1      -0.080  -0.758   1.054  0.00  0.00    -0.267 OA
ENDBRANCH  27  29
ENDBRANCH  26  27
ENDBRANCH  25  26
ENDBRANCH  11  25
TORSDOF 6
