REMARK  Name = ZINC20881816
REMARK  7 active torsions:
REMARK  status: ('A' for Active; 'I' for Inactive)
REMARK    1  A    between atoms: C_1  and  C_2
REMARK    2  A    between atoms: C_2  and  C_3
REMARK    3  A    between atoms: C_6  and  C_9
REMARK    4  A    between atoms: C_14  and  C_20
REMARK    5  A    between atoms: C_23  and  O_28
REMARK    6  A    between atoms: C_24  and  O_26
REMARK    7  A    between atoms: O_26  and  C_27
REMARK                            x       y       z     vdW  Elec       q    Type
REMARK                         _______ _______ _______ _____ _____    ______ ____
ROOT
ATOM      1  C   UNL     1      -4.233   2.466  -3.651  0.00  0.00    +0.032 C 
ATOM      2  C   UNL     1      -4.942   1.994  -2.380  0.00  0.00    +0.059 C 
ATOM      3  C   UNL     1      -4.127   2.381  -1.171  0.00  0.00    +0.018 C 
ATOM      4  C   UNL     1      -3.357   3.490  -1.181  0.00  0.00    +0.020 C 
ATOM      5  C   UNL     1      -2.559   3.864   0.046  0.00  0.00    +0.063 C 
ATOM      6  C   UNL     1      -3.343   3.474   1.300  0.00  0.00    +0.109 C 
ATOM      7  C   UNL     1      -3.835   2.057   1.154  0.00  0.00    +0.218 C 
ATOM      8  O   UNL     1      -3.916   1.341   2.129  0.00  0.00    -0.275 OA
ATOM      9  N   UNL     1      -4.184   1.585  -0.055  0.00  0.00    -0.289 N 
ATOM     10  C   UNL     1      -3.279   4.315  -2.315  0.00  0.00    +0.162 C 
ATOM     11  O   UNL     1      -2.584   5.311  -2.283  0.00  0.00    -0.292 OA
ATOM     12  C   UNL     1      -4.043   3.985  -3.570  0.00  0.00    +0.088 C 
ATOM     13  H   UNL     1      -4.519   0.541  -0.141  0.00  0.00    +0.155 HD
ENDROOT
BRANCH   1  17
ATOM     14  C   UNL     1      -6.612   1.499  -7.064  0.00  0.00    -0.048 A 
ATOM     15  C   UNL     1      -5.336   0.983  -6.943  0.00  0.00    +0.004 A 
ATOM     16  C   UNL     1      -4.566   1.296  -5.838  0.00  0.00    +0.004 A 
ATOM     17  C   UNL     1      -5.072   2.125  -4.855  0.00  0.00    -0.043 A 
ATOM     18  C   UNL     1      -6.351   2.637  -4.974  0.00  0.00    +0.004 A 
ATOM     19  C   UNL     1      -7.119   2.328  -6.080  0.00  0.00    +0.004 A 
BRANCH  14  21
ATOM     20  C   UNL     1      -8.266  -0.105  -7.981  0.00  0.00    +0.009 C 
ATOM     21  C   UNL     1      -7.452   1.158  -8.268  0.00  0.00    +0.032 C 
ENDBRANCH  14  21
ENDBRANCH   1  17
BRANCH   5  22
ATOM     22  C   UNL     1      -1.241   3.133   0.030  0.00  0.00    -0.036 A 
ATOM     23  C   UNL     1      -1.219   1.751   0.017  0.00  0.00    +0.008 A 
ATOM     24  C   UNL     1      -0.013   1.076   0.008  0.00  0.00    +0.049 A 
ATOM     25  C   UNL     1       1.178   1.785   0.000  0.00  0.00    +0.158 A 
ATOM     26  C   UNL     1       1.155   3.176   0.008  0.00  0.00    +0.162 A 
ATOM     27  C   UNL     1      -0.057   3.846   0.022  0.00  0.00    +0.053 A 
BRANCH  26  28
ATOM     28  O   UNL     1       2.321   3.877  -0.000  0.00  0.00    -0.491 OA
ATOM     29  C   UNL     1       2.221   5.302   0.008  0.00  0.00    +0.277 C 
ENDBRANCH  26  28
BRANCH  25  30
ATOM     30  O   UNL     1       2.365   1.123  -0.015  0.00  0.00    -0.503 OA
ATOM     31  H   UNL     1       3.310   1.687  -0.021  0.00  0.00    +0.292 HD
ENDBRANCH  25  30
ENDBRANCH   5  22
TORSDOF 5
