REMARK  Name = ZINC58158613
REMARK  11 active torsions:
REMARK  status: ('A' for Active; 'I' for Inactive)
REMARK    1  A    between atoms: C_1  and  C_2
REMARK    2  A    between atoms: C_2  and  C_3
REMARK    3  A    between atoms: C_3  and  N_4
REMARK    4  A    between atoms: N_4  and  C_5
REMARK    5  A    between atoms: C_5  and  C_6
REMARK    6  A    between atoms: N_21  and  C_22
REMARK    7  A    between atoms: C_22  and  C_23
REMARK    8  A    between atoms: C_28  and  C_29
REMARK    9  A    between atoms: C_29  and  N_30
REMARK   10  A    between atoms: N_30  and  C_31
REMARK   11  A    between atoms: N_30  and  C_32
REMARK                            x       y       z     vdW  Elec       q    Type
REMARK                         _______ _______ _______ _____ _____    ______ ____
ROOT
ATOM      1  N   UNL     1       1.192  -2.737  -1.245  0.00  0.00    -0.278 N 
ATOM      2  C   UNL     1       2.254  -3.203  -0.557  0.00  0.00    +0.303 C 
ATOM      3  O   UNL     1       2.408  -4.400  -0.414  0.00  0.00    -0.253 OA
ATOM      4  N   UNL     1       3.145  -2.340  -0.029  0.00  0.00    -0.295 N 
ATOM      5  H   UNL     1       3.022  -1.385  -0.143  0.00  0.00    +0.151 HD
ENDROOT
BRANCH   1   6
ATOM      6  C   UNL     1       1.006  -1.294  -1.418  0.00  0.00    +0.109 C 
BRANCH   6   8
ATOM      7  C   UNL     1      -0.021   0.762  -0.439  0.00  0.00    +0.005 C 
ATOM      8  C   UNL     1       0.173  -0.745  -0.258  0.00  0.00    +0.016 C 
ENDBRANCH   6   8
ENDBRANCH   1   6
BRANCH   1   9
ATOM      9  C   UNL     1       0.223  -3.674  -1.819  0.00  0.00    +0.183 C 
BRANCH   9  10
ATOM     10  C   UNL     1       0.648  -4.042  -3.217  0.00  0.00    +0.128 A 
ATOM     11  N   UNL     1      -0.131  -4.903  -3.922  0.00  0.00    -0.309 N 
ATOM     12  H   UNL     1      -0.937  -5.262  -3.519  0.00  0.00    +0.170 HD
ATOM     13  C   UNL     1       0.207  -5.266  -5.182  0.00  0.00    +0.259 A 
ATOM     14  O   UNL     1      -0.482  -6.036  -5.824  0.00  0.00    -0.267 OA
ATOM     15  C   UNL     1       1.438  -4.692  -5.744  0.00  0.00    +0.065 A 
ATOM     16  C   UNL     1       1.875  -4.999  -7.031  0.00  0.00    +0.017 A 
ATOM     17  C   UNL     1       3.027  -4.438  -7.506  0.00  0.00    +0.021 A 
ATOM     18  C   UNL     1       3.769  -3.565  -6.719  0.00  0.00    +0.043 A 
ATOM     19  C   UNL     1       3.359  -3.245  -5.443  0.00  0.00    +0.048 A 
ATOM     20  C   UNL     1       2.185  -3.805  -4.936  0.00  0.00    +0.080 A 
ATOM     21  N   UNL     1       1.738  -3.516  -3.688  0.00  0.00    -0.232 NA
ATOM     22 CL   UNL     1       5.228  -2.869  -7.351  0.00  0.00    -0.083 Cl
ENDBRANCH   9  10
ENDBRANCH   1   9
BRANCH   4  23
ATOM     23  C   UNL     1       4.299  -2.846   0.718  0.00  0.00    +0.141 C 
BRANCH  23  24
ATOM     24  C   UNL     1       5.153  -1.689   1.168  0.00  0.00    -0.029 A 
ATOM     25  C   UNL     1       6.261  -1.318   0.427  0.00  0.00    +0.005 A 
ATOM     26  C   UNL     1       7.044  -0.257   0.840  0.00  0.00    +0.000 A 
ATOM     27  C   UNL     1       6.719   0.435   1.992  0.00  0.00    +0.000 A 
ATOM     28  C   UNL     1       5.612   0.066   2.731  0.00  0.00    +0.002 A 
ATOM     29  C   UNL     1       4.826  -0.994   2.317  0.00  0.00    -0.059 A 
BRANCH  29  30
ATOM     30  C   UNL     1       3.615  -1.393   3.120  0.00  0.00    -0.043 C 
BRANCH  30  31
ATOM     31  N   UNL     1       2.409  -0.822   2.506  0.00  0.00    +0.379 N 
ATOM     32  C   UNL     1       1.218  -1.331   3.199  0.00  0.00    -0.096 C 
ATOM     33  C   UNL     1       2.451   0.642   2.614  0.00  0.00    -0.096 C 
ATOM     34  H   UNL     1       2.370  -1.087   1.533  0.00  0.00    -0.082 HD
ENDBRANCH  30  31
ENDBRANCH  29  30
ENDBRANCH  23  24
ENDBRANCH   4  23
TORSDOF 8
