REMARK  Name = ZINC16066239
REMARK  6 active torsions:
REMARK  status: ('A' for Active; 'I' for Inactive)
REMARK    1  A    between atoms: C_1  and  C_2
REMARK    2  A    between atoms: C_2  and  C_4
REMARK    3  A    between atoms: C_2  and  S_14
REMARK    4  A    between atoms: N_6  and  C_7
REMARK    5  A    between atoms: S_14  and  C_15
REMARK    6  A    between atoms: N_19  and  C_30
REMARK                            x       y       z     vdW  Elec       q    Type
REMARK                         _______ _______ _______ _____ _____    ______ ____
ROOT
ATOM      1  C   UNL     1       0.379   7.844  -0.505  0.00  0.00    +0.172 A 
ATOM      2  N   UNL     1      -0.123   6.698  -0.882  0.00  0.00    -0.202 NA
ATOM      3  C   UNL     1       0.466   5.538  -0.498  0.00  0.00    +0.190 A 
ATOM      4  N   UNL     1       0.223   4.267  -0.686  0.00  0.00    -0.143 NA
ATOM      5  N   UNL     1       1.182   3.474  -0.052  0.00  0.00    -0.194 N 
ATOM      6  C   UNL     1       2.088   4.248   0.583  0.00  0.00    +0.284 A 
ATOM      7  O   UNL     1       3.050   3.871   1.232  0.00  0.00    -0.265 OA
ATOM      8  C   UNL     1       1.686   5.629   0.333  0.00  0.00    +0.106 A 
ATOM      9  C   UNL     1       2.167   6.871   0.689  0.00  0.00    +0.037 A 
ATOM     10  N   UNL     1       1.501   7.965   0.287  0.00  0.00    -0.323 N 
ATOM     11  C   UNL     1       1.884   9.335   0.656  0.00  0.00    +0.124 C 
ATOM     12  C   UNL     1       3.390   9.468   0.869  0.00  0.00    +0.022 C 
ATOM     13  C   UNL     1       3.697   9.230   2.352  0.00  0.00    +0.002 C 
ATOM     14  C   UNL     1       3.242   7.824   2.734  0.00  0.00    +0.006 C 
ATOM     15  C   UNL     1       3.429   6.931   1.504  0.00  0.00    +0.054 C 
ENDROOT
BRANCH   5  16
ATOM     16  C   UNL     1       1.198   2.075  -0.067  0.00  0.00    +0.069 A 
ATOM     17  C   UNL     1       0.004   1.365  -0.056  0.00  0.00    +0.028 A 
ATOM     18  C   UNL     1       0.024  -0.016  -0.071  0.00  0.00    +0.002 A 
ATOM     19  C   UNL     1       1.230  -0.692  -0.097  0.00  0.00    +0.000 A 
ATOM     20  C   UNL     1       2.420   0.012  -0.107  0.00  0.00    +0.002 A 
ATOM     21  C   UNL     1       2.408   1.393  -0.092  0.00  0.00    +0.028 A 
ENDBRANCH   5  16
BRANCH   1  22
ATOM     22  S   UNL     1      -0.423   9.319  -1.040  0.00  0.00    -0.075 S 
BRANCH  22  24
ATOM     23  C   UNL     1      -1.204   7.868  -3.219  0.00  0.00    +0.029 C 
ATOM     24  C   UNL     1      -1.777   8.607  -2.008  0.00  0.00    +0.137 C 
BRANCH  24  25
ATOM     25  C   UNL     1      -2.692   9.708  -2.478  0.00  0.00    +0.230 C 
ATOM     26  O   UNL     1      -2.267  10.838  -2.603  0.00  0.00    -0.274 OA
ATOM     27  N   UNL     1      -3.982   9.438  -2.761  0.00  0.00    -0.283 N 
ATOM     28  H   UNL     1      -4.305   8.525  -2.725  0.00  0.00    +0.155 HD
BRANCH  27  29
ATOM     29  C   UNL     1      -4.854  10.477  -3.107  0.00  0.00    +0.052 A 
ATOM     30  C   UNL     1      -4.390  11.561  -3.840  0.00  0.00    +0.025 A 
ATOM     31  C   UNL     1      -5.255  12.581  -4.185  0.00  0.00    +0.002 A 
ATOM     32  C   UNL     1      -6.579  12.530  -3.792  0.00  0.00    +0.002 A 
ATOM     33  C   UNL     1      -7.045  11.455  -3.057  0.00  0.00    +0.022 A 
ATOM     34  C   UNL     1      -6.186  10.428  -2.713  0.00  0.00    +0.062 A 
ATOM     35 CL   UNL     1      -6.770   9.079  -1.790  0.00  0.00    -0.082 Cl
ENDBRANCH  27  29
ENDBRANCH  24  25
ENDBRANCH  22  24
ENDBRANCH   1  22
TORSDOF 5
