REMARK  Name = ZINC04280971
REMARK  7 active torsions:
REMARK  status: ('A' for Active; 'I' for Inactive)
REMARK    1  A    between atoms: C_1  and  C_2
REMARK    2  A    between atoms: C_3  and  N_17
REMARK    3  A    between atoms: C_4  and  O_16
REMARK    4  A    between atoms: N_5  and  C_7
REMARK    5  A    between atoms: C_10  and  S_13
REMARK    6  A    between atoms: N_18  and  C_19
REMARK    7  A    between atoms: C_24  and  C_25
REMARK                            x       y       z     vdW  Elec       q    Type
REMARK                         _______ _______ _______ _____ _____    ______ ____
ROOT
ATOM      1  C   UNL     1      -6.100   3.089   6.904  0.00  0.00    +0.070 C 
ATOM      2  C   UNL     1      -4.753   3.225   6.243  0.00  0.00    +0.091 A 
ATOM      3  C   UNL     1      -3.648   3.950   6.751  0.00  0.00    +0.170 A 
ATOM      4  C   UNL     1      -2.613   3.813   5.830  0.00  0.00    +0.244 A 
ATOM      5  N   UNL     1      -3.078   3.044   4.822  0.00  0.00    -0.198 N 
ATOM      6  N   UNL     1      -4.405   2.700   5.101  0.00  0.00    -0.166 NA
ENDROOT
BRANCH   5   7
ATOM      7  C   UNL     1      -2.355   2.659   3.684  0.00  0.00    +0.069 A 
ATOM      8  C   UNL     1      -2.560   1.408   3.119  0.00  0.00    +0.030 A 
ATOM      9  C   UNL     1      -1.846   1.032   1.999  0.00  0.00    +0.031 A 
ATOM     10  C   UNL     1      -0.927   1.900   1.439  0.00  0.00    +0.120 A 
ATOM     11  C   UNL     1      -0.716   3.145   2.003  0.00  0.00    +0.031 A 
ATOM     12  C   UNL     1      -1.431   3.529   3.120  0.00  0.00    +0.030 A 
BRANCH  10  13
ATOM     13  S   UNL     1      -0.017   1.417   0.010  0.00  0.00    +0.140 S 
ATOM     14  O   UNL     1       0.002  -0.004   0.002  0.00  0.00    -0.140 OA
ATOM     15  O   UNL     1       1.172   2.195   0.003  0.00  0.00    -0.140 OA
ATOM     16  O   UNL     1      -0.826   1.847  -1.205  0.00  0.00    -0.043 OA
ENDBRANCH  10  13
ENDBRANCH   5   7
BRANCH   4  17
ATOM     17  O   UNL     1      -1.374   4.350   5.926  0.00  0.00    -0.491 OA
ATOM     18  H   UNL     1      -1.294   5.229   5.532  0.00  0.00    +0.294 HD
ENDBRANCH   4  17
BRANCH   3  19
ATOM     19  N   UNL     1      -3.607   4.648   7.916  0.00  0.00    -0.142 NA
ATOM     20  N   UNL     1      -2.528   5.267   8.258  0.00  0.00    -0.148 NA
BRANCH  20  21
ATOM     21  C   UNL     1      -2.486   5.969   9.429  0.00  0.00    +0.100 A 
ATOM     22  C   UNL     1      -3.608   6.019  10.258  0.00  0.00    +0.030 A 
ATOM     23  C   UNL     1      -3.560   6.729  11.440  0.00  0.00    +0.002 A 
ATOM     24  C   UNL     1      -2.403   7.395  11.813  0.00  0.00    +0.001 A 
ATOM     25  C   UNL     1      -1.284   7.359  11.008  0.00  0.00    +0.017 A 
ATOM     26  C   UNL     1      -1.308   6.642   9.811  0.00  0.00    +0.090 A 
BRANCH  26  27
ATOM     27  C   UNL     1      -0.113   6.595   8.950  0.00  0.00    +0.389 C 
ATOM     28  O   UNL     1      -0.141   5.973   7.906  0.00  0.00    -0.241 OA
ATOM     29  O   UNL     1       1.011   7.240   9.320  0.00  0.00    -0.241 OA
ENDBRANCH  26  27
ENDBRANCH  20  21
ENDBRANCH   3  19
TORSDOF 6
