REMARK  Name = ZINC60339666
REMARK  13 active torsions:
REMARK  status: ('A' for Active; 'I' for Inactive)
REMARK    1  A    between atoms: C_1  and  C_2
REMARK    2  A    between atoms: C_2  and  C_3
REMARK    3  A    between atoms: C_2  and  C_4
REMARK    4  A    between atoms: C_2  and  O_5
REMARK    5  A    between atoms: O_5  and  C_6
REMARK    6  A    between atoms: N_8  and  C_9
REMARK    7  A    between atoms: N_8  and  C_10
REMARK    8  A    between atoms: C_10  and  C_11
REMARK    9  A    between atoms: N_16  and  C_18
REMARK   10  A    between atoms: C_18  and  C_19
REMARK   11  A    between atoms: N_21  and  C_22
REMARK   12  A    between atoms: N_26  and  C_27
REMARK   13  A    between atoms: C_27  and  C_28
REMARK                            x       y       z     vdW  Elec       q    Type
REMARK                         _______ _______ _______ _____ _____    ______ ____
ROOT
ATOM      1  C   UNL     1       4.960  -1.103  -1.952  0.00  0.00    -0.010 C 
ATOM      2  C   UNL     1       4.732  -1.113  -0.438  0.00  0.00    +0.001 C 
ATOM      3  C   UNL     1       5.716  -2.091   0.210  0.00  0.00    -0.018 C 
ATOM      4  C   UNL     1       7.145  -1.688  -0.159  0.00  0.00    -0.078 C 
ATOM      5  N   UNL     1       7.306  -1.724  -1.617  0.00  0.00    +0.386 N 
ATOM      6  C   UNL     1       6.417  -0.737  -2.242  0.00  0.00    -0.073 C 
ATOM      7  H   UNL     1       7.076  -2.645  -1.958  0.00  0.00    -0.081 HD
ENDROOT
BRANCH   1   8
ATOM      8  C   UNL     1       4.035  -0.071  -2.601  0.00  0.00    +0.112 C 
BRANCH   8  11
ATOM      9  C   UNL     1       1.952  -0.085  -1.337  0.00  0.00    +0.403 C 
ATOM     10  O   UNL     1       2.488   0.619  -0.503  0.00  0.00    -0.226 OA
ATOM     11  N   UNL     1       2.641  -0.485  -2.424  0.00  0.00    -0.270 N 
ATOM     12  C   UNL     1       1.995  -1.333  -3.429  0.00  0.00    +0.135 C 
BRANCH   9  13
ATOM     13  O   UNL     1       0.671  -0.465  -1.174  0.00  0.00    -0.445 OA
BRANCH  13  15
ATOM     14  C   UNL     1      -0.019   1.526   0.010  0.00  0.00    +0.055 C 
ATOM     15  C   UNL     1       0.002  -0.004   0.002  0.00  0.00    +0.107 C 
ATOM     16  C   UNL     1       0.742  -0.511   1.242  0.00  0.00    +0.055 C 
ATOM     17  C   UNL     1      -1.433  -0.534   0.013  0.00  0.00    +0.055 C 
ENDBRANCH  13  15
ENDBRANCH   9  13
ENDBRANCH   8  11
ENDBRANCH   1   8
BRANCH   5  18
ATOM     18  C   UNL     1       8.700  -1.412  -1.962  0.00  0.00    +0.019 C 
BRANCH  18  19
ATOM     19  C   UNL     1       9.603  -2.497  -1.434  0.00  0.00    +0.202 C 
ATOM     20  O   UNL     1       9.132  -3.437  -0.830  0.00  0.00    -0.278 OA
ATOM     21  N   UNL     1      10.934  -2.422  -1.633  0.00  0.00    -0.272 N 
ATOM     22  H   UNL     1      11.310  -1.670  -2.116  0.00  0.00    +0.156 HD
BRANCH  21  23
ATOM     23  C   UNL     1      11.769  -3.426  -1.144  0.00  0.00    +0.123 A 
ATOM     24  C   UNL     1      11.378  -4.535  -0.458  0.00  0.00    +0.065 A 
ATOM     25  C   UNL     1      12.523  -5.277  -0.156  0.00  0.00    +0.136 A 
ATOM     26  N   UNL     1      13.562  -4.645  -0.639  0.00  0.00    -0.178 NA
ATOM     27  N   UNL     1      13.115  -3.478  -1.271  0.00  0.00    -0.246 N 
BRANCH  27  28
ATOM     28  C   UNL     1      13.956  -2.487  -1.947  0.00  0.00    +0.187 C 
BRANCH  28  29
ATOM     29  C   UNL     1      14.387  -1.435  -0.958  0.00  0.00    +0.011 A 
ATOM     30  C   UNL     1      15.489  -1.405  -0.170  0.00  0.00    +0.013 A 
ATOM     31  C   UNL     1      15.683  -0.325   0.671  0.00  0.00    +0.008 A 
ATOM     32  C   UNL     1      14.764   0.671   0.683  0.00  0.00    +0.045 A 
ATOM     33  S   UNL     1      13.582   0.098  -0.525  0.00  0.00    -0.100 S 
ENDBRANCH  28  29
ENDBRANCH  27  28
ENDBRANCH  21  23
ENDBRANCH  18  19
ENDBRANCH   5  18
TORSDOF 9
