REMARK  Name = ZINC15304071
REMARK  6 active torsions:
REMARK  status: ('A' for Active; 'I' for Inactive)
REMARK    1  A    between atoms: C_2  and  C_3
REMARK    2  A    between atoms: C_3  and  N_4
REMARK    3  A    between atoms: C_5  and  C_26
REMARK    4  A    between atoms: N_9  and  C_10
REMARK    5  A    between atoms: C_13  and  C_16
REMARK    6  A    between atoms: C_30  and  N_32
REMARK                            x       y       z     vdW  Elec       q    Type
REMARK                         _______ _______ _______ _____ _____    ______ ____
ROOT
ATOM      1  N   UNL     1      -4.619   2.096  -1.322  0.00  0.00    -0.317 N 
ATOM      2  C   UNL     1      -4.073   2.044  -2.540  0.00  0.00    +0.058 A 
ATOM      3  C   UNL     1      -4.712   2.723  -3.590  0.00  0.00    +0.075 A 
ATOM      4  S   UNL     1      -6.083   3.429  -2.796  0.00  0.00    -0.059 S 
ATOM      5  C   UNL     1      -5.771   2.816  -1.149  0.00  0.00    +0.152 A 
ATOM      6  N   UNL     1      -6.475   3.006  -0.044  0.00  0.00    -0.336 N 
ATOM      7  H   UNL     1      -6.102   2.625   0.918  0.00  0.00    +0.168 HD
ENDROOT
BRANCH   6   8
ATOM      8  C   UNL     1      -7.640   3.662  -0.097  0.00  0.00    +0.041 A 
ATOM      9  C   UNL     1      -7.665   5.072  -0.019  0.00  0.00    +0.026 A 
ATOM     10  C   UNL     1      -8.850   5.734  -0.079  0.00  0.00    +0.013 A 
ATOM     11  C   UNL     1     -10.052   5.017  -0.207  0.00  0.00    +0.019 A 
ATOM     12  C   UNL     1     -10.033   3.614  -0.280  0.00  0.00    +0.013 A 
ATOM     13  C   UNL     1      -8.851   2.944  -0.227  0.00  0.00    +0.026 A 
BRANCH  11  14
ATOM     14  C   UNL     1     -11.333   5.737  -0.265  0.00  0.00    +0.164 A 
ATOM     15  N   UNL     1     -11.559   6.978   0.132  0.00  0.00    -0.129 NA
ATOM     16  N   UNL     1     -12.793   7.277  -0.078  0.00  0.00    -0.134 NA
ATOM     17  C   UNL     1     -13.414   6.256  -0.615  0.00  0.00    +0.134 A 
ATOM     18  N   UNL     1     -12.519   5.255  -0.746  0.00  0.00    -0.311 N 
ATOM     19  C   UNL     1     -12.781   3.913  -1.266  0.00  0.00    +0.125 C 
ATOM     20  C   UNL     1     -13.936   3.976  -2.270  0.00  0.00    +0.022 C 
ATOM     21  C   UNL     1     -15.264   3.781  -1.540  0.00  0.00    +0.002 C 
ATOM     22  C   UNL     1     -15.477   4.891  -0.514  0.00  0.00    +0.008 C 
ATOM     23  C   UNL     1     -14.861   6.194  -1.033  0.00  0.00    +0.076 C 
ENDBRANCH  11  14
ENDBRANCH   6   8
BRANCH   2  24
ATOM     24  C   UNL     1      -2.834   1.287  -2.777  0.00  0.00    +0.001 A 
ATOM     25  C   UNL     1      -2.650   0.032  -2.182  0.00  0.00    +0.010 A 
ATOM     26  C   UNL     1      -1.484  -0.668  -2.406  0.00  0.00    +0.003 A 
ATOM     27  C   UNL     1      -0.500  -0.139  -3.224  0.00  0.00    +0.033 A 
ATOM     28  C   UNL     1      -0.676   1.099  -3.821  0.00  0.00    +0.127 A 
ATOM     29  C   UNL     1      -1.833   1.815  -3.604  0.00  0.00    +0.042 A 
BRANCH  28  30
ATOM     30  N   UNL     1       0.382   1.654  -4.694  0.00  0.00    +0.056 N 
ATOM     31  O   UNL     1       1.489   0.972  -4.904  0.00  0.00    -0.126 OA
ATOM     32  O   UNL     1       0.217   2.831  -5.263  0.00  0.00    -0.126 OA
ENDBRANCH  28  30
ENDBRANCH   2  24
BRANCH   1  33
ATOM     33  C   UNL     1      -3.996   1.400  -0.193  0.00  0.00    +0.151 C 
BRANCH  33  35
ATOM     34  C   UNL     1      -4.739   1.673   2.117  0.00  0.00    +0.005 C 
ATOM     35  C   UNL     1      -4.181   2.213   1.062  0.00  0.00    -0.013 C 
ENDBRANCH  33  35
ENDBRANCH   1  33
TORSDOF 6
