REMARK  Name = ZINC03419128
REMARK  10 active torsions:
REMARK  status: ('A' for Active; 'I' for Inactive)
REMARK    1  A    between atoms: C_1  and  O_2
REMARK    2  A    between atoms: O_2  and  C_3
REMARK    3  A    between atoms: C_6  and  N_11
REMARK    4  A    between atoms: C_8  and  O_9
REMARK    5  A    between atoms: O_9  and  C_10
REMARK    6  A    between atoms: C_21  and  N_22
REMARK    7  A    between atoms: N_22  and  C_23
REMARK    8  A    between atoms: C_23  and  C_24
REMARK    9  A    between atoms: C_24  and  C_26
REMARK   10  A    between atoms: C_24  and  N_31
REMARK                            x       y       z     vdW  Elec       q    Type
REMARK                         _______ _______ _______ _____ _____    ______ ____
ROOT
ATOM      1  N   UNL     1      -1.925  -1.893   6.726  0.00  0.00    -0.202 N 
ATOM      2  C   UNL     1      -1.539  -2.809   5.823  0.00  0.00    +0.258 C 
ATOM      3  O   UNL     1      -1.389  -3.965   6.171  0.00  0.00    -0.269 OA
ATOM      4  C   UNL     1      -1.297  -2.439   4.423  0.00  0.00    +0.046 A 
ATOM      5  C   UNL     1      -0.897  -3.386   3.480  0.00  0.00    +0.014 A 
ATOM      6  C   UNL     1      -0.679  -2.999   2.175  0.00  0.00    +0.001 A 
ATOM      7  C   UNL     1      -0.854  -1.678   1.789  0.00  0.00    +0.001 A 
ATOM      8  C   UNL     1      -1.250  -0.726   2.706  0.00  0.00    +0.009 A 
ATOM      9  C   UNL     1      -1.474  -1.097   4.027  0.00  0.00    +0.000 A 
ATOM     10  C   UNL     1      -1.899  -0.117   5.049  0.00  0.00    +0.059 C 
ATOM     11  C   UNL     1      -2.089   1.208   4.725  0.00  0.00    +0.081 C 
ATOM     12  C   UNL     1      -2.106  -0.598   6.420  0.00  0.00    +0.259 C 
ATOM     13  O   UNL     1      -2.451   0.185   7.287  0.00  0.00    -0.269 OA
ENDROOT
BRANCH   1  17
ATOM     14  C   UNL     1      -2.578  -3.119  10.663  0.00  0.00    +0.162 A 
ATOM     15  C   UNL     1      -3.643  -2.704   9.879  0.00  0.00    +0.051 A 
ATOM     16  C   UNL     1      -3.426  -2.298   8.576  0.00  0.00    +0.028 A 
ATOM     17  C   UNL     1      -2.142  -2.305   8.049  0.00  0.00    +0.048 A 
ATOM     18  C   UNL     1      -1.074  -2.725   8.829  0.00  0.00    +0.073 A 
ATOM     19  C   UNL     1      -1.289  -3.127  10.137  0.00  0.00    +0.163 A 
BRANCH  14  21
ATOM     20  C   UNL     1      -4.139  -3.485  12.419  0.00  0.00    +0.277 C 
ATOM     21  O   UNL     1      -2.792  -3.519  11.945  0.00  0.00    -0.491 OA
ENDBRANCH  14  21
BRANCH  19  22
ATOM     22  O   UNL     1      -0.243  -3.535  10.905  0.00  0.00    -0.491 OA
ATOM     23  C   UNL     1       1.051  -3.517  10.300  0.00  0.00    +0.277 C 
ENDBRANCH  19  22
ENDBRANCH   1  17
BRANCH  11  24
ATOM     24  N   UNL     1      -2.476   1.552   3.469  0.00  0.00    -0.350 N 
ATOM     25  H   UNL     1      -2.743   0.770   2.743  0.00  0.00    +0.145 HD
BRANCH  24  26
ATOM     26  C   UNL     1      -2.538   2.964   3.083  0.00  0.00    +0.093 C 
BRANCH  26  27
ATOM     27  C   UNL     1      -3.861   3.566   3.562  0.00  0.00    +0.016 C 
BRANCH  27  28
ATOM     28  N   UNL     1      -4.981   2.829   2.960  0.00  0.00    +0.387 N 
ATOM     29  C   UNL     1      -4.996   1.423   3.417  0.00  0.00    -0.078 C 
ATOM     30  C   UNL     1      -6.497   1.046   3.484  0.00  0.00    -0.020 C 
ATOM     31  C   UNL     1      -7.130   2.367   3.994  0.00  0.00    -0.020 C 
ATOM     32  C   UNL     1      -6.271   3.451   3.310  0.00  0.00    -0.078 C 
ATOM     33  H   UNL     1      -4.836   2.866   1.870  0.00  0.00    -0.081 HD
ENDBRANCH  27  28
BRANCH  27  34
ATOM     34  C   UNL     1      -3.932   5.013   3.149  0.00  0.00    +0.093 A 
ATOM     35  C   UNL     1      -3.675   6.070   3.940  0.00  0.00    +0.043 A 
ATOM     36  C   UNL     1      -3.862   7.228   3.151  0.00  0.00    +0.041 A 
ATOM     37  C   UNL     1      -4.223   6.809   1.925  0.00  0.00    +0.195 A 
ATOM     38  O   UNL     1      -4.259   5.467   1.928  0.00  0.00    -0.469 OA
ENDBRANCH  27  34
ENDBRANCH  26  27
ENDBRANCH  24  26
ENDBRANCH  11  24
TORSDOF 8
