REMARK  Name = ZINC12497408
REMARK  13 active torsions:
REMARK  status: ('A' for Active; 'I' for Inactive)
REMARK    1  A    between atoms: C_1  and  C_2
REMARK    2  A    between atoms: C_5  and  N_8
REMARK    3  A    between atoms: C_13  and  C_28
REMARK    4  A    between atoms: C_15  and  C_20
REMARK    5  A    between atoms: C_15  and  C_24
REMARK    6  A    between atoms: C_20  and  C_21
REMARK    7  A    between atoms: C_21  and  S_22
REMARK    8  A    between atoms: S_22  and  C_23
REMARK    9  A    between atoms: C_24  and  O_26
REMARK   10  A    between atoms: O_26  and  C_27
REMARK   11  A    between atoms: C_31  and  O_36
REMARK   12  A    between atoms: C_32  and  O_34
REMARK   13  A    between atoms: O_34  and  C_35
REMARK                            x       y       z     vdW  Elec       q    Type
REMARK                         _______ _______ _______ _____ _____    ______ ____
ROOT
ATOM      1  N   UNL     1      -2.351   0.967   0.077  0.00  0.00    -0.210 N 
ATOM      2  C   UNL     1      -2.461  -0.394   0.042  0.00  0.00    +0.229 C 
ATOM      3  O   UNL     1      -1.595  -1.191  -0.249  0.00  0.00    -0.275 OA
ATOM      4  C   UNL     1      -3.882  -0.699   0.444  0.00  0.00    +0.077 C 
ATOM      5  C   UNL     1      -4.655  -1.766  -0.333  0.00  0.00    -0.027 C 
ATOM      6  C   UNL     1      -5.959   0.269  -0.172  0.00  0.00    +0.044 C 
ATOM      7  C   UNL     1      -4.520   0.568  -0.253  0.00  0.00    +0.086 C 
ATOM      8  C   UNL     1      -3.570   1.598   0.087  0.00  0.00    +0.229 C 
ATOM      9  O   UNL     1      -3.798   2.764   0.330  0.00  0.00    -0.275 OA
ATOM     10  N   UNL     1      -5.994  -1.171  -0.581  0.00  0.00    +0.395 N 
ATOM     11  H   UNL     1      -6.702  -1.670  -0.031  0.00  0.00    -0.083 HD
ATOM     12  H   UNL     1      -6.224  -1.241  -1.579  0.00  0.00    -0.083 HD
ENDROOT
BRANCH   1  17
ATOM     13  C   UNL     1       2.612   3.719   0.134  0.00  0.00    +0.044 C 
ATOM     14  C   UNL     1       1.295   2.988   0.122  0.00  0.00    -0.050 A 
ATOM     15  C   UNL     1       1.272   1.606   0.093  0.00  0.00    +0.005 A 
ATOM     16  C   UNL     1       0.066   0.933   0.082  0.00  0.00    +0.024 A 
ATOM     17  C   UNL     1      -1.125   1.647   0.094  0.00  0.00    +0.044 A 
ATOM     18  C   UNL     1      -1.099   3.034   0.128  0.00  0.00    +0.024 A 
ATOM     19  C   UNL     1       0.110   3.701   0.140  0.00  0.00    +0.005 A 
ENDBRANCH   1  17
BRANCH   5  20
ATOM     20  C   UNL     1      -3.963  -2.064  -1.638  0.00  0.00    -0.057 A 
ATOM     21  C   UNL     1      -3.050  -3.099  -1.714  0.00  0.00    +0.006 A 
ATOM     22  C   UNL     1      -2.412  -3.376  -2.909  0.00  0.00    +0.049 A 
ATOM     23  C   UNL     1      -2.689  -2.617  -4.035  0.00  0.00    +0.158 A 
ATOM     24  C   UNL     1      -3.609  -1.575  -3.958  0.00  0.00    +0.161 A 
ATOM     25  C   UNL     1      -4.248  -1.306  -2.759  0.00  0.00    +0.051 A 
BRANCH  24  26
ATOM     26  O   UNL     1      -3.884  -0.827  -5.060  0.00  0.00    -0.491 OA
ATOM     27  C   UNL     1      -4.839   0.226  -4.908  0.00  0.00    +0.277 C 
ENDBRANCH  24  26
BRANCH  23  28
ATOM     28  O   UNL     1      -2.063  -2.888  -5.211  0.00  0.00    -0.503 OA
ATOM     29  H   UNL     1      -2.531  -3.524  -5.768  0.00  0.00    +0.292 HD
ENDBRANCH  23  28
ENDBRANCH   5  20
BRANCH   6  30
ATOM     30  C   UNL     1      -6.742   1.127  -1.131  0.00  0.00    +0.297 C 
ATOM     31  O   UNL     1      -6.298   2.193  -1.488  0.00  0.00    -0.252 OA
BRANCH  30  32
ATOM     32  O   UNL     1      -7.932   0.709  -1.589  0.00  0.00    -0.469 OA
ATOM     33  C   UNL     1      -8.630   1.587  -2.510  0.00  0.00    +0.280 C 
ENDBRANCH  30  32
ENDBRANCH   6  30
BRANCH   6  34
ATOM     34  C   UNL     1      -6.473   0.443   1.259  0.00  0.00    +0.010 C 
BRANCH  34  35
ATOM     35  C   UNL     1      -7.937   0.005   1.331  0.00  0.00    +0.068 C 
BRANCH  35  36
ATOM     36  S   UNL     1      -8.547   0.211   3.027  0.00  0.00    -0.164 S 
ATOM     37  C   UNL     1     -10.272  -0.344   2.944  0.00  0.00    +0.084 C 
ENDBRANCH  35  36
ENDBRANCH  34  35
ENDBRANCH   6  34
TORSDOF 9
