REMARK  Name = ZINC58440610
REMARK  7 active torsions:
REMARK  status: ('A' for Active; 'I' for Inactive)
REMARK    1  A    between atoms: C_1  and  C_2
REMARK    2  A    between atoms: C_11  and  N_13
REMARK    3  A    between atoms: N_16  and  C_17
REMARK    4  A    between atoms: C_17  and  C_19
REMARK    5  A    between atoms: C_17  and  C_20
REMARK    6  A    between atoms: C_20  and  C_22
REMARK    7  A    between atoms: C_20  and  O_29
REMARK                            x       y       z     vdW  Elec       q    Type
REMARK                         _______ _______ _______ _____ _____    ______ ____
ROOT
ATOM      1  N   UNL     1       0.088  -2.967   4.784  0.00  0.00    -0.269 N 
ATOM      2  C   UNL     1       0.192  -2.331   5.967  0.00  0.00    +0.304 C 
ATOM      3  O   UNL     1       0.175  -1.116   6.007  0.00  0.00    -0.252 OA
ATOM      4  N   UNL     1       0.314  -3.041   7.106  0.00  0.00    -0.294 N 
ATOM      5  H   UNL     1       0.024  -3.935   4.757  0.00  0.00    +0.156 HD
ATOM      6  H   UNL     1       0.328  -4.010   7.074  0.00  0.00    +0.151 HD
ENDROOT
BRANCH   1  17
ATOM      7  C   UNL     1      -0.783  -0.469  -1.198  0.00  0.00    +0.045 C 
ATOM      8  C   UNL     1       0.023  -0.018  -0.007  0.00  0.00    -0.033 A 
ATOM      9  C   UNL     1       0.757   1.124  -0.053  0.00  0.00    +0.096 A 
ATOM     10  C   UNL     1       1.502   1.526   1.074  0.00  0.00    +0.337 A 
ATOM     11  O   UNL     1       2.155   2.552   1.019  0.00  0.00    -0.245 OA
ATOM     12  O   UNL     1       1.509   0.806   2.207  0.00  0.00    -0.422 OA
ATOM     13  C   UNL     1       0.802  -0.339   2.320  0.00  0.00    +0.141 A 
ATOM     14  C   UNL     1       0.031  -0.795   1.234  0.00  0.00    +0.021 A 
ATOM     15  C   UNL     1      -0.709  -1.978   1.347  0.00  0.00    +0.013 A 
ATOM     16  C   UNL     1      -0.684  -2.684   2.515  0.00  0.00    +0.024 A 
ATOM     17  C   UNL     1       0.073  -2.235   3.596  0.00  0.00    +0.038 A 
ATOM     18  C   UNL     1       0.821  -1.070   3.497  0.00  0.00    +0.070 A 
ENDBRANCH   1  17
BRANCH   4  19
ATOM     19  C   UNL     1       0.427  -2.349   8.392  0.00  0.00    +0.104 C 
ATOM     20  C   UNL     1      -0.971  -2.022   8.919  0.00  0.00    +0.031 C 
BRANCH  19  21
ATOM     21  C   UNL     1       1.152  -3.250   9.394  0.00  0.00    +0.164 C 
BRANCH  21  22
ATOM     22  C   UNL     1       2.530  -3.572   8.875  0.00  0.00    -0.017 A 
ATOM     23  C   UNL     1       2.694  -4.555   7.916  0.00  0.00    +0.007 A 
ATOM     24  C   UNL     1       3.957  -4.851   7.439  0.00  0.00    +0.015 A 
ATOM     25  C   UNL     1       5.057  -4.163   7.921  0.00  0.00    +0.018 A 
ATOM     26  C   UNL     1       4.891  -3.180   8.880  0.00  0.00    +0.015 A 
ATOM     27  C   UNL     1       3.627  -2.881   9.353  0.00  0.00    +0.007 A 
ATOM     28 BR   UNL     1       6.785  -4.568   7.269  0.00  0.00    -0.050 Br
ENDBRANCH  21  22
BRANCH  21  29
ATOM     29  O   UNL     1       0.413  -4.461   9.568  0.00  0.00    -0.385 OA
ATOM     30  H   UNL     1       0.299  -4.972   8.755  0.00  0.00    +0.210 HD
ENDBRANCH  21  29
ENDBRANCH  19  21
ENDBRANCH   4  19
TORSDOF 5
