REMARK  Name = ZINC12455103
REMARK  8 active torsions:
REMARK  status: ('A' for Active; 'I' for Inactive)
REMARK    1  A    between atoms: C_1  and  N_2
REMARK    2  A    between atoms: N_2  and  C_3
REMARK    3  A    between atoms: C_3  and  C_5
REMARK    4  A    between atoms: C_3  and  C_13
REMARK    5  A    between atoms: C_5  and  C_6
REMARK    6  A    between atoms: C_18  and  C_19
REMARK    7  A    between atoms: C_18  and  N_66
REMARK    8  A    between atoms: C_29  and  C_31
REMARK                            x       y       z     vdW  Elec       q    Type
REMARK                         _______ _______ _______ _____ _____    ______ ____
ROOT
ATOM      1  C   UNL     1       5.433  -2.617  -5.127  0.00  0.00    +0.083 C 
ENDROOT
BRANCH   1   2
ATOM      2  C   UNL     1       4.998  -2.620  -3.660  0.00  0.00    +0.006 C 
ATOM      3  C   UNL     1       5.967  -1.765  -2.838  0.00  0.00    -0.013 C 
ATOM      4  C   UNL     1       5.494  -1.722  -1.383  0.00  0.00    -0.078 C 
ATOM      5  C   UNL     1       3.184  -1.986  -2.067  0.00  0.00    -0.078 C 
ATOM      6  C   UNL     1       3.588  -2.036  -3.542  0.00  0.00    -0.013 C 
ATOM      7  N   UNL     1       4.141  -1.128  -1.336  0.00  0.00    +0.382 N 
ATOM      8  H   UNL     1       4.167  -0.204  -1.782  0.00  0.00    -0.081 HD
BRANCH   7   9
ATOM      9  C   UNL     1       3.707  -0.972   0.068  0.00  0.00    -0.043 C 
BRANCH   9  10
ATOM     10  C   UNL     1       2.431  -0.170   0.096  0.00  0.00    -0.060 A 
ATOM     11  C   UNL     1       1.210  -0.815   0.044  0.00  0.00    +0.005 A 
ATOM     12  C   UNL     1       0.038  -0.084   0.066  0.00  0.00    +0.049 A 
ATOM     13  C   UNL     1       0.084   1.300   0.141  0.00  0.00    +0.162 A 
ATOM     14  C   UNL     1       1.312   1.949   0.196  0.00  0.00    +0.162 A 
ATOM     15  C   UNL     1       2.485   1.209   0.172  0.00  0.00    +0.051 A 
ATOM     16  O   UNL     1       1.380   3.306   0.279  0.00  0.00    -0.485 OA
ATOM     17  C   UNL     1       0.198   4.032  -0.076  0.00  0.00    +0.270 C 
ATOM     18  C   UNL     1      -1.001   3.364   0.610  0.00  0.00    +0.270 C 
ATOM     19  O   UNL     1      -1.079   2.008   0.154  0.00  0.00    -0.485 OA
ENDBRANCH   9  10
ENDBRANCH   7   9
ENDBRANCH   1   2
BRANCH   1  21
ATOM     20  C   UNL     1       4.421  -4.917  -5.485  0.00  0.00    +0.132 C 
ATOM     21  N   UNL     1       4.569  -3.518  -5.894  0.00  0.00    -0.297 N 
ATOM     22  C   UNL     1       3.909  -3.059  -6.976  0.00  0.00    +0.253 C 
ATOM     23  O   UNL     1       3.949  -1.875  -7.256  0.00  0.00    -0.269 OA
BRANCH  22  24
ATOM     24  C   UNL     1       3.142  -3.985  -7.814  0.00  0.00    +0.074 A 
ATOM     25  C   UNL     1       2.475  -3.739  -9.004  0.00  0.00    +0.021 A 
ATOM     26  C   UNL     1       1.831  -4.800  -9.591  0.00  0.00    +0.008 A 
ATOM     27  C   UNL     1       1.869  -6.016  -8.986  0.00  0.00    +0.046 A 
ATOM     28  S   UNL     1       2.819  -5.722  -7.566  0.00  0.00    -0.092 S 
ENDBRANCH  22  24
ENDBRANCH   1  21
BRANCH   1  29
ATOM     29  C   UNL     1       6.884  -3.093  -5.230  0.00  0.00    +0.060 C 
BRANCH  29  30
ATOM     30  C   UNL     1       7.351  -2.974  -6.657  0.00  0.00    -0.010 A 
ATOM     31  C   UNL     1       7.285  -4.068  -7.500  0.00  0.00    +0.006 A 
ATOM     32  C   UNL     1       7.709  -3.958  -8.811  0.00  0.00    +0.000 A 
ATOM     33  C   UNL     1       8.209  -2.757  -9.278  0.00  0.00    +0.003 A 
ATOM     34  C   UNL     1       8.281  -1.663  -8.437  0.00  0.00    +0.038 A 
ATOM     35  C   UNL     1       7.852  -1.771  -7.124  0.00  0.00    +0.127 A 
ATOM     36  F   UNL     1       7.922  -0.703  -6.300  0.00  0.00    -0.205 F 
ENDBRANCH  29  30
ENDBRANCH   1  29
TORSDOF 7
