REMARK  Name = ZINC35664878
REMARK  11 active torsions:
REMARK  status: ('A' for Active; 'I' for Inactive)
REMARK    1  A    between atoms: C_1  and  C_2
REMARK    2  A    between atoms: C_2  and  O_3
REMARK    3  A    between atoms: O_3  and  C_4
REMARK    4  A    between atoms: C_4  and  C_6
REMARK    5  A    between atoms: C_7  and  C_24
REMARK    6  A    between atoms: N_8  and  C_21
REMARK    7  A    between atoms: C_12  and  C_14
REMARK    8  A    between atoms: C_18  and  C_20
REMARK    9  A    between atoms: C_21  and  C_22
REMARK   10  A    between atoms: C_24  and  N_25
REMARK   11  A    between atoms: C_31  and  C_33
REMARK                            x       y       z     vdW  Elec       q    Type
REMARK                         _______ _______ _______ _____ _____    ______ ____
ROOT
ATOM      1  C   UNL     1       1.767  -1.329   0.963  0.00  0.00    +0.080 C 
ATOM      2  C   UNL     1       1.307  -2.547   1.319  0.00  0.00    +0.041 C 
ATOM      3  N   UNL     1       1.369  -2.972   2.616  0.00  0.00    -0.254 N 
ATOM      4  C   UNL     1       1.875  -2.238   3.615  0.00  0.00    +0.307 C 
ATOM      5  O   UNL     1       1.887  -2.701   4.738  0.00  0.00    -0.252 OA
ATOM      6  N   UNL     1       2.373  -1.001   3.414  0.00  0.00    -0.288 N 
ATOM      7  C   UNL     1       2.359  -0.453   2.048  0.00  0.00    +0.144 C 
ATOM      8  H   UNL     1       2.735  -0.486   4.152  0.00  0.00    +0.151 HD
ENDROOT
BRANCH   7   9
ATOM      9  C   UNL     1       3.778  -0.125   1.659  0.00  0.00    -0.022 A 
ATOM     10  C   UNL     1       4.783  -1.050   1.871  0.00  0.00    +0.006 A 
ATOM     11  C   UNL     1       6.085  -0.750   1.514  0.00  0.00    +0.001 A 
ATOM     12  C   UNL     1       6.380   0.475   0.945  0.00  0.00    +0.003 A 
ATOM     13  C   UNL     1       5.375   1.399   0.732  0.00  0.00    -0.050 A 
ATOM     14  C   UNL     1       4.072   1.097   1.085  0.00  0.00    +0.009 A 
ATOM     15  C   UNL     1       5.697   2.734   0.112  0.00  0.00    +0.044 C 
ENDBRANCH   7   9
BRANCH   1  16
ATOM     16  C   UNL     1       1.704  -0.888  -0.380  0.00  0.00    +0.339 C 
ATOM     17  O   UNL     1       2.682  -0.985  -1.099  0.00  0.00    -0.245 OA
BRANCH  16  18
ATOM     18  O   UNL     1       0.561  -0.360  -0.864  0.00  0.00    -0.462 OA
BRANCH  18  20
ATOM     19  C   UNL     1      -0.804   0.631  -2.595  0.00  0.00    +0.048 C 
ATOM     20  C   UNL     1       0.569   0.065  -2.229  0.00  0.00    +0.229 C 
ENDBRANCH  18  20
ENDBRANCH  16  18
ENDBRANCH   1  16
BRANCH   3  21
ATOM     21  C   UNL     1       0.851  -4.305   2.932  0.00  0.00    +0.141 C 
BRANCH  21  22
ATOM     22  C   UNL     1       1.957  -5.319   2.797  0.00  0.00    -0.015 C 
ATOM     23  C   UNL     1       2.249  -6.108   3.802  0.00  0.00    +0.005 C 
ENDBRANCH  21  22
ENDBRANCH   3  21
BRANCH   2  24
ATOM     24  C   UNL     1       0.715  -3.453   0.270  0.00  0.00    +0.136 C 
BRANCH  24  25
ATOM     25  N   UNL     1       1.549  -4.655   0.134  0.00  0.00    -0.294 NA
ATOM     26  C   UNL     1       2.877  -4.317  -0.394  0.00  0.00    +0.104 C 
ATOM     27  C   UNL     1       3.772  -5.560  -0.351  0.00  0.00    +0.123 C 
ATOM     28  N   UNL     1       3.084  -6.655  -1.051  0.00  0.00    -0.295 N 
ATOM     29  C   UNL     1       1.697  -6.963  -0.670  0.00  0.00    +0.123 C 
ATOM     30  C   UNL     1       0.884  -5.665  -0.701  0.00  0.00    +0.104 C 
ATOM     31  C   UNL     1       3.708  -7.359  -2.017  0.00  0.00    +0.253 C 
ATOM     32  O   UNL     1       4.851  -7.082  -2.329  0.00  0.00    -0.269 OA
BRANCH  31  33
ATOM     33  C   UNL     1       3.010  -8.457  -2.691  0.00  0.00    +0.074 A 
ATOM     34  C   UNL     1       3.217  -8.977  -3.960  0.00  0.00    +0.021 A 
ATOM     35  C   UNL     1       2.396 -10.019  -4.319  0.00  0.00    +0.008 A 
ATOM     36  C   UNL     1       1.465 -10.459  -3.438  0.00  0.00    +0.046 A 
ATOM     37  S   UNL     1       1.678  -9.479  -2.090  0.00  0.00    -0.092 S 
ENDBRANCH  31  33
ENDBRANCH  24  25
ENDBRANCH   2  24
TORSDOF 9
