REMARK  Name = ZINC34733901
REMARK  2 active torsions:
REMARK  status: ('A' for Active; 'I' for Inactive)
REMARK    1  A    between atoms: C_1  and  N_2
REMARK    2  A    between atoms: N_15  and  N_16
REMARK                            x       y       z     vdW  Elec       q    Type
REMARK                         _______ _______ _______ _____ _____    ______ ____
ROOT
ATOM      1  C   UNL     1      -0.018   1.461   0.010  0.00  0.00    +0.128 C 
ATOM      2  N   UNL     1       0.002  -0.004   0.002  0.00  0.00    -0.316 N 
ATOM      3  C   UNL     1       0.621  -0.694   1.031  0.00  0.00    +0.218 A 
ATOM      4  N   UNL     1       0.636  -2.021   1.008  0.00  0.00    -0.198 NA
ATOM      5  C   UNL     1       1.211  -2.734   1.962  0.00  0.00    +0.146 A 
ATOM      6  C   UNL     1       1.834  -2.061   3.049  0.00  0.00    +0.052 A 
ATOM      7  C   UNL     1       2.528  -2.646   4.210  0.00  0.00    -0.025 A 
ATOM      8  C   UNL     1       3.036  -1.788   5.109  0.00  0.00    -0.004 A 
ATOM      9  S   UNL     1       2.637  -0.172   4.483  0.00  0.00    -0.073 S 
ATOM     10  C   UNL     1       1.781  -0.657   3.009  0.00  0.00    +0.116 A 
ATOM     11  N   UNL     1       1.192  -0.015   2.017  0.00  0.00    -0.207 NA
ATOM     12  C   UNL     1       3.715  -2.497   6.250  0.00  0.00    +0.043 C 
ATOM     13  C   UNL     1       3.192  -3.948   6.171  0.00  0.00    +0.010 C 
ATOM     14  C   UNL     1       2.837  -4.071   4.677  0.00  0.00    +0.037 C 
ATOM     15  N   UNL     1       1.206  -4.116   1.904  0.00  0.00    -0.262 N 
ATOM     16  H   UNL     1      -0.418  -0.491  -0.724  0.00  0.00    +0.149 HD
ATOM     17  H   UNL     1       1.630  -4.633   2.608  0.00  0.00    +0.168 HD
ENDROOT
BRANCH  15  18
ATOM     18  N   UNL     1       0.605  -4.753   0.857  0.00  0.00    -0.228 NA
ATOM     19  C   UNL     1      -0.542  -5.549   1.313  0.00  0.00    +0.105 C 
ATOM     20  C   UNL     1      -1.277  -6.129   0.102  0.00  0.00    +0.017 C 
ATOM     21  C   UNL     1      -0.312  -7.005  -0.702  0.00  0.00    +0.003 C 
ATOM     22  C   UNL     1       0.897  -6.165  -1.124  0.00  0.00    +0.017 C 
ATOM     23  C   UNL     1       1.568  -5.584   0.122  0.00  0.00    +0.105 C 
ENDBRANCH  15  18
TORSDOF 1
