REMARK  Name = ZINC40111111
REMARK  9 active torsions:
REMARK  status: ('A' for Active; 'I' for Inactive)
REMARK    1  A    between atoms: C_3  and  C_8
REMARK    2  A    between atoms: C_5  and  O_7
REMARK    3  A    between atoms: C_10  and  C_19
REMARK    4  A    between atoms: N_14  and  C_15
REMARK    5  A    between atoms: C_15  and  C_16
REMARK    6  A    between atoms: C_16  and  O_17
REMARK    7  A    between atoms: C_19  and  C_21
REMARK    8  A    between atoms: C_24  and  S_27
REMARK    9  A    between atoms: S_27  and  N_30
REMARK                            x       y       z     vdW  Elec       q    Type
REMARK                         _______ _______ _______ _____ _____    ______ ____
ROOT
ATOM      1  C   UNL     1       2.702   2.753   0.535  0.00  0.00    +0.145 C 
ATOM      2  C   UNL     1       3.984   2.825   1.331  0.00  0.00    +0.076 C 
ATOM      3  C   UNL     1       4.810   3.668   0.668  0.00  0.00    +0.249 C 
ATOM      4  C   UNL     1       4.125   4.164  -0.544  0.00  0.00    +0.288 C 
ATOM      5  O   UNL     1       4.605   4.938  -1.349  0.00  0.00    -0.266 OA
ATOM      6  N   UNL     1       2.892   3.631  -0.627  0.00  0.00    -0.281 N 
ATOM      7  O   UNL     1       6.062   4.004   1.055  0.00  0.00    -0.282 OA
ENDROOT
BRANCH   1  10
ATOM      8  C   UNL     1       0.407   5.024   2.493  0.00  0.00    +0.004 A 
ATOM      9  C   UNL     1       1.466   4.574   1.728  0.00  0.00    +0.006 A 
ATOM     10  C   UNL     1       1.546   3.241   1.369  0.00  0.00    -0.019 A 
ATOM     11  C   UNL     1       0.566   2.356   1.775  0.00  0.00    +0.051 A 
ATOM     12  C   UNL     1      -0.498   2.805   2.543  0.00  0.00    +0.117 A 
ATOM     13  C   UNL     1      -0.576   4.143   2.902  0.00  0.00    +0.045 A 
BRANCH  12  14
ATOM     14  O   UNL     1      -1.464   1.936   2.943  0.00  0.00    -0.507 OA
ATOM     15  H   UNL     1      -1.284   1.514   3.794  0.00  0.00    +0.292 HD
ENDBRANCH  12  14
ENDBRANCH   1  10
BRANCH   2  16
ATOM     16  C   UNL     1       4.277   2.117   2.581  0.00  0.00    +0.195 C 
ATOM     17  O   UNL     1       4.435   2.744   3.612  0.00  0.00    -0.287 OA
BRANCH  16  18
ATOM     18  C   UNL     1       4.380   0.642   2.589  0.00  0.00    +0.022 A 
ATOM     19  C   UNL     1       4.320  -0.072   1.391  0.00  0.00    +0.013 A 
ATOM     20  C   UNL     1       4.417  -1.448   1.405  0.00  0.00    +0.029 A 
ATOM     21  C   UNL     1       4.573  -2.121   2.604  0.00  0.00    +0.106 A 
ATOM     22  C   UNL     1       4.634  -1.419   3.796  0.00  0.00    +0.029 A 
ATOM     23  C   UNL     1       4.543  -0.043   3.795  0.00  0.00    +0.013 A 
BRANCH  21  24
ATOM     24  S   UNL     1       4.695  -3.878   2.614  0.00  0.00    +0.061 S 
ATOM     25  O   UNL     1       4.289  -4.307   3.906  0.00  0.00    -0.153 OA
ATOM     26  O   UNL     1       4.064  -4.336   1.426  0.00  0.00    -0.153 OA
BRANCH  24  27
ATOM     27  N   UNL     1       6.301  -4.258   2.473  0.00  0.00    -0.177 NA
ATOM     28  C   UNL     1       6.914  -4.439   1.149  0.00  0.00    +0.109 C 
ATOM     29  C   UNL     1       8.143  -3.530   1.047  0.00  0.00    +0.017 C 
ATOM     30  C   UNL     1       9.083  -3.817   2.220  0.00  0.00    +0.003 C 
ATOM     31  C   UNL     1       8.366  -3.513   3.537  0.00  0.00    +0.017 C 
ATOM     32  C   UNL     1       7.141  -4.415   3.668  0.00  0.00    +0.109 C 
ENDBRANCH  24  27
ENDBRANCH  21  24
ENDBRANCH  16  18
ENDBRANCH   2  16
BRANCH   6  33
ATOM     33  C   UNL     1       1.911   3.881  -1.687  0.00  0.00    +0.137 C 
BRANCH  33  34
ATOM     34  C   UNL     1       1.041   5.079  -1.303  0.00  0.00    +0.175 C 
BRANCH  34  35
ATOM     35  O   UNL     1       1.848   6.257  -1.249  0.00  0.00    -0.393 OA
ATOM     36  H   UNL     1       1.360   7.057  -1.011  0.00  0.00    +0.209 HD
ENDBRANCH  34  35
ENDBRANCH  33  34
ENDBRANCH   6  33
TORSDOF 9
