REMARK  Name = ZINC50701920
REMARK  5 active torsions:
REMARK  status: ('A' for Active; 'I' for Inactive)
REMARK    1  A    between atoms: C_1  and  C_2
REMARK    2  A    between atoms: C_7  and  N_10
REMARK    3  A    between atoms: C_11  and  C_13
REMARK    4  A    between atoms: C_15  and  N_23
REMARK    5  A    between atoms: C_18  and  N_19
REMARK                            x       y       z     vdW  Elec       q    Type
REMARK                         _______ _______ _______ _____ _____    ______ ____
ROOT
ATOM      1  C   UNL     1       2.710  -4.446  -1.139  0.00  0.00    +0.069 A 
ATOM      2  C   UNL     1       1.985  -4.681  -2.308  0.00  0.00    +0.041 A 
ATOM      3  C   UNL     1       2.654  -4.887  -3.503  0.00  0.00    +0.061 A 
ATOM      4  C   UNL     1       4.046  -4.859  -3.535  0.00  0.00    +0.146 A 
ATOM      5  C   UNL     1       4.764  -4.625  -2.375  0.00  0.00    +0.073 A 
ATOM      6  C   UNL     1       4.105  -4.413  -1.181  0.00  0.00    +0.141 A 
ATOM      7  F   UNL     1       4.697  -5.060  -4.702  0.00  0.00    -0.203 F 
ENDROOT
BRANCH   1   9
ATOM      8  N   UNL     1       1.069  -3.258   0.235  0.00  0.00    -0.308 N 
ATOM      9  C   UNL     1       2.003  -4.225   0.140  0.00  0.00    +0.247 C 
ATOM     10  O   UNL     1       2.264  -4.916   1.105  0.00  0.00    -0.270 OA
ATOM     11  H   UNL     1       0.861  -2.707  -0.536  0.00  0.00    +0.149 HD
BRANCH   8  17
ATOM     12  C   UNL     1      -1.589   0.110   0.466  0.00  0.00    +0.007 C 
ATOM     13  C   UNL     1      -1.090  -1.335   0.402  0.00  0.00    -0.012 C 
ATOM     14  C   UNL     1      -2.280  -2.291   0.498  0.00  0.00    +0.003 C 
ATOM     15  C   UNL     1      -1.781  -3.735   0.434  0.00  0.00    +0.002 C 
ATOM     16  C   UNL     1      -0.823  -3.996   1.598  0.00  0.00    +0.022 C 
ATOM     17  C   UNL     1       0.368  -3.040   1.503  0.00  0.00    +0.073 C 
ATOM     18  C   UNL     1      -0.132  -1.595   1.567  0.00  0.00    +0.025 C 
ENDBRANCH   8  17
ENDBRANCH   1   9
BRANCH   6  19
ATOM     19  N   UNL     1       4.878  -4.157   0.055  0.00  0.00    +0.057 N 
ATOM     20  O   UNL     1       6.083  -4.251   0.045  0.00  0.00    -0.126 OA
ATOM     21  O   UNL     1       4.303  -3.854   1.075  0.00  0.00    -0.126 OA
ENDBRANCH   6  19
BRANCH   3  22
ATOM     22  N   UNL     1       1.932  -5.124  -4.677  0.00  0.00    -0.356 N 
ATOM     23  H   UNL     1       0.962  -5.144  -4.655  0.00  0.00    +0.142 HD
ATOM     24  H   UNL     1       2.400  -5.268  -5.514  0.00  0.00    +0.142 HD
ENDBRANCH   3  22
TORSDOF 4
