REMARK  Name = ZINC00457549
REMARK  3 active torsions:
REMARK  status: ('A' for Active; 'I' for Inactive)
REMARK    1  A    between atoms: C_7  and  C_17
REMARK    2  A    between atoms: C_11  and  N_15
REMARK    3  A    between atoms: C_12  and  C_13
REMARK                            x       y       z     vdW  Elec       q    Type
REMARK                         _______ _______ _______ _____ _____    ______ ____
ROOT
ATOM      1  C   UNL     1       0.030   1.559   0.352  0.00  0.00    +0.000 C 
ATOM      2  C   UNL     1       1.463   2.072   0.202  0.00  0.00    +0.001 C 
ATOM      3  C   UNL     1       2.037   1.596  -1.134  0.00  0.00    +0.013 C 
ATOM      4  C   UNL     1       2.034   0.067  -1.174  0.00  0.00    +0.026 C 
ATOM      5  C   UNL     1       0.602  -0.447  -1.023  0.00  0.00    +0.013 C 
ATOM      6  C   UNL     1       0.028   0.029   0.313  0.00  0.00    +0.001 C 
ATOM      7  C   UNL     1       2.897  -0.477  -0.033  0.00  0.00    +0.142 C 
ATOM      8  C   UNL     1       4.352  -0.273  -0.367  0.00  0.00    +0.100 C 
ATOM      9  N   UNL     1       4.774  -0.348  -1.601  0.00  0.00    -0.230 NA
ATOM     10  C   UNL     1       3.942  -0.568  -2.625  0.00  0.00    +0.115 C 
ATOM     11  C   UNL     1       2.603  -0.404  -2.489  0.00  0.00    +0.074 C 
ATOM     12  S   UNL     1       5.434   0.054   0.850  0.00  0.00    -0.034 SA
ENDROOT
BRANCH   7  13
ATOM     13  C   UNL     1       2.623  -1.948   0.147  0.00  0.00    +0.221 C 
ATOM     14  O   UNL     1       2.846  -2.722  -0.760  0.00  0.00    -0.275 OA
ATOM     15  N   UNL     1       2.131  -2.403   1.316  0.00  0.00    -0.329 N 
ATOM     16  H   UNL     1       1.952  -1.784   2.041  0.00  0.00    +0.145 HD
ATOM     17  H   UNL     1       1.955  -3.350   1.432  0.00  0.00    +0.145 HD
ENDBRANCH   7  13
BRANCH  10  18
ATOM     18  N   UNL     1       4.462  -0.975  -3.857  0.00  0.00    -0.402 NA
ATOM     19  H   UNL     1       5.465  -1.050  -3.790  0.00  0.00    +0.122 HD
ATOM     20  H   UNL     1       4.074  -1.873  -4.106  0.00  0.00    +0.122 HD
ATOM     21  H   UNL     1       4.221  -0.297  -4.564  0.00  0.00    +0.122 HD
ENDBRANCH  10  18
BRANCH  11  22
ATOM     22  C   UNL     1       1.731  -0.678  -3.592  0.00  0.00    +0.099 C 
ATOM     23  N   UNL     1       1.040  -0.895  -4.466  0.00  0.00    -0.191 NA
ENDBRANCH  11  22
TORSDOF 3
