REMARK  Name = ZINC33954554
REMARK  9 active torsions:
REMARK  status: ('A' for Active; 'I' for Inactive)
REMARK    1  A    between atoms: C_1  and  O_2
REMARK    2  A    between atoms: O_2  and  C_3
REMARK    3  A    between atoms: C_3  and  C_5
REMARK    4  A    between atoms: C_6  and  C_7
REMARK    5  A    between atoms: N_9  and  C_10
REMARK    6  A    between atoms: C_14  and  O_36
REMARK    7  A    between atoms: C_21  and  O_35
REMARK    8  A    between atoms: N_30  and  C_31
REMARK    9  A    between atoms: C_31  and  C_32
REMARK                            x       y       z     vdW  Elec       q    Type
REMARK                         _______ _______ _______ _____ _____    ______ ____
ROOT
ATOM      1  C   UNL     1      -3.742  -6.300   0.004  0.00  0.00    +0.115 C 
ATOM      2  C   UNL     1      -3.621  -6.822   1.438  0.00  0.00    +0.029 C 
ATOM      3  C   UNL     1      -3.675  -8.353   1.479  0.00  0.00    +0.036 C 
ATOM      4  C   UNL     1      -3.846  -8.895   0.075  0.00  0.00    +0.068 C 
ATOM      5  C   UNL     1      -3.970 -10.408  -0.017  0.00  0.00    -0.031 C 
ATOM      6  C   UNL     1      -4.216 -10.938  -1.432  0.00  0.00    +0.023 C 
ATOM      7  C   UNL     1      -4.521  -9.891  -2.447  0.00  0.00    -0.041 A 
ATOM      8  C   UNL     1      -4.485 -10.035  -3.821  0.00  0.00    +0.007 A 
ATOM      9  C   UNL     1      -4.753  -8.949  -4.640  0.00  0.00    +0.049 A 
ATOM     10  C   UNL     1      -5.031  -7.669  -4.164  0.00  0.00    +0.159 A 
ATOM     11  C   UNL     1      -5.075  -7.507  -2.773  0.00  0.00    +0.166 A 
ATOM     12  C   UNL     1      -4.899  -8.639  -2.006  0.00  0.00    +0.013 A 
ATOM     13  C   UNL     1      -5.096  -8.283  -0.566  0.00  0.00    +0.064 C 
ATOM     14  C   UNL     1      -5.073  -6.755  -0.596  0.00  0.00    +0.207 C 
ATOM     15  O   UNL     1      -5.178  -6.417  -1.987  0.00  0.00    -0.482 OA
ATOM     16  C   UNL     1      -6.371  -8.830   0.028  0.00  0.00    -0.001 C 
ATOM     17  C   UNL     1      -6.350 -10.358   0.081  0.00  0.00    -0.077 C 
ATOM     18  N   UNL     1      -5.145 -10.811   0.793  0.00  0.00    +0.384 N 
ATOM     19  H   UNL     1      -5.100 -10.376   1.702  0.00  0.00    -0.081 HD
ENDROOT
BRANCH   1  22
ATOM     20  C   UNL     1      -2.492  -4.208   0.003  0.00  0.00    +0.237 C 
ATOM     21  O   UNL     1      -1.464  -4.856  -0.010  0.00  0.00    -0.271 OA
ATOM     22  N   UNL     1      -3.685  -4.836   0.011  0.00  0.00    -0.305 N 
ATOM     23  H   UNL     1      -4.505  -4.319   0.022  0.00  0.00    +0.149 HD
BRANCH  20  25
ATOM     24  C   UNL     1      -1.247  -2.106   0.003  0.00  0.00    +0.096 C 
ATOM     25  C   UNL     1      -2.435  -2.732   0.011  0.00  0.00    +0.074 C 
BRANCH  24  26
ATOM     26  C   UNL     1      -1.190  -0.632   0.010  0.00  0.00    +0.332 C 
ATOM     27  O   UNL     1      -2.218   0.015   0.023  0.00  0.00    -0.246 OA
BRANCH  26  29
ATOM     28  C   UNL     1      -0.017   1.425   0.010  0.00  0.00    +0.280 C 
ATOM     29  O   UNL     1       0.002  -0.004   0.002  0.00  0.00    -0.465 OA
ENDBRANCH  26  29
ENDBRANCH  24  26
ENDBRANCH  20  25
ENDBRANCH   1  22
BRANCH  10  30
ATOM     30  O   UNL     1      -5.250  -6.627  -5.010  0.00  0.00    -0.503 OA
ATOM     31  H   UNL     1      -6.177  -6.511  -5.260  0.00  0.00    +0.292 HD
ENDBRANCH  10  30
BRANCH   4  32
ATOM     32  O   UNL     1      -2.711  -8.503  -0.699  0.00  0.00    -0.389 OA
ATOM     33  H   UNL     1      -1.868  -8.831  -0.356  0.00  0.00    +0.210 HD
ENDBRANCH   4  32
BRANCH  18  34
ATOM     34  C   UNL     1      -5.172 -12.273   0.939  0.00  0.00    -0.075 C 
BRANCH  34  35
ATOM     35  C   UNL     1      -6.313 -12.671   1.877  0.00  0.00    -0.028 C 
ATOM     36  C   UNL     1      -5.939 -13.354   3.194  0.00  0.00    +0.002 C 
ATOM     37  C   UNL     1      -6.583 -14.165   2.067  0.00  0.00    +0.002 C 
ENDBRANCH  34  35
ENDBRANCH  18  34
TORSDOF 8
