REMARK  Name = ZINC13407790
REMARK  16 active torsions:
REMARK  status: ('A' for Active; 'I' for Inactive)
REMARK    1  A    between atoms: C_1  and  C_2
REMARK    2  A    between atoms: C_2  and  O_3
REMARK    3  A    between atoms: O_3  and  C_4
REMARK    4  A    between atoms: C_4  and  C_6
REMARK    5  A    between atoms: C_7  and  C_29
REMARK    6  A    between atoms: C_10  and  N_11
REMARK    7  A    between atoms: C_12  and  C_14
REMARK    8  A    between atoms: C_14  and  S_15
REMARK    9  A    between atoms: S_15  and  C_16
REMARK   10  A    between atoms: C_20  and  C_24
REMARK   11  A    between atoms: C_21  and  C_23
REMARK   12  A    between atoms: C_24  and  C_25
REMARK   13  A    between atoms: C_25  and  C_26
REMARK   14  A    between atoms: C_29  and  C_30
REMARK   15  A    between atoms: C_30  and  C_31
REMARK   16  A    between atoms: C_30  and  C_32
REMARK                            x       y       z     vdW  Elec       q    Type
REMARK                         _______ _______ _______ _____ _____    ______ ____
ROOT
ATOM      1  N   UNL     1      -3.047  -2.529   2.498  0.00  0.00    -0.279 N 
ATOM      2  C   UNL     1      -3.827  -2.875   3.541  0.00  0.00    +0.228 C 
ATOM      3  O   UNL     1      -4.928  -3.345   3.345  0.00  0.00    -0.275 OA
ATOM      4  H   UNL     1      -2.166  -2.153   2.655  0.00  0.00    +0.155 HD
ENDROOT
BRANCH   1   9
ATOM      5  C   UNL     1      -2.842  -2.416   0.016  0.00  0.00    +0.091 A 
ATOM      6  C   UNL     1      -3.551  -2.715  -1.208  0.00  0.00    -0.024 A 
ATOM      7  C   UNL     1      -4.779  -3.243  -1.061  0.00  0.00    +0.051 A 
ATOM      8  S   UNL     1      -4.978  -3.337   0.705  0.00  0.00    -0.081 S 
ATOM      9  C   UNL     1      -3.502  -2.711   1.202  0.00  0.00    +0.086 A 
BRANCH   5  10
ATOM     10  C   UNL     1      -1.497  -1.838   0.006  0.00  0.00    +0.342 C 
ATOM     11  O   UNL     1      -0.523  -2.566  -0.007  0.00  0.00    -0.245 OA
BRANCH  10  12
ATOM     12  O   UNL     1      -1.339  -0.499   0.012  0.00  0.00    -0.461 OA
BRANCH  12  14
ATOM     13  C   UNL     1      -0.019   1.526   0.010  0.00  0.00    +0.048 C 
ATOM     14  C   UNL     1       0.002  -0.004   0.002  0.00  0.00    +0.229 C 
ENDBRANCH  12  14
ENDBRANCH  10  12
ENDBRANCH   5  10
BRANCH   6  15
ATOM     15  C   UNL     1      -2.950  -2.450  -2.565  0.00  0.00    +0.039 C 
BRANCH  15  16
ATOM     16  C   UNL     1      -2.075  -3.636  -2.975  0.00  0.00    -0.013 C 
ATOM     17  C   UNL     1      -2.951  -4.878  -3.155  0.00  0.00    +0.007 C 
ATOM     18  C   UNL     1      -1.368  -3.316  -4.293  0.00  0.00    +0.007 C 
ENDBRANCH  15  16
ENDBRANCH   6  15
ENDBRANCH   1   9
BRANCH   2  19
ATOM     19  C   UNL     1      -3.332  -2.677   4.951  0.00  0.00    +0.173 C 
BRANCH  19  20
ATOM     20  S   UNL     1      -4.602  -3.234   6.121  0.00  0.00    -0.077 S 
BRANCH  20  21
ATOM     21  C   UNL     1      -3.881  -2.941   7.702  0.00  0.00    +0.192 A 
ATOM     22  N   UNL     1      -2.667  -2.415   7.772  0.00  0.00    -0.183 NA
ATOM     23  C   UNL     1      -2.097  -2.183   8.948  0.00  0.00    +0.277 A 
ATOM     24  O   UNL     1      -0.855  -1.644   9.015  0.00  0.00    -0.265 OA
ATOM     25  C   UNL     1      -2.794  -2.500  10.113  0.00  0.00    +0.040 A 
ATOM     26  C   UNL     1      -4.058  -3.047   9.998  0.00  0.00    +0.049 A 
ATOM     27  N   UNL     1      -4.570  -3.247   8.793  0.00  0.00    -0.227 NA
ATOM     28  C   UNL     1      -4.848  -3.406  11.230  0.00  0.00    +0.066 C 
BRANCH  25  29
ATOM     29  C   UNL     1      -2.183  -2.252  11.468  0.00  0.00    +0.054 C 
BRANCH  29  30
ATOM     30  C   UNL     1      -2.550  -0.845  11.944  0.00  0.00    +0.130 C 
BRANCH  30  31
ATOM     31  C   UNL     1      -1.938  -0.597  13.299  0.00  0.00    +0.356 C 
ATOM     32  O   UNL     1      -1.271  -1.465  13.834  0.00  0.00    -0.246 OA
ATOM     33  O   UNL     1      -2.111   0.472  13.859  0.00  0.00    -0.246 OA
ENDBRANCH  30  31
ENDBRANCH  29  30
ENDBRANCH  25  29
ENDBRANCH  20  21
ENDBRANCH  19  20
ENDBRANCH   2  19
TORSDOF 12
