REMARK  Name = ZINC03451367
REMARK  8 active torsions:
REMARK  status: ('A' for Active; 'I' for Inactive)
REMARK    1  A    between atoms: C_1  and  C_2
REMARK    2  A    between atoms: C_8  and  C_10
REMARK    3  A    between atoms: C_10  and  O_11
REMARK    4  A    between atoms: O_11  and  C_12
REMARK    5  A    between atoms: C_12  and  C_14
REMARK    6  A    between atoms: C_15  and  C_28
REMARK    7  A    between atoms: N_17  and  C_20
REMARK    8  A    between atoms: C_20  and  C_21
REMARK                            x       y       z     vdW  Elec       q    Type
REMARK                         _______ _______ _______ _____ _____    ______ ____
ROOT
ATOM      1  C   UNL     1      -7.541  -4.699  -0.285  0.00  0.00    +0.118 A 
ATOM      2  C   UNL     1      -8.406  -4.282  -1.323  0.00  0.00    +0.075 A 
ATOM      3  N   UNL     1      -9.555  -3.970  -0.791  0.00  0.00    -0.174 NA
ATOM      4  N   UNL     1      -9.484  -4.168   0.593  0.00  0.00    -0.248 N 
ATOM      5  C   UNL     1      -8.256  -4.617   0.897  0.00  0.00    +0.142 A 
ATOM      6 CL   UNL     1      -7.671  -5.020   2.481  0.00  0.00    -0.061 Cl
ATOM      7  C   UNL     1      -8.061  -4.211  -2.788  0.00  0.00    +0.068 C 
ENDROOT
BRANCH   1   8
ATOM      8  C   UNL     1      -6.146  -5.141  -0.435  0.00  0.00    +0.344 C 
ATOM      9  O   UNL     1      -5.898  -6.315  -0.627  0.00  0.00    -0.245 OA
BRANCH   8  10
ATOM     10  O   UNL     1      -5.143  -4.244  -0.359  0.00  0.00    -0.452 OA
BRANCH  10  11
ATOM     11  C   UNL     1      -3.813  -4.744  -0.513  0.00  0.00    +0.328 C 
BRANCH  11  19
ATOM     12  C   UNL     1       0.341   0.758   0.070  0.00  0.00    +0.089 C 
ATOM     13  C   UNL     1       0.221  -0.728  -0.146  0.00  0.00    +0.136 A 
ATOM     14  C   UNL     1      -0.925  -1.430  -0.184  0.00  0.00    +0.091 A 
ATOM     15  C   UNL     1      -0.602  -2.787  -0.408  0.00  0.00    +0.168 A 
ATOM     16  N   UNL     1       0.700  -2.880  -0.500  0.00  0.00    -0.063 NA
ATOM     17  O   UNL     1       1.240  -1.580  -0.341  0.00  0.00    -0.358 OA
ATOM     18  N   UNL     1      -1.510  -3.841  -0.514  0.00  0.00    -0.265 N 
ATOM     19  C   UNL     1      -2.832  -3.605  -0.400  0.00  0.00    +0.256 C 
ATOM     20  O   UNL     1      -3.232  -2.477  -0.206  0.00  0.00    -0.272 OA
ATOM     21  H   UNL     1      -1.190  -4.743  -0.669  0.00  0.00    +0.156 HD
ENDBRANCH  11  19
ENDBRANCH  10  11
ENDBRANCH   8  10
ENDBRANCH   1   8
BRANCH   4  22
ATOM     22  C   UNL     1     -10.569  -3.930   1.548  0.00  0.00    +0.181 C 
BRANCH  22  23
ATOM     23  C   UNL     1     -10.583  -2.474   1.940  0.00  0.00    -0.008 A 
ATOM     24  C   UNL     1      -9.932  -2.062   3.087  0.00  0.00    +0.007 A 
ATOM     25  C   UNL     1      -9.945  -0.727   3.447  0.00  0.00    +0.000 A 
ATOM     26  C   UNL     1     -10.609   0.196   2.660  0.00  0.00    +0.001 A 
ATOM     27  C   UNL     1     -11.259  -0.216   1.512  0.00  0.00    +0.020 A 
ATOM     28  C   UNL     1     -11.242  -1.551   1.148  0.00  0.00    +0.046 A 
ATOM     29 CL   UNL     1     -12.054  -2.068  -0.297  0.00  0.00    -0.083 Cl
ENDBRANCH  22  23
ENDBRANCH   4  22
TORSDOF 6
