REMARK  Name = ZINC35355726
REMARK  4 active torsions:
REMARK  status: ('A' for Active; 'I' for Inactive)
REMARK    1  A    between atoms: C_1  and  C_2
REMARK    2  A    between atoms: C_5  and  C_22
REMARK    3  A    between atoms: N_8  and  C_10
REMARK    4  A    between atoms: C_15  and  N_16
REMARK                            x       y       z     vdW  Elec       q    Type
REMARK                         _______ _______ _______ _____ _____    ______ ____
ROOT
ATOM      1  C   UNL     1       2.760   0.603   2.196  0.00  0.00    +0.052 A 
ATOM      2  C   UNL     1       2.723   1.988   2.212  0.00  0.00    +0.048 A 
ATOM      3  C   UNL     1       3.325   2.685   3.251  0.00  0.00    +0.038 A 
ATOM      4  C   UNL     1       3.965   1.995   4.272  0.00  0.00    -0.024 A 
ATOM      5  C   UNL     1       4.004   0.614   4.258  0.00  0.00    +0.030 A 
ATOM      6  C   UNL     1       3.399  -0.087   3.226  0.00  0.00    +0.046 A 
ATOM      7  C   UNL     1       4.615   2.757   5.398  0.00  0.00    +0.046 C 
ATOM      8  C   UNL     1       5.189   4.070   4.862  0.00  0.00    +0.101 C 
ATOM      9  C   UNL     1       4.154   4.780   4.031  0.00  0.00    +0.218 C 
ATOM     10  O   UNL     1       4.100   5.991   4.048  0.00  0.00    -0.275 OA
ATOM     11  N   UNL     1       3.289   4.085   3.270  0.00  0.00    -0.285 N 
ATOM     12  H   UNL     1       2.635   4.558   2.731  0.00  0.00    +0.155 HD
ENDROOT
BRANCH   1  18
ATOM     13  C   UNL     1      -0.019   1.526   0.010  0.00  0.00    +0.009 C 
ATOM     14  C   UNL     1       0.002  -0.004   0.002  0.00  0.00    +0.003 C 
ATOM     15  C   UNL     1       0.720  -0.498  -1.256  0.00  0.00    +0.009 C 
ATOM     16  C   UNL     1       2.145   0.059  -1.285  0.00  0.00    +0.003 C 
ATOM     17  C   UNL     1       2.912  -0.448  -0.060  0.00  0.00    +0.108 C 
ATOM     18  N   UNL     1       2.153  -0.103   1.150  0.00  0.00    -0.328 N 
ATOM     19  C   UNL     1       0.744  -0.512   1.242  0.00  0.00    +0.108 C 
ATOM     20  C   UNL     1       2.850  -0.408  -2.559  0.00  0.00    +0.009 C 
ENDBRANCH   1  18
BRANCH   6  21
ATOM     21  N   UNL     1       3.434  -1.489   3.215  0.00  0.00    -0.357 N 
ATOM     22  H   UNL     1       3.014  -1.979   2.491  0.00  0.00    +0.142 HD
ATOM     23  H   UNL     1       3.878  -1.969   3.932  0.00  0.00    +0.142 HD
ENDBRANCH   6  21
TORSDOF 2
