REMARK  Name = ZINC15243514
REMARK  9 active torsions:
REMARK  status: ('A' for Active; 'I' for Inactive)
REMARK    1  A    between atoms: C_3  and  N_28
REMARK    2  A    between atoms: C_5  and  O_7
REMARK    3  A    between atoms: O_7  and  C_8
REMARK    4  A    between atoms: C_8  and  C_9
REMARK    5  A    between atoms: C_9  and  C_11
REMARK    6  A    between atoms: C_9  and  O_27
REMARK    7  A    between atoms: C_11  and  S_12
REMARK    8  A    between atoms: S_12  and  C_13
REMARK    9  A    between atoms: C_19  and  C_23
REMARK                            x       y       z     vdW  Elec       q    Type
REMARK                         _______ _______ _______ _____ _____    ______ ____
ROOT
ATOM      1  C   UNL     1       2.324   8.092   0.147  0.00  0.00    +0.112 C 
ENDROOT
BRANCH   1   2
ATOM      2  C   UNL     1       0.975   7.381   0.031  0.00  0.00    +0.162 C 
BRANCH   2   3
ATOM      3  O   UNL     1       0.331   7.776  -1.182  0.00  0.00    -0.388 OA
ATOM      4  H   UNL     1       0.834   7.566  -1.981  0.00  0.00    +0.210 HD
ENDBRANCH   2   3
BRANCH   2   5
ATOM      5  C   UNL     1       1.196   5.867   0.021  0.00  0.00    +0.261 C 
BRANCH   5   6
ATOM      6  O   UNL     1      -0.069   5.201   0.030  0.00  0.00    -0.489 OA
BRANCH   6  11
ATOM      7  C   UNL     1       1.176   1.782   0.000  0.00  0.00    +0.006 A 
ATOM      8  C   UNL     1      -0.013   1.076   0.008  0.00  0.00    +0.033 A 
ATOM      9  C   UNL     1      -1.220   1.750   0.017  0.00  0.00    +0.130 A 
ATOM     10  C   UNL     1      -1.241   3.131   0.031  0.00  0.00    +0.078 A 
ATOM     11  C   UNL     1      -0.050   3.842   0.023  0.00  0.00    +0.123 A 
ATOM     12  C   UNL     1       1.160   3.163   0.008  0.00  0.00    +0.046 A 
BRANCH   9  13
ATOM     13  N   UNL     1      -2.490   0.990   0.019  0.00  0.00    +0.057 N 
ATOM     14  O   UNL     1      -2.472  -0.228   0.012  0.00  0.00    -0.126 OA
ATOM     15  O   UNL     1      -3.554   1.583   0.027  0.00  0.00    -0.126 OA
ENDBRANCH   9  13
ENDBRANCH   6  11
ENDBRANCH   5   6
ENDBRANCH   2   5
ENDBRANCH   1   2
BRANCH   1  16
ATOM     16  S   UNL     1       2.054   9.879   0.307  0.00  0.00    -0.083 S 
BRANCH  16  17
ATOM     17  C   UNL     1       3.680  10.547   0.429  0.00  0.00    +0.196 A 
ATOM     18  N   UNL     1       4.804   9.868   0.405  0.00  0.00    -0.122 NA
ATOM     19  N   UNL     1       5.809  10.664   0.517  0.00  0.00    -0.127 NA
ATOM     20  C   UNL     1       5.381  11.908   0.620  0.00  0.00    +0.180 A 
ATOM     21  N   UNL     1       4.004  11.865   0.561  0.00  0.00    -0.276 N 
ATOM     22  C   UNL     1       3.271  13.016   0.650  0.00  0.00    +0.107 A 
ATOM     23  C   UNL     1       3.884  14.208   0.785  0.00  0.00    +0.073 A 
ATOM     24  C   UNL     1       5.288  14.286   0.843  0.00  0.00    +0.037 A 
ATOM     25  C   UNL     1       6.033  13.151   0.762  0.00  0.00    +0.086 A 
ATOM     26 CL   UNL     1       7.765  13.231   0.831  0.00  0.00    -0.080 Cl
BRANCH  23  27
ATOM     27  C   UNL     1       3.060  15.467   0.875  0.00  0.00    +0.419 C 
ATOM     28  F   UNL     1       3.909  16.571   1.010  0.00  0.00    -0.166 F 
ATOM     29  F   UNL     1       2.294  15.607  -0.287  0.00  0.00    -0.166 F 
ATOM     30  F   UNL     1       2.213  15.392   1.986  0.00  0.00    -0.166 F 
ENDBRANCH  23  27
ENDBRANCH  16  17
ENDBRANCH   1  16
TORSDOF 9
