REMARK  Name = ZINC15996106
REMARK  4 active torsions:
REMARK  status: ('A' for Active; 'I' for Inactive)
REMARK    1  A    between atoms: C_1  and  C_2
REMARK    2  A    between atoms: N_21  and  C_24
REMARK    3  A    between atoms: C_27  and  N_31
REMARK    4  A    between atoms: C_29  and  C_30
REMARK                            x       y       z     vdW  Elec       q    Type
REMARK                         _______ _______ _______ _____ _____    ______ ____
ROOT
ATOM      1  C   UNL     1      -7.287   0.548   1.200  0.00  0.00    +0.044 C 
ATOM      2  C   UNL     1      -7.034   1.882   1.853  0.00  0.00    -0.050 A 
ATOM      3  C   UNL     1      -7.446   2.105   3.155  0.00  0.00    +0.005 A 
ATOM      4  C   UNL     1      -7.216   3.324   3.758  0.00  0.00    +0.024 A 
ATOM      5  C   UNL     1      -6.567   4.340   3.061  0.00  0.00    +0.036 A 
ATOM      6  C   UNL     1      -6.158   4.105   1.752  0.00  0.00    -0.027 A 
ATOM      7  C   UNL     1      -6.389   2.886   1.153  0.00  0.00    +0.008 A 
ATOM      8  C   UNL     1      -5.504   5.376   1.291  0.00  0.00    +0.053 C 
ATOM      9  C   UNL     1      -4.114   5.189   0.774  0.00  0.00    +0.089 C 
ATOM     10  C   UNL     1      -4.479   4.548  -0.625  0.00  0.00    +0.074 C 
ATOM     11  C   UNL     1      -5.503   5.505  -1.118  0.00  0.00    -0.054 C 
ATOM     12  N   UNL     1      -6.243   5.945   0.121  0.00  0.00    +0.395 N 
ATOM     13  C   UNL     1      -6.153   7.419   0.192  0.00  0.00    -0.076 C 
ATOM     14  C   UNL     1      -5.846   7.888  -1.250  0.00  0.00    -0.020 C 
ATOM     15  C   UNL     1      -4.908   6.760  -1.753  0.00  0.00    -0.016 C 
ATOM     16  C   UNL     1      -3.134   4.203  -1.086  0.00  0.00    +0.228 C 
ATOM     17  O   UNL     1      -2.709   4.243  -2.220  0.00  0.00    -0.275 OA
ATOM     18  N   UNL     1      -2.459   3.824   0.047  0.00  0.00    -0.210 N 
ATOM     19  C   UNL     1      -3.114   4.185   1.195  0.00  0.00    +0.229 C 
ATOM     20  O   UNL     1      -2.913   3.771   2.317  0.00  0.00    -0.275 OA
ATOM     21  C   UNL     1      -5.594   6.311   2.466  0.00  0.00    +0.212 C 
ATOM     22  O   UNL     1      -5.180   7.450   2.518  0.00  0.00    -0.277 OA
ATOM     23  N   UNL     1      -6.224   5.638   3.448  0.00  0.00    -0.286 N 
ATOM     24  H   UNL     1      -6.474   5.995   4.458  0.00  0.00    +0.155 HD
ATOM     25  H   UNL     1      -7.298   5.632   0.119  0.00  0.00    -0.079 HD
ENDROOT
BRANCH  18  26
ATOM     26  C   UNL     1      -1.236   3.137   0.031  0.00  0.00    +0.047 A 
ATOM     27  C   UNL     1      -0.042   3.845   0.024  0.00  0.00    +0.026 A 
ATOM     28  C   UNL     1       1.161   3.166   0.008  0.00  0.00    +0.034 A 
ATOM     29  C   UNL     1       1.176   1.783   0.000  0.00  0.00    +0.127 A 
ATOM     30  C   UNL     1      -0.013   1.076   0.008  0.00  0.00    +0.038 A 
ATOM     31  C   UNL     1      -1.219   1.750   0.017  0.00  0.00    -0.026 A 
ATOM     32  C   UNL     1      -2.513   0.978   0.019  0.00  0.00    +0.046 C 
BRANCH  29  33
ATOM     33  N   UNL     1       2.466   1.058  -0.015  0.00  0.00    +0.056 N 
ATOM     34  O   UNL     1       2.481  -0.160  -0.022  0.00  0.00    -0.126 OA
ATOM     35  O   UNL     1       3.514   1.679  -0.022  0.00  0.00    -0.126 OA
ENDBRANCH  29  33
ENDBRANCH  18  26
TORSDOF 2
