REMARK  Name = ZINC08877233
REMARK  14 active torsions:
REMARK  status: ('A' for Active; 'I' for Inactive)
REMARK    1  A    between atoms: CD1_1  and  CG_2
REMARK    2  A    between atoms: CG_2  and  CD2_3
REMARK    3  A    between atoms: CG_2  and  CB_4
REMARK    4  A    between atoms: CB_4  and  CA_5
REMARK    5  A    between atoms: CA_5  and  C_7
REMARK    6  A    between atoms: CA_5  and  N_17
REMARK    7  A    between atoms: N_9  and  CA_10
REMARK    8  A    between atoms: CA_10  and  CB_12
REMARK    9  A    between atoms: CA_10  and  C_15
REMARK   10  A    between atoms: CB_12  and  CG1_13
REMARK   11  A    between atoms: CB_12  and  CG2_14
REMARK   12  A    between atoms: C_30  and  C_32
REMARK   13  A    between atoms: C_32  and  C_33
REMARK   14  A    between atoms: C_32  and  C_34
REMARK                            x       y       z     vdW  Elec       q    Type
REMARK                         _______ _______ _______ _____ _____    ______ ____
ROOT
ATOM      1  N   VAL A   1       0.325   4.231   1.006  0.00  0.00    -0.288 N 
ATOM      2  C   UNK A   0       0.516   4.609  -0.273  0.00  0.00    +0.308 C 
ATOM      3  O   UNK A   0      -0.298   4.307  -1.124  0.00  0.00    -0.252 OA
ATOM      4  N   UNK A   0       1.610   5.321  -0.609  0.00  0.00    -0.242 N 
ATOM      5  C   UNK A   0       2.525   5.747   0.367  0.00  0.00    +0.060 A 
ATOM      6  C   UNK A   0       2.117   6.010   1.662  0.00  0.00    +0.025 A 
ATOM      7  C   UNK A   0       3.042   6.434   2.600  0.00  0.00    +0.002 A 
ATOM      8  C   UNK A   0       4.369   6.593   2.245  0.00  0.00    +0.002 A 
ATOM      9  C   UNK A   0       4.788   6.322   0.948  0.00  0.00    +0.025 A 
ATOM     10  C   UNK A   0       3.866   5.900   0.003  0.00  0.00    +0.055 A 
ATOM     11  N   UNK A   0       4.262   5.628  -1.311  0.00  0.00    -0.282 N 
ATOM     12  C   UNK A   0       3.348   5.492  -2.291  0.00  0.00    +0.238 C 
ATOM     13  O   UNK A   0       3.711   5.213  -3.414  0.00  0.00    -0.273 OA
ATOM     14  C   UNK A   0       1.880   5.682  -2.009  0.00  0.00    +0.171 C 
ATOM     15  H   VAL A   1       0.960   4.494   1.690  0.00  0.00    +0.151 HD
ATOM     16  H   UNK A   0       5.205   5.537  -1.519  0.00  0.00    +0.155 HD
ENDROOT
BRANCH  14  17
ATOM     17  C   UNK A   0       1.499   7.145  -2.243  0.00  0.00    +0.013 C 
ATOM     18  C   UNK A   0       1.780   7.518  -3.700  0.00  0.00    +0.009 C 
ATOM     19  C   UNK A   0       0.011   7.338  -1.946  0.00  0.00    +0.009 C 
ENDBRANCH  14  17
BRANCH   1  20
ATOM     20  CA  VAL A   1      -0.844   3.422   1.365  0.00  0.00    +0.161 C 
BRANCH  20  21
ATOM     21  C   VAL A   1      -1.229   3.703   2.794  0.00  0.00    +0.234 C 
ATOM     22  O   VAL A   1      -0.412   4.161   3.564  0.00  0.00    -0.274 OA
ATOM     23  N   VAL A   1      -2.483   3.445   3.217  0.00  0.00    -0.301 N 
ATOM     24  H   VAL A   1      -3.114   3.007   2.625  0.00  0.00    +0.150 HD
BRANCH  23  25
ATOM     25  CA  VAL A   1      -2.892   3.826   4.571  0.00  0.00    +0.189 C 
BRANCH  25  26
ATOM     26  CB  VAL A   1      -3.348   5.286   4.574  0.00  0.00    +0.014 C 
ATOM     27  CG1 VAL A   1      -3.776   5.684   5.988  0.00  0.00    +0.009 C 
ATOM     28  CG2 VAL A   1      -2.195   6.182   4.119  0.00  0.00    +0.009 C 
ENDBRANCH  25  26
BRANCH  25  29
ATOM     29  C   VAL A   1      -4.028   2.943   5.020  0.00  0.00    +0.376 C 
ATOM     30  O   VAL A   1      -4.452   2.084   4.284  0.00  0.00    -0.244 OA
ATOM     31  OXT VAL A   1      -4.569   3.112   6.237  0.00  0.00    -0.244 OA
ENDBRANCH  25  29
ENDBRANCH  23  25
ENDBRANCH  20  21
BRANCH  20  32
ATOM     32  CB  VAL A   1      -0.504   1.939   1.210  0.00  0.00    +0.034 C 
BRANCH  32  34
ATOM     33  CD1 VAL A   1      -1.393  -0.384   1.447  0.00  0.00    +0.007 C 
ATOM     34  CG  VAL A   1      -1.762   1.100   1.443  0.00  0.00    -0.015 C 
ATOM     35  CD2 VAL A   1      -2.771   1.372   0.326  0.00  0.00    +0.007 C 
ENDBRANCH  32  34
ENDBRANCH  20  32
ENDBRANCH   1  20
TORSDOF 8
