REMARK  Name = ZINC03764637
REMARK  10 active torsions:
REMARK  status: ('A' for Active; 'I' for Inactive)
REMARK    1  A    between atoms: C_1  and  C_2
REMARK    2  A    between atoms: C_5  and  N_9
REMARK    3  A    between atoms: C_6  and  C_8
REMARK    4  A    between atoms: C_10  and  C_12
REMARK    5  A    between atoms: C_18  and  C_19
REMARK    6  A    between atoms: C_19  and  O_21
REMARK    7  A    between atoms: O_21  and  C_22
REMARK    8  A    between atoms: C_24  and  N_37
REMARK    9  A    between atoms: C_25  and  C_35
REMARK   10  A    between atoms: C_26  and  C_28
REMARK                            x       y       z     vdW  Elec       q    Type
REMARK                         _______ _______ _______ _____ _____    ______ ____
ROOT
ATOM      1  C   UNL     1      -5.542  -1.555   0.034  0.00  0.00    +0.058 C 
ATOM      2  C   UNL     1      -4.736  -0.464   0.017  0.00  0.00    +0.099 A 
ATOM      3  N   UNL     1      -5.190   0.839   0.041  0.00  0.00    -0.257 N 
ATOM      4  C   UNL     1      -4.271   1.826   0.020  0.00  0.00    +0.272 A 
ATOM      5  O   UNL     1      -4.606   2.993   0.040  0.00  0.00    -0.266 OA
ATOM      6  C   UNL     1      -2.840   1.444  -0.027  0.00  0.00    +0.086 A 
ATOM      7  C   UNL     1      -1.736   2.235  -0.055  0.00  0.00    +0.112 C 
ATOM      8  S   UNL     1      -2.960  -0.337  -0.045  0.00  0.00    -0.065 S 
ATOM      9  C   UNL     1      -6.569   1.080   0.086  0.00  0.00    +0.118 C 
ATOM     10  C   UNL     1      -7.500   0.102   0.106  0.00  0.00    +0.079 C 
ATOM     11  C   UNL     1      -7.042  -1.342   0.081  0.00  0.00    +0.103 C 
ENDROOT
BRANCH  11  12
ATOM     12  C   UNL     1      -7.576  -2.024   1.314  0.00  0.00    +0.001 A 
ATOM     13  C   UNL     1      -7.126  -1.643   2.564  0.00  0.00    +0.007 A 
ATOM     14  C   UNL     1      -7.616  -2.268   3.696  0.00  0.00    +0.000 A 
ATOM     15  C   UNL     1      -8.557  -3.275   3.578  0.00  0.00    +0.003 A 
ATOM     16  C   UNL     1      -9.008  -3.657   2.329  0.00  0.00    +0.038 A 
ATOM     17  C   UNL     1      -8.521  -3.028   1.195  0.00  0.00    +0.127 A 
ATOM     18  F   UNL     1      -8.966  -3.397  -0.026  0.00  0.00    -0.205 F 
ENDBRANCH  11  12
BRANCH   1  20
ATOM     19  N   UNL     1      -5.814  -3.926   0.024  0.00  0.00    -0.281 N 
ATOM     20  C   UNL     1      -4.998  -2.854   0.007  0.00  0.00    +0.248 C 
ATOM     21  O   UNL     1      -3.790  -3.008  -0.030  0.00  0.00    -0.270 OA
ATOM     22  H   UNL     1      -6.773  -3.805   0.113  0.00  0.00    +0.155 HD
BRANCH  19  27
ATOM     23  C   UNL     1      -3.646  -9.148  -0.425  0.00  0.00    +0.044 C 
ATOM     24  C   UNL     1      -4.222  -7.761  -0.306  0.00  0.00    -0.050 A 
ATOM     25  C   UNL     1      -3.525  -6.780   0.377  0.00  0.00    +0.005 A 
ATOM     26  C   UNL     1      -4.047  -5.507   0.483  0.00  0.00    +0.024 A 
ATOM     27  C   UNL     1      -5.280  -5.213  -0.087  0.00  0.00    +0.037 A 
ATOM     28  C   UNL     1      -5.976  -6.200  -0.773  0.00  0.00    -0.029 A 
ATOM     29  C   UNL     1      -5.446  -7.470  -0.880  0.00  0.00    +0.008 A 
ATOM     30  C   UNL     1      -7.311  -5.884  -1.398  0.00  0.00    +0.045 C 
ENDBRANCH  19  27
ENDBRANCH   1  20
BRANCH   9  31
ATOM     31  N   UNL     1      -6.999   2.385   0.110  0.00  0.00    -0.343 N 
ATOM     32  H   UNL     1      -6.508   3.066  -0.376  0.00  0.00    +0.144 HD
ATOM     33  H   UNL     1      -7.793   2.625   0.612  0.00  0.00    +0.144 HD
ENDBRANCH   9  31
BRANCH   7  34
ATOM     34  C   UNL     1      -0.405   1.631  -0.101  0.00  0.00    +0.333 C 
ATOM     35  O   UNL     1      -0.286   0.421  -0.114  0.00  0.00    -0.246 OA
BRANCH  34  36
ATOM     36  O   UNL     1       0.692   2.417  -0.134  0.00  0.00    -0.465 OA
ATOM     37  C   UNL     1       1.960   1.760  -0.184  0.00  0.00    +0.280 C 
ENDBRANCH  34  36
ENDBRANCH   7  34
BRANCH  10  38
ATOM     38  C   UNL     1      -8.895   0.424   0.151  0.00  0.00    +0.099 C 
ATOM     39  N   UNL     1     -10.002   0.679   0.187  0.00  0.00    -0.191 NA
ENDBRANCH  10  38
TORSDOF 7
