REMARK  Name = ZINC23473833
REMARK  5 active torsions:
REMARK  status: ('A' for Active; 'I' for Inactive)
REMARK    1  A    between atoms: C_6  and  C_7
REMARK    2  A    between atoms: C_7  and  C_8
REMARK    3  A    between atoms: C_7  and  N_15
REMARK    4  A    between atoms: N_18  and  C_21
REMARK    5  A    between atoms: C_21  and  N_22
REMARK                            x       y       z     vdW  Elec       q    Type
REMARK                         _______ _______ _______ _____ _____    ______ ____
ROOT
ATOM      1  N   UNL     1       1.365   1.594  -0.002  0.00  0.00    -0.289 NA
ATOM      2  C   UNL     1       2.057   1.215  -1.242  0.00  0.00    +0.101 C 
ATOM      3  C   UNL     1       3.459   1.829  -1.249  0.00  0.00    +0.101 C 
ATOM      4  N   UNL     1       4.202   1.361  -0.071  0.00  0.00    -0.284 NA
ATOM      5  C   UNL     1       3.510   1.741   1.169  0.00  0.00    +0.101 C 
ATOM      6  C   UNL     1       2.108   1.127   1.176  0.00  0.00    +0.101 C 
ENDROOT
BRANCH   1   7
ATOM      7  C   UNL     1      -0.013   1.086   0.008  0.00  0.00    +0.117 C 
BRANCH   7  13
ATOM      8  C   UNL     1      -0.551   2.883  -1.648  0.00  0.00    +0.008 A 
ATOM      9  C   UNL     1      -1.215   3.341  -2.771  0.00  0.00    +0.038 A 
ATOM     10  C   UNL     1      -2.080   2.501  -3.453  0.00  0.00    +0.123 A 
ATOM     11  C   UNL     1      -2.274   1.203  -3.013  0.00  0.00    +0.038 A 
ATOM     12  C   UNL     1      -1.605   0.746  -1.893  0.00  0.00    +0.008 A 
ATOM     13  C   UNL     1      -0.742   1.585  -1.213  0.00  0.00    -0.026 A 
ATOM     14  F   UNL     1      -2.733   2.949  -4.547  0.00  0.00    -0.205 F 
ENDBRANCH   7  13
BRANCH   7  15
ATOM     15  C   UNL     1      -0.718   1.572   1.248  0.00  0.00    -0.026 A 
ATOM     16  C   UNL     1      -0.510   2.862   1.700  0.00  0.00    +0.008 A 
ATOM     17  C   UNL     1      -1.160   3.310   2.834  0.00  0.00    +0.038 A 
ATOM     18  C   UNL     1      -2.012   2.463   3.524  0.00  0.00    +0.123 A 
ATOM     19  C   UNL     1      -2.215   1.170   3.073  0.00  0.00    +0.038 A 
ATOM     20  C   UNL     1      -1.568   0.726   1.935  0.00  0.00    +0.008 A 
ATOM     21  F   UNL     1      -2.644   2.899   4.635  0.00  0.00    -0.205 F 
ENDBRANCH   7  15
ENDBRANCH   1   7
BRANCH   4  22
ATOM     22  C   UNL     1       5.580   1.870  -0.081  0.00  0.00    +0.205 C 
BRANCH  22  23
ATOM     23  N   UNL     1       6.035   2.019  -1.466  0.00  0.00    -0.211 N 
ATOM     24  C   UNL     1       5.884   3.142  -2.194  0.00  0.00    +0.248 C 
ATOM     25  O   UNL     1       5.363   4.178  -1.841  0.00  0.00    -0.273 OA
ATOM     26  C   UNL     1       6.501   2.842  -3.550  0.00  0.00    +0.113 C 
ATOM     27  C   UNL     1       7.747   3.741  -3.714  0.00  0.00    +0.035 C 
ATOM     28  C   UNL     1       8.681   3.099  -4.701  0.00  0.00    +0.003 C 
ATOM     29  C   UNL     1       8.473   3.615  -6.139  0.00  0.00    +0.000 C 
ATOM     30  C   UNL     1       6.985   3.767  -6.510  0.00  0.00    +0.000 C 
ATOM     31  C   UNL     1       6.151   2.618  -6.011  0.00  0.00    +0.003 C 
ATOM     32  C   UNL     1       5.554   3.006  -4.645  0.00  0.00    +0.035 C 
ATOM     33  N   UNL     1       6.967   1.447  -3.408  0.00  0.00    -0.285 N 
ATOM     34  C   UNL     1       6.657   1.060  -2.159  0.00  0.00    +0.310 C 
ATOM     35  O   UNL     1       6.909  -0.042  -1.712  0.00  0.00    -0.252 OA
ATOM     36  H   UNL     1       7.461   0.944  -4.253  0.00  0.00    +0.151 HD
ENDBRANCH  22  23
ENDBRANCH   4  22
TORSDOF 5
