REMARK  Name = ZINC38550603
REMARK  7 active torsions:
REMARK  status: ('A' for Active; 'I' for Inactive)
REMARK    1  A    between atoms: C_1  and  O_2
REMARK    2  A    between atoms: O_2  and  C_3
REMARK    3  A    between atoms: C_6  and  C_9
REMARK    4  A    between atoms: C_9  and  C_11
REMARK    5  A    between atoms: C_9  and  N_28
REMARK    6  A    between atoms: C_15  and  N_16
REMARK    7  A    between atoms: C_17  and  C_19
REMARK                            x       y       z     vdW  Elec       q    Type
REMARK                         _______ _______ _______ _____ _____    ______ ____
ROOT
ATOM      1  C   UNL     1       2.491  -2.487  -4.377  0.00  0.00    +0.135 C 
ENDROOT
BRANCH   1   2
ATOM      2  C   UNL     1       3.908  -2.865  -4.028  0.00  0.00    +0.009 A 
ATOM      3  C   UNL     1       4.969  -2.062  -4.448  0.00  0.00    -0.030 A 
ATOM      4  C   UNL     1       6.217  -2.469  -4.095  0.00  0.00    -0.005 A 
ATOM      5  S   UNL     1       5.936  -3.961  -3.180  0.00  0.00    -0.078 S 
ATOM      6  C   UNL     1       4.154  -3.985  -3.299  0.00  0.00    +0.078 A 
ATOM      7  C   UNL     1       7.517  -1.802  -4.412  0.00  0.00    +0.043 C 
ATOM      8  C   UNL     1       7.270  -0.767  -5.521  0.00  0.00    +0.005 C 
ATOM      9  C   UNL     1       6.041   0.067  -5.149  0.00  0.00    +0.005 C 
ATOM     10  C   UNL     1       4.777  -0.786  -5.263  0.00  0.00    +0.036 C 
BRANCH   6  11
ATOM     11  N   UNL     1       3.250  -4.915  -2.781  0.00  0.00    -0.273 N 
ATOM     12  C   UNL     1       3.703  -6.019  -2.156  0.00  0.00    +0.284 C 
ATOM     13  O   UNL     1       4.896  -6.162  -1.961  0.00  0.00    -0.266 OA
ATOM     14  H   UNL     1       2.296  -4.765  -2.870  0.00  0.00    +0.156 HD
BRANCH  12  15
ATOM     15  C   UNL     1       2.759  -7.049  -1.710  0.00  0.00    +0.189 A 
ATOM     16  C   UNL     1       3.070  -8.161  -0.982  0.00  0.00    +0.054 A 
ATOM     17  C   UNL     1       1.869  -8.861  -0.782  0.00  0.00    +0.042 A 
ATOM     18  C   UNL     1       0.891  -8.154  -1.389  0.00  0.00    +0.196 A 
ATOM     19  O   UNL     1       1.430  -7.060  -1.944  0.00  0.00    -0.458 OA
ENDBRANCH  12  15
ENDBRANCH   6  11
ENDBRANCH   1   2
BRANCH   1  20
ATOM     20  N   UNL     1       1.743  -3.689  -4.753  0.00  0.00    -0.320 N 
ATOM     21  C   UNL     1       1.876  -4.218  -6.032  0.00  0.00    +0.097 A 
ATOM     22  C   UNL     1       2.801  -3.668  -6.913  0.00  0.00    +0.041 A 
ATOM     23  C   UNL     1       2.923  -4.204  -8.182  0.00  0.00    +0.005 A 
ATOM     24  C   UNL     1       2.112  -5.277  -8.529  0.00  0.00    +0.018 A 
ATOM     25  C   UNL     1       1.215  -5.774  -7.604  0.00  0.00    +0.084 A 
ATOM     26  N   UNL     1       1.125  -5.245  -6.398  0.00  0.00    -0.350 N 
ATOM     27  H   UNL     1       1.156  -4.116  -4.110  0.00  0.00    +0.148 HD
ATOM     28  H   UNL     1       0.489  -5.616  -5.766  0.00  0.00    +0.166 HD
ENDBRANCH   1  20
BRANCH   1  32
ATOM     29  C   UNL     1       0.631  -0.654  -0.994  0.00  0.00    +0.120 A 
ATOM     30  C   UNL     1       1.228   0.132  -1.969  0.00  0.00    +0.046 A 
ATOM     31  C   UNL     1       1.829  -0.463  -3.062  0.00  0.00    +0.009 A 
ATOM     32  C   UNL     1       1.835  -1.841  -3.184  0.00  0.00    -0.023 A 
ATOM     33  C   UNL     1       1.240  -2.626  -2.214  0.00  0.00    +0.009 A 
ATOM     34  C   UNL     1       0.644  -2.036  -1.116  0.00  0.00    +0.046 A 
BRANCH  29  36
ATOM     35  C   UNL     1       0.065   1.356   0.141  0.00  0.00    +0.277 C 
ATOM     36  O   UNL     1       0.040  -0.071   0.082  0.00  0.00    -0.495 OA
ENDBRANCH  29  36
ENDBRANCH   1  32
TORSDOF 6
