REMARK  Name = ZINC09550381
REMARK  8 active torsions:
REMARK  status: ('A' for Active; 'I' for Inactive)
REMARK    1  A    between atoms: C_1  and  C_2
REMARK    2  A    between atoms: C_3  and  C_32
REMARK    3  A    between atoms: C_5  and  C_31
REMARK    4  A    between atoms: C_6  and  C_7
REMARK    5  A    between atoms: N_9  and  C_10
REMARK    6  A    between atoms: C_13  and  N_16
REMARK    7  A    between atoms: N_16  and  S_17
REMARK    8  A    between atoms: S_17  and  C_20
REMARK                            x       y       z     vdW  Elec       q    Type
REMARK                         _______ _______ _______ _____ _____    ______ ____
ROOT
ATOM      1  C   UNL     1       1.944  -1.431   3.407  0.00  0.00    +0.034 A 
ATOM      2  C   UNL     1       0.717  -1.942   3.004  0.00  0.00    +0.025 A 
ATOM      3  C   UNL     1       0.092  -1.433   1.883  0.00  0.00    +0.026 A 
ATOM      4  C   UNL     1       0.690  -0.411   1.158  0.00  0.00    +0.048 A 
ATOM      5  C   UNL     1       1.920   0.096   1.558  0.00  0.00    +0.026 A 
ATOM      6  C   UNL     1       2.543  -0.409   2.682  0.00  0.00    +0.025 A 
ENDROOT
BRANCH   1   9
ATOM      7  C   UNL     1       3.320  -1.138   5.328  0.00  0.00    +0.252 C 
ATOM      8  O   UNL     1       3.363   0.056   5.101  0.00  0.00    -0.270 OA
ATOM      9  N   UNL     1       2.578  -1.946   4.545  0.00  0.00    -0.281 N 
ATOM     10  H   UNL     1       2.483  -2.885   4.769  0.00  0.00    +0.155 HD
BRANCH   7  16
ATOM     11  C   UNL     1       2.262  -1.510   8.398  0.00  0.00    +0.048 C 
ATOM     12  C   UNL     1       3.615  -1.874   7.842  0.00  0.00    +0.003 A 
ATOM     13  C   UNL     1       4.641  -2.422   8.510  0.00  0.00    +0.106 A 
ATOM     14  O   UNL     1       5.672  -2.594   7.668  0.00  0.00    -0.464 OA
ATOM     15  C   UNL     1       5.358  -2.176   6.438  0.00  0.00    +0.115 A 
ATOM     16  C   UNL     1       4.079  -1.701   6.458  0.00  0.00    +0.081 A 
ATOM     17  C   UNL     1       6.263  -2.220   5.234  0.00  0.00    +0.087 C 
ATOM     18  C   UNL     1       4.638  -2.786   9.973  0.00  0.00    +0.086 C 
ENDBRANCH   7  16
ENDBRANCH   1   9
BRANCH   4  19
ATOM     19  N   UNL     1       0.057   0.104   0.022  0.00  0.00    -0.216 N 
ATOM     20  H   UNL     1       0.386  -0.123  -0.862  0.00  0.00    +0.174 HD
BRANCH  19  21
ATOM     21  S   UNL     1      -1.254   1.102   0.185  0.00  0.00    +0.072 S 
ATOM     22  O   UNL     1      -1.653   1.467  -1.129  0.00  0.00    -0.150 OA
ATOM     23  O   UNL     1      -2.136   0.466   1.100  0.00  0.00    -0.150 OA
BRANCH  21  24
ATOM     24  C   UNL     1      -0.692   2.576   0.969  0.00  0.00    +0.112 A 
ATOM     25  C   UNL     1      -0.623   2.640   2.349  0.00  0.00    +0.032 A 
ATOM     26  C   UNL     1      -0.178   3.793   2.971  0.00  0.00    +0.051 A 
ATOM     27  C   UNL     1       0.188   4.887   2.207  0.00  0.00    +0.162 A 
ATOM     28  C   UNL     1       0.114   4.825   0.823  0.00  0.00    +0.164 A 
ATOM     29  C   UNL     1      -0.327   3.669   0.203  0.00  0.00    +0.078 A 
ATOM     30  O   UNL     1       0.479   5.910   0.079  0.00  0.00    -0.488 OA
ATOM     31  C   UNL     1      -0.374   7.051   0.178  0.00  0.00    +0.232 C 
ATOM     32  C   UNL     1      -0.006   7.897   1.387  0.00  0.00    +0.082 C 
ATOM     33  C   UNL     1      -0.240   7.164   2.699  0.00  0.00    +0.232 C 
ATOM     34  O   UNL     1       0.625   6.032   2.808  0.00  0.00    -0.488 OA
ENDBRANCH  21  24
ENDBRANCH  19  21
ENDBRANCH   4  19
TORSDOF 5
