REMARK  Name = ZINC64480191
REMARK  10 active torsions:
REMARK  status: ('A' for Active; 'I' for Inactive)
REMARK    1  A    between atoms: C_1  and  C_2
REMARK    2  A    between atoms: C_7  and  O_12
REMARK    3  A    between atoms: C_9  and  O_10
REMARK    4  A    between atoms: O_10  and  C_11
REMARK    5  A    between atoms: O_12  and  C_13
REMARK    6  A    between atoms: C_17  and  C_19
REMARK    7  A    between atoms: C_19  and  C_20
REMARK    8  A    between atoms: N_22  and  C_23
REMARK    9  A    between atoms: C_23  and  C_24
REMARK   10  A    between atoms: C_24  and  C_25
REMARK                            x       y       z     vdW  Elec       q    Type
REMARK                         _______ _______ _______ _____ _____    ______ ____
ROOT
ATOM      1  C   UNL     1       2.139   0.303   1.273  0.00  0.00    +0.111 C 
ENDROOT
BRANCH   1  13
ATOM      2  C   UNL     1      -0.019   1.526   0.010  0.00  0.00    +0.013 C 
ATOM      3  C   UNL     1       0.002  -0.004   0.002  0.00  0.00    +0.037 C 
ATOM      4  C   UNL     1       0.594  -0.490  -1.297  0.00  0.00    +0.040 A 
ATOM      5  C   UNL     1       1.452  -1.574  -1.348  0.00  0.00    +0.142 A 
ATOM      6  C   UNL     1       1.965  -1.994  -2.570  0.00  0.00    +0.092 A 
ATOM      7  C   UNL     1       1.627  -1.328  -3.737  0.00  0.00    +0.127 A 
ATOM      8  C   UNL     1       0.773  -0.237  -3.685  0.00  0.00    +0.091 A 
ATOM      9  C   UNL     1       0.258   0.179  -2.469  0.00  0.00    +0.130 A 
ATOM     10  O   UNL     1       1.826  -2.247  -0.226  0.00  0.00    -0.425 OA
ATOM     11  C   UNL     1       1.169  -1.965   0.917  0.00  0.00    +0.317 C 
ATOM     12  O   UNL     1       0.855  -2.833   1.697  0.00  0.00    -0.250 OA
ATOM     13  C   UNL     1       0.846  -0.508   1.177  0.00  0.00    +0.114 C 
BRANCH   9  14
ATOM     14  O   UNL     1      -0.581   1.248  -2.421  0.00  0.00    -0.495 OA
ATOM     15  C   UNL     1      -0.885   1.890  -3.660  0.00  0.00    +0.277 C 
ENDBRANCH   9  14
BRANCH   7  16
ATOM     16  O   UNL     1       2.133  -1.742  -4.928  0.00  0.00    -0.495 OA
ATOM     17  C   UNL     1       1.741  -1.007  -6.090  0.00  0.00    +0.277 C 
ENDBRANCH   7  16
ENDBRANCH   1  13
BRANCH   1  18
ATOM     18  C   UNL     1       2.905  -0.116   2.502  0.00  0.00    +0.214 C 
ATOM     19  O   UNL     1       2.459  -0.978   3.229  0.00  0.00    -0.276 OA
ATOM     20  N   UNL     1       4.084   0.468   2.793  0.00  0.00    -0.315 N 
ATOM     21  H   UNL     1       4.440   1.158   2.211  0.00  0.00    +0.149 HD
BRANCH  20  22
ATOM     22  C   UNL     1       4.828   0.061   3.987  0.00  0.00    +0.108 C 
BRANCH  22  23
ATOM     23  C   UNL     1       6.122   0.873   4.084  0.00  0.00    +0.052 C 
BRANCH  23  24
ATOM     24  C   UNL     1       6.887   0.454   5.312  0.00  0.00    -0.040 C 
ATOM     25  C   UNL     1       7.885  -0.456   5.378  0.00  0.00    +0.002 A 
ATOM     26  C   UNL     1       8.531  -1.298   4.363  0.00  0.00    +0.048 A 
ATOM     27  C   UNL     1       9.527  -2.133   4.740  0.00  0.00    +0.124 A 
ATOM     28  C   UNL     1       9.956  -2.214   6.075  0.00  0.00    +0.040 A 
ATOM     29  C   UNL     1       9.410  -1.473   7.062  0.00  0.00    +0.029 A 
ATOM     30  C   UNL     1       8.355  -0.561   6.777  0.00  0.00    +0.043 A 
ATOM     31  N   UNL     1       7.675   0.253   7.547  0.00  0.00    -0.380 N 
ATOM     32  C   UNL     1       6.699   0.972   6.721  0.00  0.00    +0.144 C 
ATOM     33  F   UNL     1      10.124  -2.909   3.809  0.00  0.00    -0.205 F 
ATOM     34  H   UNL     1       7.799   0.364   8.503  0.00  0.00    +0.160 HD
ENDBRANCH  23  24
ENDBRANCH  22  23
ENDBRANCH  20  22
ENDBRANCH   1  18
TORSDOF 7
