REMARK  Name = ZINC04878882
REMARK  9 active torsions:
REMARK  status: ('A' for Active; 'I' for Inactive)
REMARK    1  A    between atoms: C_1  and  C_2
REMARK    2  A    between atoms: C_2  and  O_3
REMARK    3  A    between atoms: O_3  and  C_4
REMARK    4  A    between atoms: C_9  and  C_10
REMARK    5  A    between atoms: C_12  and  C_21
REMARK    6  A    between atoms: C_13  and  C_20
REMARK    7  A    between atoms: N_23  and  C_24
REMARK    8  A    between atoms: C_27  and  C_31
REMARK    9  A    between atoms: C_29  and  C_30
REMARK                            x       y       z     vdW  Elec       q    Type
REMARK                         _______ _______ _______ _____ _____    ______ ____
ROOT
ATOM      1  C   UNL     1       2.101  -1.343   4.028  0.00  0.00    +0.182 C 
ATOM      2  C   UNL     1       1.351  -1.789   5.255  0.00  0.00    +0.060 C 
ATOM      3  C   UNL     1       1.939  -2.409   6.288  0.00  0.00    +0.018 C 
ATOM      4  N   UNL     1       3.286  -2.678   6.313  0.00  0.00    -0.286 N 
ATOM      5  C   UNL     1       4.076  -2.063   5.352  0.00  0.00    +0.240 A 
ATOM      6  N   UNL     1       3.535  -1.429   4.279  0.00  0.00    -0.201 N 
ATOM      7  N   UNL     1       4.616  -0.934   3.552  0.00  0.00    -0.042 NA
ATOM      8  N   UNL     1       5.683  -1.286   4.195  0.00  0.00    -0.021 NA
ATOM      9  N   UNL     1       5.370  -1.952   5.255  0.00  0.00    -0.092 NA
ATOM     10  C   UNL     1       1.093  -2.826   7.464  0.00  0.00    +0.061 C 
ATOM     11  H   UNL     1       3.670  -3.274   6.975  0.00  0.00    +0.155 HD
ENDROOT
BRANCH   1  17
ATOM     12  C   UNL     1       1.059  -1.710   1.777  0.00  0.00    +0.126 A 
ATOM     13  C   UNL     1       0.733  -2.531   0.707  0.00  0.00    +0.046 A 
ATOM     14  C   UNL     1       1.082  -3.867   0.731  0.00  0.00    +0.004 A 
ATOM     15  C   UNL     1       1.756  -4.387   1.821  0.00  0.00    +0.001 A 
ATOM     16  C   UNL     1       2.082  -3.571   2.889  0.00  0.00    +0.009 A 
ATOM     17  C   UNL     1       1.740  -2.233   2.867  0.00  0.00    +0.023 A 
BRANCH  12  18
ATOM     18  O   UNL     1       0.718  -0.395   1.755  0.00  0.00    -0.492 OA
BRANCH  18  20
ATOM     19  C   UNL     1      -0.311   1.558   0.771  0.00  0.00    +0.048 C 
ATOM     20  C   UNL     1      -0.076   0.051   0.654  0.00  0.00    +0.225 C 
ENDBRANCH  18  20
ENDBRANCH  12  18
ENDBRANCH   1  17
BRANCH   2  21
ATOM     21  C   UNL     1      -0.041  -1.542   5.321  0.00  0.00    +0.248 C 
ATOM     22  O   UNL     1      -0.449  -0.441   5.641  0.00  0.00    -0.270 OA
ATOM     23  N   UNL     1      -0.914  -2.526   5.029  0.00  0.00    -0.281 N 
ATOM     24  H   UNL     1      -0.592  -3.422   4.844  0.00  0.00    +0.155 HD
BRANCH  23  25
ATOM     25  C   UNL     1      -2.286  -2.256   4.995  0.00  0.00    +0.037 A 
ATOM     26  C   UNL     1      -2.734  -0.947   4.867  0.00  0.00    +0.024 A 
ATOM     27  C   UNL     1      -4.089  -0.684   4.833  0.00  0.00    +0.005 A 
ATOM     28  C   UNL     1      -5.000  -1.721   4.925  0.00  0.00    -0.050 A 
ATOM     29  C   UNL     1      -4.557  -3.024   5.053  0.00  0.00    +0.008 A 
ATOM     30  C   UNL     1      -3.203  -3.295   5.082  0.00  0.00    -0.029 A 
ATOM     31  C   UNL     1      -2.720  -4.717   5.214  0.00  0.00    +0.045 C 
ATOM     32  C   UNL     1      -6.478  -1.429   4.887  0.00  0.00    +0.044 C 
ENDBRANCH  23  25
ENDBRANCH   2  21
TORSDOF 5
