REMARK  Name = ZINC21761751
REMARK  8 active torsions:
REMARK  status: ('A' for Active; 'I' for Inactive)
REMARK    1  A    between atoms: C_1  and  C_2
REMARK    2  A    between atoms: C_2  and  C_4
REMARK    3  A    between atoms: C_2  and  S_23
REMARK    4  A    between atoms: N_6  and  C_7
REMARK    5  A    between atoms: C_10  and  S_13
REMARK    6  A    between atoms: S_13  and  N_16
REMARK    7  A    between atoms: N_16  and  C_17
REMARK    8  A    between atoms: S_23  and  C_24
REMARK                            x       y       z     vdW  Elec       q    Type
REMARK                         _______ _______ _______ _____ _____    ______ ____
ROOT
ATOM      1  C   UNL     1       5.591   3.284   2.893  0.00  0.00    +0.034 A 
ATOM      2  C   UNL     1       6.160   2.022   2.789  0.00  0.00    +0.025 A 
ATOM      3  C   UNL     1       5.958   1.266   1.651  0.00  0.00    +0.031 A 
ATOM      4  C   UNL     1       5.188   1.765   0.616  0.00  0.00    +0.111 A 
ATOM      5  C   UNL     1       4.624   3.023   0.714  0.00  0.00    +0.031 A 
ATOM      6  C   UNL     1       4.819   3.782   1.852  0.00  0.00    +0.025 A 
ENDROOT
BRANCH   1   9
ATOM      7  C   UNL     1       6.964   3.973   4.709  0.00  0.00    +0.230 C 
ATOM      8  O   UNL     1       7.876   3.313   4.256  0.00  0.00    -0.274 OA
ATOM      9  N   UNL     1       5.795   4.053   4.044  0.00  0.00    -0.285 N 
ATOM     10  H   UNL     1       5.000   4.721   4.407  0.00  0.00    +0.155 HD
BRANCH   7  12
ATOM     11  C   UNL     1       6.600   3.843   7.159  0.00  0.00    +0.029 C 
ATOM     12  C   UNL     1       7.140   4.704   6.015  0.00  0.00    +0.134 C 
BRANCH  12  13
ATOM     13  S   UNL     1       8.902   5.038   6.289  0.00  0.00    -0.112 S 
BRANCH  13  14
ATOM     14  C   UNL     1       8.918   6.138   7.666  0.00  0.00    +0.023 A 
ATOM     15  C   UNL     1       7.724   6.630   8.179  0.00  0.00    +0.016 A 
ATOM     16  C   UNL     1       7.740   7.491   9.258  0.00  0.00    +0.001 A 
ATOM     17  C   UNL     1       8.944   7.864   9.829  0.00  0.00    +0.001 A 
ATOM     18  C   UNL     1      10.134   7.377   9.322  0.00  0.00    +0.016 A 
ATOM     19  C   UNL     1      10.125   6.510   8.246  0.00  0.00    +0.031 A 
ATOM     20 BR   UNL     1      11.754   5.839   7.558  0.00  0.00    -0.049 Br
ENDBRANCH  13  14
ENDBRANCH  12  13
ENDBRANCH   7  12
ENDBRANCH   1   9
BRANCH   4  21
ATOM     21  S   UNL     1       4.933   0.798  -0.835  0.00  0.00    +0.094 S 
ATOM     22  O   UNL     1       6.019  -0.115  -0.911  0.00  0.00    -0.148 OA
ATOM     23  O   UNL     1       4.628   1.709  -1.882  0.00  0.00    -0.148 OA
BRANCH  21  24
ATOM     24  N   UNL     1       3.570  -0.109  -0.585  0.00  0.00    -0.058 NA
BRANCH  24  25
ATOM     25  C   UNL     1       2.341   0.513  -0.444  0.00  0.00    +0.257 A 
ATOM     26  N   UNL     1       1.235  -0.209  -0.544  0.00  0.00    -0.220 NA
ATOM     27  C   UNL     1       0.045   0.354  -0.414  0.00  0.00    +0.116 A 
ATOM     28  C   UNL     1      -0.035   1.716  -0.170  0.00  0.00    +0.039 A 
ATOM     29  C   UNL     1       1.142   2.442  -0.071  0.00  0.00    +0.116 A 
ATOM     30  N   UNL     1       2.299   1.817  -0.211  0.00  0.00    -0.220 NA
ENDBRANCH  24  25
ENDBRANCH  21  24
ENDBRANCH   4  21
TORSDOF 7
