REMARK  Name = ZINC59123447
REMARK  9 active torsions:
REMARK  status: ('A' for Active; 'I' for Inactive)
REMARK    1  A    between atoms: C_1  and  C_2
REMARK    2  A    between atoms: C_5  and  C_37
REMARK    3  A    between atoms: C_6  and  C_8
REMARK    4  A    between atoms: N_10  and  C_31
REMARK    5  A    between atoms: N_14  and  C_22
REMARK    6  A    between atoms: C_16  and  C_18
REMARK    7  A    between atoms: C_18  and  O_20
REMARK    8  A    between atoms: O_20  and  C_21
REMARK    9  A    between atoms: C_25  and  N_28
REMARK                            x       y       z     vdW  Elec       q    Type
REMARK                         _______ _______ _______ _____ _____    ______ ____
ROOT
ATOM      1  C   UNL     1      -0.260  -2.430   2.746  0.00  0.00    +0.089 C 
ATOM      2  N   UNL     1      -0.296  -3.735   2.858  0.00  0.00    -0.176 NA
ATOM      3  N   UNL     1      -0.249  -4.310   4.143  0.00  0.00    -0.185 N 
ATOM      4  C   UNL     1       0.437  -3.583   5.201  0.00  0.00    +0.214 C 
ATOM      5  C   UNL     1       0.153  -2.115   5.121  0.00  0.00    +0.036 C 
ATOM      6  C   UNL     1      -0.170  -1.578   3.945  0.00  0.00    +0.030 C 
ATOM      7  N   UNL     1       0.133  -4.128   6.530  0.00  0.00    -0.184 N 
ATOM      8  N   UNL     1       1.216  -4.645   7.212  0.00  0.00    -0.163 NA
ATOM      9  C   UNL     1       2.427  -4.652   6.721  0.00  0.00    +0.203 C 
ATOM     10  S   UNL     1       2.243  -3.887   5.116  0.00  0.00    -0.044 S 
ENDROOT
BRANCH   1  16
ATOM     11  C   UNL     1      -2.700  -1.493  -1.506  0.00  0.00    +0.044 C 
ATOM     12  C   UNL     1      -1.472  -1.354  -0.644  0.00  0.00    -0.050 A 
ATOM     13  C   UNL     1      -0.381  -0.641  -1.107  0.00  0.00    +0.003 A 
ATOM     14  C   UNL     1       0.750  -0.508  -0.322  0.00  0.00    +0.004 A 
ATOM     15  C   UNL     1       0.795  -1.087   0.930  0.00  0.00    -0.041 A 
ATOM     16  C   UNL     1      -0.302  -1.806   1.403  0.00  0.00    +0.005 A 
ATOM     17  C   UNL     1      -1.441  -1.932   0.608  0.00  0.00    +0.013 A 
ATOM     18  C   UNL     1       2.029  -0.942   1.785  0.00  0.00    +0.044 C 
ENDBRANCH   1  16
BRANCH   7  19
ATOM     19  C   UNL     1      -1.156  -4.125   7.064  0.00  0.00    +0.055 A 
ATOM     20  C   UNL     1      -2.213  -3.597   6.331  0.00  0.00    +0.027 A 
ATOM     21  C   UNL     1      -3.487  -3.595   6.862  0.00  0.00    +0.034 A 
ATOM     22  C   UNL     1      -3.713  -4.119   8.123  0.00  0.00    +0.126 A 
ATOM     23  C   UNL     1      -2.664  -4.645   8.855  0.00  0.00    +0.034 A 
ATOM     24  C   UNL     1      -1.388  -4.656   8.327  0.00  0.00    +0.027 A 
BRANCH  22  25
ATOM     25  N   UNL     1      -5.080  -4.115   8.690  0.00  0.00    +0.056 N 
ATOM     26  O   UNL     1      -5.998  -3.655   8.051  0.00  0.00    -0.126 OA
ATOM     27  O   UNL     1      -5.280  -4.572   9.791  0.00  0.00    -0.126 OA
ENDBRANCH  22  25
ENDBRANCH   7  19
BRANCH   3  28
ATOM     28  C   UNL     1      -0.844  -5.545   4.395  0.00  0.00    +0.055 A 
ATOM     29  C   UNL     1      -2.144  -5.793   3.969  0.00  0.00    +0.025 A 
ATOM     30  C   UNL     1      -2.731  -7.017   4.221  0.00  0.00    +0.002 A 
ATOM     31  C   UNL     1      -2.026  -7.997   4.897  0.00  0.00    +0.000 A 
ATOM     32  C   UNL     1      -0.733  -7.755   5.323  0.00  0.00    +0.002 A 
ATOM     33  C   UNL     1      -0.138  -6.535   5.069  0.00  0.00    +0.025 A 
ENDBRANCH   3  28
BRANCH   9  34
ATOM     34  C   UNL     1       3.653  -5.167   7.342  0.00  0.00    +0.366 C 
ATOM     35  O   UNL     1       4.711  -5.098   6.748  0.00  0.00    -0.243 OA
BRANCH  34  36
ATOM     36  O   UNL     1       3.605  -5.718   8.573  0.00  0.00    -0.463 OA
ATOM     37  C   UNL     1       4.836  -6.199   9.116  0.00  0.00    +0.280 C 
ENDBRANCH  34  36
ENDBRANCH   9  34
TORSDOF 6
