REMARK  Name = ZINC08716212
REMARK  11 active torsions:
REMARK  status: ('A' for Active; 'I' for Inactive)
REMARK    1  A    between atoms: C_1  and  C_2
REMARK    2  A    between atoms: C_9  and  C_14
REMARK    3  A    between atoms: C_14  and  O_16
REMARK    4  A    between atoms: O_16  and  C_17
REMARK    5  A    between atoms: C_17  and  C_19
REMARK    6  A    between atoms: C_17  and  C_20
REMARK    7  A    between atoms: N_22  and  C_23
REMARK    8  A    between atoms: C_25  and  O_31
REMARK    9  A    between atoms: C_28  and  O_29
REMARK   10  A    between atoms: O_29  and  C_30
REMARK   11  A    between atoms: O_31  and  C_32
REMARK                            x       y       z     vdW  Elec       q    Type
REMARK                         _______ _______ _______ _____ _____    ______ ____
ROOT
ATOM      1  O   UNL     1      -5.974  -0.940  -0.228  0.00  0.00    -0.449 OA
ENDROOT
BRANCH   1   2
ATOM      2  C   UNL     1      -7.073  -0.556  -0.907  0.00  0.00    +0.340 C 
ATOM      3  O   UNL     1      -7.119   0.548  -1.414  0.00  0.00    -0.245 OA
BRANCH   2  11
ATOM      4  C   UNL     1     -13.456  -2.576  -0.140  0.00  0.00    +0.029 C 
ATOM      5  C   UNL     1     -13.151  -3.142  -1.529  0.00  0.00    +0.134 C 
ATOM      6  C   UNL     1     -12.788  -2.019  -2.462  0.00  0.00    +0.230 C 
ATOM      7  O   UNL     1     -13.665  -1.541  -3.150  0.00  0.00    -0.274 OA
ATOM      8  N   UNL     1     -11.560  -1.522  -2.574  0.00  0.00    -0.284 N 
ATOM      9  C   UNL     1     -10.435  -1.935  -1.863  0.00  0.00    +0.048 A 
ATOM     10  C   UNL     1      -9.359  -1.072  -1.735  0.00  0.00    +0.039 A 
ATOM     11  C   UNL     1      -8.218  -1.474  -1.036  0.00  0.00    +0.061 A 
ATOM     12  C   UNL     1      -8.163  -2.744  -0.452  0.00  0.00    +0.016 A 
ATOM     13  C   UNL     1      -9.236  -3.598  -0.572  0.00  0.00    +0.017 A 
ATOM     14  C   UNL     1     -10.368  -3.201  -1.272  0.00  0.00    +0.030 A 
ATOM     15  S   UNL     1     -11.747  -4.293  -1.423  0.00  0.00    -0.111 S 
ATOM     16  H   UNL     1     -11.435  -0.803  -3.213  0.00  0.00    +0.155 HD
ENDBRANCH   2  11
ENDBRANCH   1   2
BRANCH   1  17
ATOM     17  C   UNL     1      -4.884   0.016  -0.142  0.00  0.00    +0.259 C 
ATOM     18  C   UNL     1      -5.066   0.886   1.103  0.00  0.00    +0.062 C 
BRANCH  17  19
ATOM     19  C   UNL     1      -3.574  -0.722  -0.052  0.00  0.00    +0.258 C 
ATOM     20  O   UNL     1      -3.560  -1.935  -0.059  0.00  0.00    -0.271 OA
ATOM     21  N   UNL     1      -2.418  -0.035   0.037  0.00  0.00    -0.279 N 
ATOM     22  H   UNL     1      -2.433   0.931   0.124  0.00  0.00    +0.155 HD
BRANCH  21  23
ATOM     23  C   UNL     1      -1.194  -0.716   0.004  0.00  0.00    +0.079 A 
ATOM     24  C   UNL     1      -1.105  -1.956  -0.611  0.00  0.00    +0.072 A 
ATOM     25  C   UNL     1       0.106  -2.631  -0.636  0.00  0.00    +0.122 A 
ATOM     26  C   UNL     1       1.229  -2.064  -0.052  0.00  0.00    +0.049 A 
ATOM     27  C   UNL     1       1.145  -0.826   0.557  0.00  0.00    +0.051 A 
ATOM     28  C   UNL     1      -0.063  -0.147   0.585  0.00  0.00    +0.141 A 
BRANCH  28  29
ATOM     29  O   UNL     1      -0.145   1.071   1.185  0.00  0.00    -0.493 OA
ATOM     30  C   UNL     1       1.052   1.591   1.765  0.00  0.00    +0.277 C 
ENDBRANCH  28  29
BRANCH  25  31
ATOM     31  O   UNL     1       0.193  -3.849  -1.233  0.00  0.00    -0.495 OA
ATOM     32  C   UNL     1       1.471  -4.488  -1.222  0.00  0.00    +0.277 C 
ENDBRANCH  25  31
ENDBRANCH  21  23
ENDBRANCH  17  19
ENDBRANCH   1  17
TORSDOF 7
