REMARK  Name = ZINC39875326
REMARK  7 active torsions:
REMARK  status: ('A' for Active; 'I' for Inactive)
REMARK    1  A    between atoms: C_1  and  C_2
REMARK    2  A    between atoms: C_2  and  C_3
REMARK    3  A    between atoms: C_6  and  N_9
REMARK    4  A    between atoms: C_10  and  C_26
REMARK    5  A    between atoms: C_29  and  O_34
REMARK    6  A    between atoms: C_30  and  O_32
REMARK    7  A    between atoms: O_32  and  C_33
REMARK                            x       y       z     vdW  Elec       q    Type
REMARK                         _______ _______ _______ _____ _____    ______ ____
ROOT
ATOM      1  N   UNL     1      -5.318  -1.968   0.042  0.00  0.00    -0.253 N 
ATOM      2  C   UNL     1      -6.137  -2.272  -1.143  0.00  0.00    +0.150 C 
ATOM      3  C   UNL     1      -7.450  -2.754  -0.618  0.00  0.00    +0.072 A 
ATOM      4  C   UNL     1      -8.665  -3.193  -1.311  0.00  0.00    +0.199 A 
ATOM      5  O   UNL     1      -8.714  -3.392  -2.512  0.00  0.00    -0.287 OA
ATOM      6  C   UNL     1      -9.831  -3.373  -0.409  0.00  0.00    +0.065 A 
ATOM      7  C   UNL     1     -11.104  -3.592  -0.937  0.00  0.00    +0.030 A 
ATOM      8  C   UNL     1     -12.175  -3.752  -0.086  0.00  0.00    +0.019 A 
ATOM      9  C   UNL     1     -11.986  -3.693   1.289  0.00  0.00    +0.019 A 
ATOM     10  C   UNL     1     -10.735  -3.478   1.821  0.00  0.00    +0.048 A 
ATOM     11  C   UNL     1      -9.634  -3.317   0.980  0.00  0.00    +0.140 A 
ATOM     12  O   UNL     1      -8.413  -3.118   1.529  0.00  0.00    -0.450 OA
ATOM     13  C   UNL     1      -7.386  -2.733   0.747  0.00  0.00    +0.199 A 
ATOM     14  C   UNL     1      -6.053  -2.245   1.139  0.00  0.00    +0.287 C 
ATOM     15  O   UNL     1      -5.671  -2.109   2.285  0.00  0.00    -0.266 OA
ATOM     16 BR   UNL     1     -13.905  -4.051  -0.789  0.00  0.00    -0.050 Br
ENDROOT
BRANCH   1  20
ATOM     17  C   UNL     1      -1.412  -0.526   0.013  0.00  0.00    -0.048 A 
ATOM     18  C   UNL     1      -2.050  -0.766   1.216  0.00  0.00    +0.005 A 
ATOM     19  C   UNL     1      -3.345  -1.244   1.230  0.00  0.00    +0.024 A 
ATOM     20  C   UNL     1      -4.008  -1.484   0.032  0.00  0.00    +0.038 A 
ATOM     21  C   UNL     1      -3.364  -1.241  -1.175  0.00  0.00    +0.024 A 
ATOM     22  C   UNL     1      -2.070  -0.758  -1.181  0.00  0.00    +0.005 A 
BRANCH  17  24
ATOM     23  C   UNL     1      -0.019   1.526   0.010  0.00  0.00    +0.009 C 
ATOM     24  C   UNL     1       0.002  -0.004   0.002  0.00  0.00    +0.032 C 
ENDBRANCH  17  24
ENDBRANCH   1  20
BRANCH   2  25
ATOM     25  C   UNL     1      -5.479  -3.348  -1.968  0.00  0.00    -0.018 A 
ATOM     26  C   UNL     1      -4.870  -4.421  -1.343  0.00  0.00    +0.009 A 
ATOM     27  C   UNL     1      -4.265  -5.410  -2.095  0.00  0.00    +0.049 A 
ATOM     28  C   UNL     1      -4.268  -5.329  -3.478  0.00  0.00    +0.158 A 
ATOM     29  C   UNL     1      -4.881  -4.249  -4.107  0.00  0.00    +0.162 A 
ATOM     30  C   UNL     1      -5.490  -3.263  -3.347  0.00  0.00    +0.055 A 
BRANCH  29  31
ATOM     31  O   UNL     1      -4.886  -4.165  -5.464  0.00  0.00    -0.491 OA
ATOM     32  C   UNL     1      -5.534  -3.029  -6.041  0.00  0.00    +0.277 C 
ENDBRANCH  29  31
BRANCH  28  33
ATOM     33  O   UNL     1      -3.672  -6.301  -4.220  0.00  0.00    -0.503 OA
ATOM     34  H   UNL     1      -4.261  -7.029  -4.459  0.00  0.00    +0.292 HD
ENDBRANCH  28  33
ENDBRANCH   2  25
TORSDOF 5
