REMARK  Name = ZINC22110455
REMARK  9 active torsions:
REMARK  status: ('A' for Active; 'I' for Inactive)
REMARK    1  A    between atoms: C_1  and  C_2
REMARK    2  A    between atoms: C_2  and  C_4
REMARK    3  A    between atoms: C_2  and  O_23
REMARK    4  A    between atoms: N_6  and  C_7
REMARK    5  A    between atoms: O_23  and  C_24
REMARK    6  A    between atoms: C_24  and  C_26
REMARK    7  A    between atoms: C_29  and  C_31
REMARK    8  A    between atoms: C_31  and  O_32
REMARK    9  A    between atoms: O_32  and  C_33
REMARK                            x       y       z     vdW  Elec       q    Type
REMARK                         _______ _______ _______ _____ _____    ______ ____
ROOT
ATOM      1  C   UNL     1       9.621  -2.557   4.970  0.00  0.00    +0.258 C 
ATOM      2  O   UNL     1       8.943  -1.587   5.231  0.00  0.00    -0.271 OA
ATOM      3  N   UNL     1      10.552  -2.984   5.846  0.00  0.00    -0.282 N 
ATOM      4  H   UNL     1      11.105  -3.915   5.652  0.00  0.00    +0.155 HD
ENDROOT
BRANCH   3   5
ATOM      5  C   UNL     1      10.814  -2.247   6.997  0.00  0.00    +0.045 A 
ATOM      6  C   UNL     1      10.551  -0.877   7.027  0.00  0.00    +0.024 A 
ATOM      7  C   UNL     1      10.809  -0.143   8.165  0.00  0.00    +0.003 A 
ATOM      8  C   UNL     1      11.333  -0.753   9.296  0.00  0.00    +0.012 A 
ATOM      9  C   UNL     1      11.603  -2.116   9.287  0.00  0.00    +0.035 A 
ATOM     10  C   UNL     1      11.337  -2.875   8.131  0.00  0.00    +0.054 A 
ATOM     11  C   UNL     1      11.618  -4.323   8.125  0.00  0.00    +0.196 C 
ATOM     12  O   UNL     1      11.175  -5.032   7.242  0.00  0.00    -0.287 OA
ATOM     13  C   UNL     1      12.444  -4.903   9.207  0.00  0.00    +0.033 A 
ATOM     14  C   UNL     1      12.965  -6.187   9.088  0.00  0.00    +0.012 A 
ATOM     15  C   UNL     1      13.738  -6.713  10.109  0.00  0.00    +0.001 A 
ATOM     16  C   UNL     1      13.996  -5.970  11.247  0.00  0.00    +0.001 A 
ATOM     17  C   UNL     1      13.485  -4.691  11.381  0.00  0.00    +0.012 A 
ATOM     18  C   UNL     1      12.707  -4.147  10.364  0.00  0.00    +0.033 A 
ATOM     19  C   UNL     1      12.165  -2.779  10.484  0.00  0.00    +0.195 C 
ATOM     20  O   UNL     1      12.166  -2.211  11.558  0.00  0.00    -0.287 OA
ENDBRANCH   3   5
BRANCH   1  22
ATOM     21  C   UNL     1       8.909  -4.700   3.945  0.00  0.00    +0.062 C 
ATOM     22  C   UNL     1       9.424  -3.286   3.666  0.00  0.00    +0.259 C 
BRANCH  22  23
ATOM     23  O   UNL     1       8.457  -2.571   2.853  0.00  0.00    -0.447 OA
BRANCH  23  24
ATOM     24  C   UNL     1       8.595  -2.664   1.514  0.00  0.00    +0.376 C 
ATOM     25  O   UNL     1       9.498  -3.326   1.040  0.00  0.00    -0.241 OA
BRANCH  24  26
ATOM     26  C   UNL     1       7.656  -1.968   0.631  0.00  0.00    +0.212 A 
ATOM     27  C   UNL     1       7.680  -1.978  -0.735  0.00  0.00    +0.057 A 
ATOM     28  C   UNL     1       6.602  -1.188  -1.163  0.00  0.00    +0.049 A 
ATOM     29  C   UNL     1       5.979  -0.730  -0.055  0.00  0.00    +0.143 A 
ATOM     30  O   UNL     1       6.615  -1.204   1.024  0.00  0.00    -0.450 OA
BRANCH  29  31
ATOM     31  C   UNL     1       4.765   0.163  -0.036  0.00  0.00    +0.303 C 
BRANCH  31  32
ATOM     32  O   UNL     1       3.583  -0.640  -0.036  0.00  0.00    -0.484 OA
BRANCH  32  33
ATOM     33  C   UNL     1       2.393   0.014  -0.020  0.00  0.00    +0.121 A 
ATOM     34  C   UNL     1       1.205  -0.704  -0.019  0.00  0.00    +0.045 A 
ATOM     35  C   UNL     1      -0.004  -0.036  -0.003  0.00  0.00    +0.004 A 
ATOM     36  C   UNL     1      -0.032   1.347   0.013  0.00  0.00    +0.000 A 
ATOM     37  C   UNL     1       1.150   2.064   0.012  0.00  0.00    +0.004 A 
ATOM     38  C   UNL     1       2.362   1.401  -0.004  0.00  0.00    +0.045 A 
ENDBRANCH  32  33
ENDBRANCH  31  32
ENDBRANCH  29  31
ENDBRANCH  24  26
ENDBRANCH  23  24
ENDBRANCH  22  23
ENDBRANCH   1  22
TORSDOF 8
