REMARK  Name = ZINC35844968
REMARK  13 active torsions:
REMARK  status: ('A' for Active; 'I' for Inactive)
REMARK    1  A    between atoms: C_1  and  C_2
REMARK    2  A    between atoms: C_5  and  C_7
REMARK    3  A    between atoms: C_7  and  N_8
REMARK    4  A    between atoms: N_8  and  C_9
REMARK    5  A    between atoms: C_9  and  C_10
REMARK    6  A    between atoms: C_10  and  C_11
REMARK    7  A    between atoms: C_17  and  C_19
REMARK    8  A    between atoms: C_19  and  N_20
REMARK    9  A    between atoms: N_20  and  C_21
REMARK   10  A    between atoms: N_20  and  C_31
REMARK   11  A    between atoms: C_21  and  C_22
REMARK   12  A    between atoms: C_25  and  N_28
REMARK   13  A    between atoms: C_31  and  C_32
REMARK                            x       y       z     vdW  Elec       q    Type
REMARK                         _______ _______ _______ _____ _____    ______ ____
ROOT
ATOM      1  C   UNL     1      -0.022  -5.035  -1.437  0.00  0.00    +0.020 C 
ENDROOT
BRANCH   1   3
ATOM      2  N   UNL     1       2.037  -3.668  -1.541  0.00  0.00    -0.295 N 
ATOM      3  C   UNL     1       1.166  -4.475  -2.177  0.00  0.00    +0.199 C 
ATOM      4  O   UNL     1       1.337  -4.751  -3.346  0.00  0.00    -0.278 OA
BRANCH   2   5
ATOM      5  C   UNL     1       1.830  -3.335  -0.129  0.00  0.00    +0.181 C 
BRANCH   5  10
ATOM      6  C   UNL     1       0.523   1.527   0.183  0.00  0.00    +0.086 C 
ATOM      7  C   UNL     1       0.420   0.025   0.111  0.00  0.00    +0.102 A 
ATOM      8  C   UNL     1      -0.721  -0.687   0.128  0.00  0.00    +0.045 A 
ATOM      9  C   UNL     1      -0.354  -2.050   0.040  0.00  0.00    +0.046 A 
ATOM     10  C   UNL     1       0.989  -2.089  -0.026  0.00  0.00    +0.122 A 
ATOM     11  O   UNL     1       1.452  -0.829   0.012  0.00  0.00    -0.463 OA
ENDBRANCH   5  10
ENDBRANCH   2   5
BRANCH   2  12
ATOM     12  C   UNL     1       3.192  -3.124  -2.260  0.00  0.00    +0.113 C 
BRANCH  12  13
ATOM     13  C   UNL     1       4.376  -4.083  -2.124  0.00  0.00    +0.054 C 
BRANCH  13  14
ATOM     14  C   UNL     1       5.563  -3.524  -2.864  0.00  0.00    -0.046 A 
ATOM     15  C   UNL     1       5.755  -3.834  -4.197  0.00  0.00    +0.004 A 
ATOM     16  C   UNL     1       6.845  -3.321  -4.876  0.00  0.00    +0.000 A 
ATOM     17  C   UNL     1       7.742  -2.497  -4.222  0.00  0.00    +0.000 A 
ATOM     18  C   UNL     1       7.549  -2.186  -2.889  0.00  0.00    +0.000 A 
ATOM     19  C   UNL     1       6.457  -2.696  -2.211  0.00  0.00    +0.004 A 
ENDBRANCH  13  14
ENDBRANCH  12  13
ENDBRANCH   2  12
ENDBRANCH   1   3
BRANCH   1  20
ATOM     20  N   UNL     1      -0.722  -6.001  -2.295  0.00  0.00    +0.393 N 
ATOM     21  H   UNL     1      -0.926  -5.573  -3.186  0.00  0.00    -0.080 HD
BRANCH  20  22
ATOM     22  C   UNL     1       0.129  -7.180  -2.500  0.00  0.00    -0.042 C 
BRANCH  22  23
ATOM     23  C   UNL     1      -0.537  -8.116  -3.477  0.00  0.00    -0.064 A 
ATOM     24  C   UNL     1      -1.397  -9.096  -3.018  0.00  0.00    +0.004 A 
ATOM     25  C   UNL     1      -2.007  -9.954  -3.914  0.00  0.00    +0.033 A 
ATOM     26  C   UNL     1      -1.758  -9.831  -5.268  0.00  0.00    +0.126 A 
ATOM     27  C   UNL     1      -0.898  -8.850  -5.727  0.00  0.00    +0.033 A 
ATOM     28  C   UNL     1      -0.291  -7.989  -4.831  0.00  0.00    +0.004 A 
BRANCH  26  29
ATOM     29  N   UNL     1      -2.410 -10.750  -6.228  0.00  0.00    +0.056 N 
ATOM     30  O   UNL     1      -3.162 -11.608  -5.827  0.00  0.00    -0.126 OA
ATOM     31  O   UNL     1      -2.192 -10.643  -7.412  0.00  0.00    -0.126 OA
ENDBRANCH  26  29
ENDBRANCH  22  23
ENDBRANCH  20  22
BRANCH  20  32
ATOM     32  C   UNL     1      -1.977  -6.409  -1.649  0.00  0.00    -0.002 C 
BRANCH  32  33
ATOM     33  C   UNL     1      -2.896  -5.219  -1.540  0.00  0.00    +0.089 A 
ATOM     34  C   UNL     1      -3.719  -4.770  -2.504  0.00  0.00    +0.042 A 
ATOM     35  C   UNL     1      -4.390  -3.642  -1.977  0.00  0.00    +0.041 A 
ATOM     36  C   UNL     1      -3.936  -3.469  -0.723  0.00  0.00    +0.195 A 
ATOM     37  O   UNL     1      -3.035  -4.431  -0.461  0.00  0.00    -0.470 OA
ENDBRANCH  32  33
ENDBRANCH  20  32
ENDBRANCH   1  20
TORSDOF 12
