REMARK  Name = ZINC13639719
REMARK  4 active torsions:
REMARK  status: ('A' for Active; 'I' for Inactive)
REMARK    1  A    between atoms: C_5  and  C_7
REMARK    2  A    between atoms: C_11  and  C_20
REMARK    3  A    between atoms: C_23  and  O_27
REMARK    4  A    between atoms: C_25  and  O_26
REMARK                            x       y       z     vdW  Elec       q    Type
REMARK                         _______ _______ _______ _____ _____    ______ ____
ROOT
ATOM      1  C   UNL     1       3.875   2.614   0.138  0.00  0.00    +0.001 A 
ATOM      2  C   UNL     1       2.862   3.273  -0.533  0.00  0.00    +0.006 A 
ATOM      3  C   UNL     1       1.571   2.765  -0.556  0.00  0.00    -0.019 A 
ATOM      4  C   UNL     1       1.294   1.581   0.106  0.00  0.00    +0.044 A 
ATOM      5  C   UNL     1       2.324   0.907   0.789  0.00  0.00    +0.058 A 
ATOM      6  C   UNL     1       3.616   1.433   0.798  0.00  0.00    +0.015 A 
ATOM      7  N   UNL     1       0.025   1.024   0.127  0.00  0.00    -0.336 N 
ATOM      8  C   UNL     1      -0.770   1.411  -1.039  0.00  0.00    +0.108 C 
ATOM      9  C   UNL     1      -0.883   2.948  -1.079  0.00  0.00    +0.029 C 
ATOM     10  C   UNL     1       0.527   3.532  -1.313  0.00  0.00    +0.049 C 
ATOM     11  C   UNL     1       0.751   3.409  -2.803  0.00  0.00    -0.023 C 
ATOM     12  C   UNL     1      -0.392   3.286  -3.430  0.00  0.00    -0.030 C 
ATOM     13  C   UNL     1      -1.545   3.317  -2.447  0.00  0.00    +0.033 C 
ATOM     14  H   UNL     1       0.073   0.019   0.215  0.00  0.00    +0.147 HD
ENDROOT
BRANCH   8  15
ATOM     15  C   UNL     1      -2.147   0.810  -0.929  0.00  0.00    +0.015 A 
ATOM     16  C   UNL     1      -2.716   0.182  -2.022  0.00  0.00    +0.012 A 
ATOM     17  C   UNL     1      -3.977  -0.374  -1.923  0.00  0.00    +0.046 A 
ATOM     18  C   UNL     1      -4.680  -0.293  -0.730  0.00  0.00    +0.120 A 
ATOM     19  C   UNL     1      -4.115   0.341   0.366  0.00  0.00    +0.091 A 
ATOM     20  C   UNL     1      -2.847   0.893   0.266  0.00  0.00    +0.125 A 
BRANCH  20  21
ATOM     21  O   UNL     1      -2.290   1.516   1.338  0.00  0.00    -0.506 OA
ATOM     22  H   UNL     1      -2.484   2.462   1.387  0.00  0.00    +0.292 HD
ENDBRANCH  20  21
BRANCH  18  23
ATOM     23  O   UNL     1      -5.923  -0.836  -0.635  0.00  0.00    -0.507 OA
ATOM     24  H   UNL     1      -6.637  -0.227  -0.868  0.00  0.00    +0.292 HD
ENDBRANCH  18  23
ENDBRANCH   8  15
BRANCH   5  25
ATOM     25  C   UNL     1       2.038  -0.355   1.495  0.00  0.00    +0.243 C 
ATOM     26  O   UNL     1       0.892  -0.752   1.590  0.00  0.00    -0.270 OA
ATOM     27  N   UNL     1       3.045  -1.070   2.035  0.00  0.00    -0.325 N 
ATOM     28  H   UNL     1       3.959  -0.753   1.959  0.00  0.00    +0.145 HD
ATOM     29  H   UNL     1       2.856  -1.900   2.499  0.00  0.00    +0.145 HD
ENDBRANCH   5  25
TORSDOF 4
