REMARK  Name = ZINC10065825
REMARK  10 active torsions:
REMARK  status: ('A' for Active; 'I' for Inactive)
REMARK    1  A    between atoms: C_1  and  C_2
REMARK    2  A    between atoms: C_2  and  O_3
REMARK    3  A    between atoms: O_3  and  C_4
REMARK    4  A    between atoms: N_13  and  C_14
REMARK    5  A    between atoms: C_14  and  C_15
REMARK    6  A    between atoms: C_15  and  N_61
REMARK    7  A    between atoms: C_16  and  N_61
REMARK    8  A    between atoms: C_17  and  N_61
REMARK    9  A    between atoms: C_18  and  C_20
REMARK   10  A    between atoms: C_22  and  C_30
REMARK                            x       y       z     vdW  Elec       q    Type
REMARK                         _______ _______ _______ _____ _____    ______ ____
ROOT
ATOM      1  C   UNL     1      -1.747   5.645   3.884  0.00  0.00    +0.147 A 
ATOM      2  C   UNL     1      -1.362   6.939   4.147  0.00  0.00    +0.048 A 
ATOM      3  C   UNL     1      -0.271   7.513   3.513  0.00  0.00    +0.005 A 
ATOM      4  C   UNL     1       0.448   6.769   2.594  0.00  0.00    +0.017 A 
ATOM      5  C   UNL     1       0.072   5.476   2.323  0.00  0.00    +0.044 A 
ATOM      6  C   UNL     1      -1.032   4.855   2.947  0.00  0.00    +0.122 A 
ATOM      7  N   UNL     1      -1.275   3.579   2.576  0.00  0.00    -0.221 NA
ATOM      8  C   UNL     1      -0.536   2.950   1.692  0.00  0.00    +0.168 A 
ATOM      9  S   UNL     1       0.680   4.187   1.262  0.00  0.00    -0.052 S 
ATOM     10  N   UNL     1      -0.663   1.655   1.218  0.00  0.00    -0.248 N 
ATOM     11  C   UNL     1      -1.655   0.865   1.674  0.00  0.00    +0.253 C 
ATOM     12  O   UNL     1      -2.502   1.320   2.418  0.00  0.00    -0.270 OA
ENDROOT
BRANCH  11  13
ATOM     13  C   UNL     1      -1.712  -0.557   1.270  0.00  0.00    +0.048 A 
ATOM     14  C   UNL     1      -0.626  -1.400   1.445  0.00  0.00    +0.042 A 
ATOM     15  C   UNL     1      -0.727  -2.746   1.052  0.00  0.00    +0.079 A 
ATOM     16  N   UNL     1      -1.823  -3.239   0.508  0.00  0.00    -0.246 NA
ATOM     17  C   UNL     1      -2.912  -2.497   0.300  0.00  0.00    +0.072 A 
ATOM     18  C   UNL     1      -2.917  -1.127   0.666  0.00  0.00    +0.013 A 
ATOM     19  C   UNL     1      -4.061  -0.353   0.446  0.00  0.00    +0.011 A 
ATOM     20  C   UNL     1      -5.163  -0.924  -0.120  0.00  0.00    +0.001 A 
ATOM     21  C   UNL     1      -5.163  -2.269  -0.482  0.00  0.00    +0.002 A 
ATOM     22  C   UNL     1      -4.067  -3.051  -0.282  0.00  0.00    +0.028 A 
BRANCH  15  23
ATOM     23  C   UNL     1       0.433  -3.635   1.249  0.00  0.00    +0.038 A 
ATOM     24  C   UNL     1       0.599  -4.939   0.857  0.00  0.00    +0.017 A 
ATOM     25  C   UNL     1       1.785  -5.572   1.151  0.00  0.00    +0.008 A 
ATOM     26  C   UNL     1       2.749  -4.892   1.828  0.00  0.00    +0.046 A 
ATOM     27  S   UNL     1       1.985  -3.296   2.065  0.00  0.00    -0.095 S 
ENDBRANCH  15  23
ENDBRANCH  11  13
BRANCH   1  28
ATOM     28  O   UNL     1      -2.823   5.119   4.526  0.00  0.00    -0.490 OA
BRANCH  28  30
ATOM     29  C   UNL     1      -4.676   5.204   6.076  0.00  0.00    +0.048 C 
ATOM     30  C   UNL     1      -3.501   5.965   5.457  0.00  0.00    +0.226 C 
ENDBRANCH  28  30
ENDBRANCH   1  28
BRANCH  10  31
ATOM     31  C   UNL     1       0.280   1.144   0.220  0.00  0.00    +0.097 C 
BRANCH  31  32
ATOM     32  C   UNL     1      -0.220   1.496  -1.182  0.00  0.00    -0.060 C 
BRANCH  32  35
ATOM     33  C   UNL     1       0.732  -0.386  -2.372  0.00  0.00    -0.097 C 
ATOM     34  C   UNL     1       0.578   1.777  -3.451  0.00  0.00    -0.097 C 
ATOM     35  N   UNL     1       0.798   1.077  -2.168  0.00  0.00    +0.377 N 
ATOM     36  H   UNL     1       1.729   1.321  -1.810  0.00  0.00    -0.083 HD
ENDBRANCH  32  35
ENDBRANCH  31  32
ENDBRANCH  10  31
TORSDOF 7
