REMARK  Name = ZINC20134615
REMARK  5 active torsions:
REMARK  status: ('A' for Active; 'I' for Inactive)
REMARK    1  A    between atoms: C_4  and  C_7
REMARK    2  A    between atoms: C_10  and  C_30
REMARK    3  A    between atoms: C_17  and  C_20
REMARK    4  A    between atoms: C_20  and  C_21
REMARK    5  A    between atoms: N_23  and  C_24
REMARK                            x       y       z     vdW  Elec       q    Type
REMARK                         _______ _______ _______ _____ _____    ______ ____
ROOT
ATOM      1  C   UNL     1      -3.701   3.502   0.045  0.00  0.00    +0.136 C 
ATOM      2  C   UNL     1      -4.539   4.796   0.052  0.00  0.00    +0.087 C 
ATOM      3  C   UNL     1      -3.505   5.899   0.042  0.00  0.00    +0.069 C 
ATOM      4  N   UNL     1      -2.325   5.383   0.037  0.00  0.00    -0.182 NA
ATOM      5  N   UNL     1      -2.313   3.990   0.032  0.00  0.00    -0.195 N 
ATOM      6  C   UNL     1      -1.196   3.205   0.023  0.00  0.00    +0.170 C 
ATOM      7  N   UNL     1      -1.125   1.880   0.018  0.00  0.00    -0.157 NA
ATOM      8  C   UNL     1      -0.009   1.203   0.014  0.00  0.00    +0.252 C 
ATOM      9  O   UNL     1       0.013  -0.013   0.014  0.00  0.00    -0.272 OA
ATOM     10  C   UNL     1       1.263   2.041   0.002  0.00  0.00    +0.150 C 
ATOM     11  S   UNL     1       0.516   3.721   0.008  0.00  0.00    -0.078 S 
ENDROOT
BRANCH   1  15
ATOM     12  C   UNL     1      -4.452   1.194   3.560  0.00  0.00    +0.000 A 
ATOM     13  C   UNL     1      -4.999   0.809   2.350  0.00  0.00    +0.000 A 
ATOM     14  C   UNL     1      -4.756   1.556   1.213  0.00  0.00    +0.005 A 
ATOM     15  C   UNL     1      -3.966   2.688   1.285  0.00  0.00    -0.025 A 
ATOM     16  C   UNL     1      -3.415   3.071   2.494  0.00  0.00    +0.005 A 
ATOM     17  C   UNL     1      -3.662   2.326   3.632  0.00  0.00    +0.000 A 
ENDBRANCH   1  15
BRANCH   3  18
ATOM     18  C   UNL     1      -3.802   7.344   0.044  0.00  0.00    -0.002 A 
ATOM     19  C   UNL     1      -5.126   7.788   0.050  0.00  0.00    +0.010 A 
ATOM     20  C   UNL     1      -5.397   9.140   0.059  0.00  0.00    +0.001 A 
ATOM     21  C   UNL     1      -4.360  10.057   0.049  0.00  0.00    +0.000 A 
ATOM     22  C   UNL     1      -3.045   9.624   0.037  0.00  0.00    +0.001 A 
ATOM     23  C   UNL     1      -2.760   8.274   0.035  0.00  0.00    +0.010 A 
ENDBRANCH   3  18
BRANCH  10  24
ATOM     24  C   UNL     1       2.081   1.798  -1.268  0.00  0.00    +0.120 C 
BRANCH  24  25
ATOM     25  C   UNL     1       3.383   2.551  -1.179  0.00  0.00    +0.219 C 
ATOM     26  O   UNL     1       3.632   3.217  -0.197  0.00  0.00    -0.275 OA
ATOM     27  N   UNL     1       4.270   2.485  -2.192  0.00  0.00    -0.285 N 
ATOM     28  H   UNL     1       4.079   1.822  -3.048  0.00  0.00    +0.155 HD
BRANCH  27  29
ATOM     29  C   UNL     1       5.435   3.260  -2.153  0.00  0.00    +0.033 A 
ATOM     30  C   UNL     1       5.962   3.783  -3.326  0.00  0.00    +0.023 A 
ATOM     31  C   UNL     1       7.108   4.551  -3.284  0.00  0.00    +0.002 A 
ATOM     32  C   UNL     1       7.738   4.791  -2.077  0.00  0.00    +0.000 A 
ATOM     33  C   UNL     1       7.219   4.267  -0.907  0.00  0.00    +0.002 A 
ATOM     34  C   UNL     1       6.069   3.502  -0.942  0.00  0.00    +0.023 A 
ENDBRANCH  27  29
ENDBRANCH  24  25
ENDBRANCH  10  24
TORSDOF 5
