REMARK  Name = ZINC08970499
REMARK  4 active torsions:
REMARK  status: ('A' for Active; 'I' for Inactive)
REMARK    1  A    between atoms: C_8  and  C_26
REMARK    2  A    between atoms: C_10  and  C_17
REMARK    3  A    between atoms: C_21  and  N_23
REMARK    4  A    between atoms: C_26  and  C_28
REMARK                            x       y       z     vdW  Elec       q    Type
REMARK                         _______ _______ _______ _____ _____    ______ ____
ROOT
ATOM      1  C   UNL     1      -5.394   1.231   0.805  0.00  0.00    +0.000 A 
ATOM      2  C   UNL     1      -5.981   2.229   1.562  0.00  0.00    +0.002 A 
ATOM      3  C   UNL     1      -5.232   3.300   2.004  0.00  0.00    +0.023 A 
ATOM      4  C   UNL     1      -3.878   3.385   1.689  0.00  0.00    +0.036 A 
ATOM      5  C   UNL     1      -3.300   2.376   0.926  0.00  0.00    -0.027 A 
ATOM      6  C   UNL     1      -4.050   1.308   0.488  0.00  0.00    +0.004 A 
ATOM      7  C   UNL     1      -1.851   2.756   0.760  0.00  0.00    +0.052 C 
ATOM      8  C   UNL     1      -1.507   2.943  -0.722  0.00  0.00    +0.069 C 
ATOM      9  C   UNL     1      -0.684   1.676  -1.101  0.00  0.00    +0.016 C 
ATOM     10  C   UNL     1      -0.080   1.230   0.248  0.00  0.00    -0.047 C 
ATOM     11  C   UNL     1      -0.333   2.183   2.548  0.00  0.00    -0.005 C 
ATOM     12  S   UNL     1       1.464   1.965   2.201  0.00  0.00    -0.181 S 
ATOM     13  C   UNL     1       1.336   1.869   0.360  0.00  0.00    +0.052 C 
ATOM     14  C   UNL     1      -1.712   4.059   1.508  0.00  0.00    +0.212 C 
ATOM     15  O   UNL     1      -0.700   4.716   1.631  0.00  0.00    -0.277 OA
ATOM     16  N   UNL     1      -2.924   4.351   2.013  0.00  0.00    -0.286 N 
ATOM     17  H   UNL     1      -3.113   5.142   2.542  0.00  0.00    +0.155 HD
ATOM     18  N   UNL     1      -1.022   1.694   1.309  0.00  0.00    +0.401 N 
ATOM     19  H   UNL     1      -1.623   0.903   1.571  0.00  0.00    -0.078 HD
ENDROOT
BRANCH   9  20
ATOM     20  C   UNL     1       0.407   2.005  -2.086  0.00  0.00    -0.043 A 
ATOM     21  C   UNL     1       0.243   3.050  -2.977  0.00  0.00    +0.004 A 
ATOM     22  C   UNL     1       1.244   3.352  -3.881  0.00  0.00    +0.002 A 
ATOM     23  C   UNL     1       2.410   2.609  -3.894  0.00  0.00    +0.033 A 
ATOM     24  C   UNL     1       2.575   1.565  -3.003  0.00  0.00    +0.126 A 
ATOM     25  C   UNL     1       1.575   1.266  -2.096  0.00  0.00    +0.036 A 
BRANCH  24  26
ATOM     26  N   UNL     1       3.824   0.770  -3.017  0.00  0.00    +0.056 N 
ATOM     27  O   UNL     1       4.706   1.036  -3.814  0.00  0.00    -0.126 OA
ATOM     28  O   UNL     1       3.969  -0.150  -2.232  0.00  0.00    -0.126 OA
ENDBRANCH  24  26
ENDBRANCH   9  20
BRANCH   8  29
ATOM     29  C   UNL     1      -0.661   4.176  -0.915  0.00  0.00    +0.166 C 
ATOM     30  O   UNL     1       0.421   4.260  -0.373  0.00  0.00    -0.292 OA
BRANCH  29  31
ATOM     31  C   UNL     1      -1.147   5.276  -1.760  0.00  0.00    +0.018 A 
ATOM     32  C   UNL     1      -2.392   5.180  -2.392  0.00  0.00    +0.014 A 
ATOM     33  C   UNL     1      -2.844   6.217  -3.178  0.00  0.00    +0.039 A 
ATOM     34  C   UNL     1      -2.062   7.350  -3.353  0.00  0.00    +0.123 A 
ATOM     35  C   UNL     1      -0.825   7.449  -2.734  0.00  0.00    +0.039 A 
ATOM     36  C   UNL     1      -0.364   6.422  -1.941  0.00  0.00    +0.014 A 
ATOM     37  F   UNL     1      -2.509   8.361  -4.130  0.00  0.00    -0.205 F 
ENDBRANCH  29  31
ENDBRANCH   8  29
TORSDOF 4
