REMARK  Name = ZINC01822323
REMARK  7 active torsions:
REMARK  status: ('A' for Active; 'I' for Inactive)
REMARK    1  A    between atoms: C_1  and  C_2
REMARK    2  A    between atoms: C_5  and  C_8
REMARK    3  A    between atoms: C_9  and  C_19
REMARK    4  A    between atoms: N_11  and  C_13
REMARK    5  A    between atoms: C_22  and  C_33
REMARK    6  A    between atoms: C_25  and  C_27
REMARK    7  A    between atoms: C_36  and  C_39
REMARK                            x       y       z     vdW  Elec       q    Type
REMARK                         _______ _______ _______ _____ _____    ______ ____
ROOT
ATOM      1  C   UNL     1       1.541  -4.610   2.085  0.00  0.00    +0.155 C 
ATOM      2  C   UNL     1       0.656  -4.418   3.296  0.00  0.00    +0.027 C 
ATOM      3  C   UNL     1       1.089  -5.249   4.240  0.00  0.00    +0.050 C 
ATOM      4  N   UNL     1       2.177  -5.992   3.804  0.00  0.00    -0.260 N 
ATOM      5  N   UNL     1       2.507  -5.646   2.484  0.00  0.00    -0.204 N 
ATOM      6  C   UNL     1       3.505  -6.156   1.735  0.00  0.00    +0.299 C 
ATOM      7  O   UNL     1       3.675  -5.759   0.597  0.00  0.00    -0.265 OA
ATOM      8  H   UNL     1       2.644  -6.655   4.336  0.00  0.00    +0.170 HD
ENDROOT
BRANCH   3   9
ATOM      9  C   UNL     1       0.485  -5.367   5.588  0.00  0.00    -0.003 A 
ATOM     10  C   UNL     1      -0.613  -4.581   5.934  0.00  0.00    +0.010 A 
ATOM     11  C   UNL     1      -1.171  -4.696   7.191  0.00  0.00    +0.004 A 
ATOM     12  C   UNL     1      -0.644  -5.588   8.106  0.00  0.00    -0.050 A 
ATOM     13  C   UNL     1       0.446  -6.371   7.768  0.00  0.00    +0.004 A 
ATOM     14  C   UNL     1       1.009  -6.270   6.513  0.00  0.00    +0.010 A 
ATOM     15  C   UNL     1      -1.258  -5.708   9.477  0.00  0.00    +0.044 C 
ENDBRANCH   3   9
BRANCH   6  16
ATOM     16  C   UNL     1       4.383  -7.189   2.290  0.00  0.00    +0.192 A 
ATOM     17  C   UNL     1       5.429  -7.785   1.644  0.00  0.00    +0.056 A 
ATOM     18  C   UNL     1       5.987  -8.706   2.543  0.00  0.00    +0.058 A 
ATOM     19  C   UNL     1       5.266  -8.634   3.686  0.00  0.00    +0.171 A 
ATOM     20  O   UNL     1       4.304  -7.715   3.530  0.00  0.00    -0.444 OA
ATOM     21 BR   UNL     1       5.571  -9.656   5.247  0.00  0.00    -0.008 Br
ENDBRANCH   6  16
BRANCH   1  23
ATOM     22  C   UNL     1       0.059  -4.256  -0.021  0.00  0.00    +0.098 A 
ATOM     23  C   UNL     1       0.724  -5.080   0.908  0.00  0.00    +0.024 A 
ATOM     24  C   UNL     1       0.501  -6.365   0.558  0.00  0.00    +0.121 A 
ATOM     25  N   UNL     1      -0.278  -6.364  -0.555  0.00  0.00    -0.239 N 
ATOM     26  N   UNL     1      -0.546  -5.032  -0.895  0.00  0.00    -0.166 NA
BRANCH  22  31
ATOM     27  C   UNL     1      -0.018   1.503   0.010  0.00  0.00    +0.044 C 
ATOM     28  C   UNL     1       0.002  -0.004   0.002  0.00  0.00    -0.050 A 
ATOM     29  C   UNL     1       0.006  -0.686  -1.201  0.00  0.00    +0.004 A 
ATOM     30  C   UNL     1       0.024  -2.067  -1.215  0.00  0.00    +0.010 A 
ATOM     31  C   UNL     1       0.040  -2.772  -0.013  0.00  0.00    +0.002 A 
ATOM     32  C   UNL     1       0.036  -2.080   1.196  0.00  0.00    +0.010 A 
ATOM     33  C   UNL     1       0.023  -0.700   1.198  0.00  0.00    +0.004 A 
ENDBRANCH  22  31
BRANCH  25  34
ATOM     34  C   UNL     1      -0.738  -7.498  -1.239  0.00  0.00    +0.065 A 
ATOM     35  C   UNL     1      -0.405  -8.767  -0.785  0.00  0.00    +0.028 A 
ATOM     36  C   UNL     1      -0.860  -9.882  -1.461  0.00  0.00    +0.002 A 
ATOM     37  C   UNL     1      -1.645  -9.735  -2.590  0.00  0.00    +0.000 A 
ATOM     38  C   UNL     1      -1.978  -8.473  -3.045  0.00  0.00    +0.002 A 
ATOM     39  C   UNL     1      -1.532  -7.354  -2.369  0.00  0.00    +0.028 A 
ENDBRANCH  25  34
ENDBRANCH   1  23
TORSDOF 5
