REMARK  Name = ZINC40399505
REMARK  3 active torsions:
REMARK  status: ('A' for Active; 'I' for Inactive)
REMARK    1  A    between atoms: C_2  and  N_9
REMARK    2  A    between atoms: C_22  and  C_24
REMARK    3  A    between atoms: N_26  and  C_27
REMARK                            x       y       z     vdW  Elec       q    Type
REMARK                         _______ _______ _______ _____ _____    ______ ____
ROOT
ATOM      1  N   UNL     1       1.190   3.425   0.128  0.00  0.00    -0.285 N 
ATOM      2  C   UNL     1       2.359   4.138   0.195  0.00  0.00    +0.202 A 
ATOM      3  N   UNL     1       2.305   5.494   0.306  0.00  0.00    -0.295 N 
ATOM      4  H   UNL     1       1.446   5.943   0.349  0.00  0.00    +0.172 HD
ATOM      5  C   UNL     1       3.447   6.214   0.356  0.00  0.00    +0.258 A 
ATOM      6  O   UNL     1       3.412   7.431   0.440  0.00  0.00    -0.267 OA
ATOM      7  C   UNL     1       4.669   5.536   0.311  0.00  0.00    +0.069 A 
ATOM      8  C   UNL     1       4.671   4.156   0.218  0.00  0.00    +0.138 A 
ATOM      9  N   UNL     1       3.508   3.497   0.156  0.00  0.00    -0.200 NA
ATOM     10  N   UNL     1       5.866   3.459   0.215  0.00  0.00    -0.270 N 
ATOM     11  C   UNL     1       7.018   4.060   0.558  0.00  0.00    +0.219 C 
ATOM     12  O   UNL     1       8.065   3.459   0.444  0.00  0.00    -0.275 OA
ATOM     13  C   UNL     1       7.024   5.472   1.083  0.00  0.00    +0.114 C 
ATOM     14  C   UNL     1       5.966   6.299   0.351  0.00  0.00    +0.122 C 
ATOM     15  H   UNL     1       0.339   3.877   0.238  0.00  0.00    +0.155 HD
ATOM     16  H   UNL     1       5.873   2.522  -0.038  0.00  0.00    +0.156 HD
ENDROOT
BRANCH   1  18
ATOM     17  C   UNL     1       2.218   1.497  -0.902  0.00  0.00    +0.043 A 
ATOM     18  C   UNL     1       1.226   2.045  -0.099  0.00  0.00    +0.036 A 
ATOM     19  C   UNL     1       0.269   1.221   0.478  0.00  0.00    +0.043 A 
ATOM     20  C   UNL     1       0.306  -0.143   0.252  0.00  0.00    +0.044 A 
ATOM     21  C   UNL     1       1.296  -0.686  -0.549  0.00  0.00    +0.040 A 
ATOM     22  C   UNL     1       2.250   0.134  -1.125  0.00  0.00    +0.044 A 
ATOM     23 CL   UNL     1       3.490  -0.552  -2.128  0.00  0.00    -0.083 Cl
ATOM     24 CL   UNL     1      -0.890  -1.174   0.973  0.00  0.00    -0.083 Cl
ENDBRANCH   1  18
BRANCH  14  25
ATOM     25  C   UNL     1       5.759   7.604   1.076  0.00  0.00    +0.221 C 
ATOM     26  O   UNL     1       5.444   7.603   2.247  0.00  0.00    -0.275 OA
ATOM     27  N   UNL     1       5.923   8.771   0.422  0.00  0.00    -0.312 N 
ATOM     28  H   UNL     1       6.174   8.771  -0.514  0.00  0.00    +0.149 HD
BRANCH  27  29
ATOM     29  C   UNL     1       5.721  10.039   1.127  0.00  0.00    +0.073 C 
ATOM     30  C   UNL     1       4.236  10.405   1.105  0.00  0.00    +0.022 C 
ATOM     31  C   UNL     1       4.025  11.729   1.841  0.00  0.00    +0.002 C 
ATOM     32  C   UNL     1       4.832  12.831   1.150  0.00  0.00    +0.000 C 
ATOM     33  C   UNL     1       6.317  12.465   1.172  0.00  0.00    +0.002 C 
ATOM     34  C   UNL     1       6.528  11.141   0.436  0.00  0.00    +0.022 C 
ENDBRANCH  27  29
ENDBRANCH  14  25
TORSDOF 3
