REMARK  Name = ZINC14241642
REMARK  11 active torsions:
REMARK  status: ('A' for Active; 'I' for Inactive)
REMARK    1  A    between atoms: C_1  and  O_2
REMARK    2  A    between atoms: O_2  and  C_3
REMARK    3  A    between atoms: C_3  and  C_5
REMARK    4  A    between atoms: C_5  and  C_15
REMARK    5  A    between atoms: C_15  and  C_17
REMARK    6  A    between atoms: C_17  and  S_18
REMARK    7  A    between atoms: S_18  and  C_19
REMARK    8  A    between atoms: C_22  and  C_29
REMARK    9  A    between atoms: N_23  and  C_24
REMARK   10  A    between atoms: C_24  and  C_25
REMARK   11  A    between atoms: C_25  and  C_26
REMARK                            x       y       z     vdW  Elec       q    Type
REMARK                         _______ _______ _______ _____ _____    ______ ____
ROOT
ATOM      1  C   UNL     1       2.730   9.583  -0.038  0.00  0.00    +0.157 C 
ENDROOT
BRANCH   1   2
ATOM      2  C   UNL     1       3.730  10.699  -0.195  0.00  0.00    +0.183 C 
ATOM      3  O   UNL     1       4.874  10.448  -0.519  0.00  0.00    -0.291 OA
BRANCH   2   4
ATOM      4  C   UNL     1       3.340  12.031   0.033  0.00  0.00    +0.138 C 
ATOM      5  C   UNL     1       4.275  13.074  -0.114  0.00  0.00    +0.110 C 
ATOM      6  N   UNL     1       5.576  12.918  -0.464  0.00  0.00    -0.301 N 
ATOM      7  C   UNL     1       6.170  14.174  -0.506  0.00  0.00    +0.054 A 
ATOM      8  C   UNL     1       7.456  14.606  -0.801  0.00  0.00    +0.025 A 
ATOM      9  C   UNL     1       7.757  15.952  -0.753  0.00  0.00    +0.002 A 
ATOM     10  C   UNL     1       6.782  16.875  -0.411  0.00  0.00    +0.002 A 
ATOM     11  C   UNL     1       5.501  16.456  -0.115  0.00  0.00    +0.025 A 
ATOM     12  C   UNL     1       5.187  15.104  -0.161  0.00  0.00    +0.054 A 
ATOM     13  N   UNL     1       4.017  14.393   0.078  0.00  0.00    -0.301 N 
ATOM     14  H   UNL     1       6.016  12.075  -0.654  0.00  0.00    +0.153 HD
ATOM     15  H   UNL     1       3.163  14.773   0.338  0.00  0.00    +0.153 HD
BRANCH   4  16
ATOM     16  C   UNL     1       1.964  12.333   0.422  0.00  0.00    +0.345 C 
ATOM     17  O   UNL     1       1.626  13.485   0.619  0.00  0.00    -0.245 OA
BRANCH  16  19
ATOM     18  C   UNL     1      -0.259  11.702   0.945  0.00  0.00    +0.280 C 
ATOM     19  O   UNL     1       1.068  11.334   0.563  0.00  0.00    -0.464 OA
ENDBRANCH  16  19
ENDBRANCH   4  16
ENDBRANCH   2   4
ENDBRANCH   1   2
BRANCH   1  20
ATOM     20  S   UNL     1       3.530   8.000  -0.397  0.00  0.00    -0.078 S 
BRANCH  20  21
ATOM     21  C   UNL     1       2.172   6.906  -0.144  0.00  0.00    +0.192 A 
ATOM     22  N   UNL     1       0.953   7.247   0.208  0.00  0.00    -0.122 NA
ATOM     23  N   UNL     1       0.212   6.201   0.304  0.00  0.00    -0.128 NA
ATOM     24  C   UNL     1       0.914   5.126   0.019  0.00  0.00    +0.172 A 
ATOM     25  N   UNL     1       2.193   5.545  -0.272  0.00  0.00    -0.301 N 
BRANCH  24  26
ATOM     26  C   UNL     1       0.426   3.737   0.017  0.00  0.00    +0.056 A 
ATOM     27  C   UNL     1      -0.866   3.275   0.026  0.00  0.00    +0.019 A 
ATOM     28  C   UNL     1      -1.081   1.915   0.017  0.00  0.00    +0.008 A 
ATOM     29  C   UNL     1      -0.013   1.076   0.008  0.00  0.00    +0.046 A 
ATOM     30  S   UNL     1       1.361   2.216   0.001  0.00  0.00    -0.094 S 
ENDBRANCH  24  26
BRANCH  25  31
ATOM     31  C   UNL     1       3.337   4.708  -0.643  0.00  0.00    +0.135 C 
BRANCH  31  32
ATOM     32  C   UNL     1       3.376   4.544  -2.164  0.00  0.00    +0.117 C 
BRANCH  32  33
ATOM     33  C   UNL     1       4.553   3.682  -2.545  0.00  0.00    +0.212 C 
ATOM     34  O   UNL     1       5.287   3.243  -1.685  0.00  0.00    -0.276 OA
ATOM     35  N   UNL     1       4.789   3.400  -3.842  0.00  0.00    -0.329 N 
ATOM     36  H   UNL     1       4.202   3.752  -4.529  0.00  0.00    +0.145 HD
ATOM     37  H   UNL     1       5.546   2.846  -4.087  0.00  0.00    +0.145 HD
ENDBRANCH  32  33
ENDBRANCH  31  32
ENDBRANCH  25  31
ENDBRANCH  20  21
ENDBRANCH   1  20
TORSDOF 10
