REMARK  Name = ZINC16576043
REMARK  7 active torsions:
REMARK  status: ('A' for Active; 'I' for Inactive)
REMARK    1  A    between atoms: C_1  and  C_2
REMARK    2  A    between atoms: C_2  and  C_4
REMARK    3  A    between atoms: C_2  and  N_14
REMARK    4  A    between atoms: C_18  and  C_19
REMARK    5  A    between atoms: C_21  and  O_27
REMARK    6  A    between atoms: C_22  and  O_26
REMARK    7  A    between atoms: O_27  and  C_28
REMARK                            x       y       z     vdW  Elec       q    Type
REMARK                         _______ _______ _______ _____ _____    ______ ____
ROOT
ATOM      1  N   UNL     1       3.815  -4.863  -0.423  0.00  0.00    -0.218 N 
ATOM      2  C   UNL     1       2.686  -4.221  -0.060  0.00  0.00    +0.259 C 
ATOM      3  O   UNL     1       1.672  -4.839   0.203  0.00  0.00    -0.269 OA
ATOM      4  C   UNL     1       2.714  -2.746   0.008  0.00  0.00    +0.100 C 
ATOM      5  C   UNL     1       1.596  -2.019   0.371  0.00  0.00    +0.026 C 
ATOM      6  C   UNL     1       3.987  -2.083  -0.335  0.00  0.00    +0.257 C 
ATOM      7  O   UNL     1       4.088  -0.871  -0.308  0.00  0.00    -0.270 OA
ATOM      8  N   UNL     1       5.038  -2.858  -0.675  0.00  0.00    -0.236 N 
ATOM      9  C   UNL     1       4.939  -4.194  -0.716  0.00  0.00    +0.316 C 
ATOM     10  O   UNL     1       5.922  -4.833  -1.036  0.00  0.00    -0.252 OA
ATOM     11  H   UNL     1       5.883  -2.438  -0.900  0.00  0.00    +0.159 HD
ENDROOT
BRANCH   5  12
ATOM     12  C   UNL     1       1.716  -0.591   0.665  0.00  0.00    -0.019 A 
ATOM     13  C   UNL     1       0.821   0.324   0.091  0.00  0.00    +0.057 A 
ATOM     14  C   UNL     1       0.940   1.669   0.372  0.00  0.00    +0.163 A 
ATOM     15  C   UNL     1       1.949   2.118   1.225  0.00  0.00    +0.177 A 
ATOM     16  C   UNL     1       2.838   1.214   1.796  0.00  0.00    +0.087 A 
ATOM     17  C   UNL     1       2.728  -0.132   1.522  0.00  0.00    +0.031 A 
ATOM     18 CL   UNL     1       4.090   1.782   2.856  0.00  0.00    -0.080 Cl
BRANCH  15  19
ATOM     19  O   UNL     1       2.063   3.443   1.499  0.00  0.00    -0.502 OA
ATOM     20  H   UNL     1       1.555   3.730   2.270  0.00  0.00    +0.292 HD
ENDBRANCH  15  19
BRANCH  14  21
ATOM     21  O   UNL     1       0.077   2.559  -0.188  0.00  0.00    -0.491 OA
ATOM     22  C   UNL     1      -0.928   2.030  -1.056  0.00  0.00    +0.277 C 
ENDBRANCH  14  21
ENDBRANCH   5  12
BRANCH   1  24
ATOM     23  C   UNL     1       4.547  -6.772  -1.765  0.00  0.00    +0.029 C 
ATOM     24  C   UNL     1       3.813  -6.326  -0.499  0.00  0.00    +0.089 C 
BRANCH  24  25
ATOM     25  C   UNL     1       4.521  -6.901   0.730  0.00  0.00    -0.010 C 
ATOM     26  C   UNL     1       4.498  -8.430   0.662  0.00  0.00    +0.012 C 
ATOM     27  C   UNL     1       5.206  -9.005   1.891  0.00  0.00    -0.010 C 
ATOM     28  C   UNL     1       4.486  -8.540   3.158  0.00  0.00    +0.007 C 
ATOM     29  C   UNL     1       4.508  -7.011   3.226  0.00  0.00    -0.010 C 
ATOM     30  C   UNL     1       3.801  -6.436   1.997  0.00  0.00    +0.012 C 
ATOM     31  C   UNL     1       5.958  -6.524   3.255  0.00  0.00    +0.007 C 
ATOM     32  C   UNL     1       6.678  -6.989   1.987  0.00  0.00    -0.010 C 
ATOM     33  C   UNL     1       6.655  -8.517   1.920  0.00  0.00    +0.007 C 
ATOM     34  C   UNL     1       5.970  -6.413   0.759  0.00  0.00    +0.012 C 
ENDBRANCH  24  25
ENDBRANCH   1  24
TORSDOF 5
