REMARK  Name = ZINC41281455
REMARK  5 active torsions:
REMARK  status: ('A' for Active; 'I' for Inactive)
REMARK    1  A    between atoms: C_1  and  N_2
REMARK    2  A    between atoms: C_3  and  N_17
REMARK    3  A    between atoms: C_5  and  C_7
REMARK    4  A    between atoms: C_7  and  O_8
REMARK    5  A    between atoms: O_8  and  C_9
REMARK                            x       y       z     vdW  Elec       q    Type
REMARK                         _______ _______ _______ _____ _____    ______ ____
ROOT
ATOM      1  C   UNL     1       0.053  -3.295   1.616  0.00  0.00    +0.286 C 
ENDROOT
BRANCH   1   6
ATOM      2  C   UNL     1      -0.018   1.461   0.010  0.00  0.00    +0.174 C 
ATOM      3  N   UNL     1       0.002  -0.004   0.002  0.00  0.00    -0.254 N 
ATOM      4  C   UNL     1       0.008  -0.794  -1.096  0.00  0.00    +0.114 A 
ATOM      5  C   UNL     1       0.027  -2.087  -0.671  0.00  0.00    +0.071 A 
ATOM      6  C   UNL     1       0.034  -2.079   0.726  0.00  0.00    +0.102 A 
ATOM      7  N   UNL     1       0.025  -0.834   1.130  0.00  0.00    -0.171 NA
BRANCH   4   8
ATOM      8  N   UNL     1      -0.004  -0.363  -2.420  0.00  0.00    -0.343 N 
ATOM      9  H   UNL     1      -0.018   0.586  -2.620  0.00  0.00    +0.144 HD
ATOM     10  H   UNL     1       0.001  -1.011  -3.141  0.00  0.00    +0.144 HD
ENDBRANCH   4   8
ENDBRANCH   1   6
BRANCH   1  11
ATOM     11  O   UNL     1       0.065  -4.475   0.810  0.00  0.00    -0.486 OA
BRANCH  11  12
ATOM     12  C   UNL     1       0.083  -5.667   1.462  0.00  0.00    +0.124 A 
ATOM     13  C   UNL     1       0.084  -5.700   2.849  0.00  0.00    +0.048 A 
ATOM     14  C   UNL     1       0.103  -6.912   3.512  0.00  0.00    +0.045 A 
ATOM     15  C   UNL     1       0.122  -8.095   2.793  0.00  0.00    +0.159 A 
ATOM     16  C   UNL     1       0.121  -8.065   1.407  0.00  0.00    +0.162 A 
ATOM     17  C   UNL     1       0.095  -6.852   0.742  0.00  0.00    +0.087 A 
ATOM     18  F   UNL     1       0.140  -9.220   0.706  0.00  0.00    -0.202 F 
ATOM     19  F   UNL     1       0.141  -9.280   3.442  0.00  0.00    -0.202 F 
ENDBRANCH  11  12
ENDBRANCH   1  11
TORSDOF 4
