REMARK  Name = ZINC18164884
REMARK  1 active torsions:
REMARK  status: ('A' for Active; 'I' for Inactive)
REMARK    1  A    between atoms: N_21  and  C_24
REMARK                            x       y       z     vdW  Elec       q    Type
REMARK                         _______ _______ _______ _____ _____    ______ ____
ROOT
ATOM      1  C   UNL     1       0.259   1.556   0.122  0.00  0.00    +0.000 A 
ATOM      2  C   UNL     1       1.419   2.247  -0.178  0.00  0.00    +0.000 A 
ATOM      3  C   UNL     1       2.620   1.569  -0.340  0.00  0.00    +0.004 A 
ATOM      4  C   UNL     1       2.633   0.210  -0.200  0.00  0.00    -0.035 A 
ATOM      5  C   UNL     1       1.464  -0.486   0.103  0.00  0.00    -0.035 A 
ATOM      6  C   UNL     1       0.280   0.175   0.265  0.00  0.00    +0.004 A 
ATOM      7  C   UNL     1       1.643  -1.991   0.226  0.00  0.00    +0.062 C 
ATOM      8  C   UNL     1       2.766  -2.181   1.233  0.00  0.00    -0.035 A 
ATOM      9  C   UNL     1       2.687  -2.958   2.353  0.00  0.00    +0.004 A 
ATOM     10  C   UNL     1       3.792  -3.043   3.189  0.00  0.00    +0.000 A 
ATOM     11  C   UNL     1       4.951  -2.350   2.891  0.00  0.00    +0.000 A 
ATOM     12  C   UNL     1       5.025  -1.562   1.750  0.00  0.00    +0.004 A 
ATOM     13  C   UNL     1       3.935  -1.484   0.931  0.00  0.00    -0.035 A 
ATOM     14  C   UNL     1       3.866  -0.667  -0.349  0.00  0.00    +0.062 C 
ATOM     15  C   UNL     1       3.517  -1.678  -1.464  0.00  0.00    +0.100 C 
ATOM     16  C   UNL     1       2.226  -2.446  -1.131  0.00  0.00    +0.100 C 
ATOM     17  C   UNL     1       2.687  -3.881  -1.003  0.00  0.00    +0.231 C 
ATOM     18  O   UNL     1       1.974  -4.828  -0.746  0.00  0.00    -0.274 OA
ATOM     19  N   UNL     1       4.007  -3.939  -1.220  0.00  0.00    -0.210 N 
ATOM     20  C   UNL     1       4.577  -2.758  -1.487  0.00  0.00    +0.231 C 
ATOM     21  O   UNL     1       5.755  -2.581  -1.712  0.00  0.00    -0.274 OA
ENDROOT
BRANCH  19  22
ATOM     22  C   UNL     1       4.732  -5.139  -1.171  0.00  0.00    +0.045 A 
ATOM     23  C   UNL     1       4.521  -6.119  -2.132  0.00  0.00    +0.024 A 
ATOM     24  C   UNL     1       5.237  -7.299  -2.082  0.00  0.00    +0.003 A 
ATOM     25  C   UNL     1       6.163  -7.505  -1.076  0.00  0.00    +0.014 A 
ATOM     26  C   UNL     1       6.375  -6.531  -0.117  0.00  0.00    +0.015 A 
ATOM     27  C   UNL     1       5.666  -5.346  -0.166  0.00  0.00    +0.038 A 
ATOM     28  I   UNL     1       7.778  -6.850   1.406  0.00  0.00    -0.044 I 
ENDBRANCH  19  22
TORSDOF 1
