REMARK  Name = ZINC33592158
REMARK  10 active torsions:
REMARK  status: ('A' for Active; 'I' for Inactive)
REMARK    1  A    between atoms: C_1  and  C_2
REMARK    2  A    between atoms: C_2  and  O_3
REMARK    3  A    between atoms: O_3  and  C_4
REMARK    4  A    between atoms: C_4  and  C_6
REMARK    5  A    between atoms: C_7  and  C_36
REMARK    6  A    between atoms: C_11  and  C_20
REMARK    7  A    between atoms: C_12  and  O_19
REMARK    8  A    between atoms: C_20  and  C_22
REMARK    9  A    between atoms: C_20  and  N_29
REMARK   10  A    between atoms: C_32  and  C_35
REMARK                            x       y       z     vdW  Elec       q    Type
REMARK                         _______ _______ _______ _____ _____    ______ ____
ROOT
ATOM      1  C   UNL     1       1.248   2.079  -5.052  0.00  0.00    +0.108 A 
ATOM      2  C   UNL     1       1.306   2.604  -6.308  0.00  0.00    +0.117 A 
ATOM      3  O   UNL     1       0.067   2.813  -6.765  0.00  0.00    -0.459 OA
ATOM      4  C   UNL     1      -0.858   2.459  -5.851  0.00  0.00    +0.144 A 
ATOM      5  C   UNL     1      -0.189   1.978  -4.727  0.00  0.00    +0.040 A 
ATOM      6  C   UNL     1      -0.898   1.525  -3.605  0.00  0.00    -0.003 A 
ATOM      7  C   UNL     1      -2.259   1.556  -3.584  0.00  0.00    +0.127 A 
ATOM      8  C   UNL     1      -2.973   2.043  -4.703  0.00  0.00    +0.027 A 
ATOM      9  C   UNL     1      -2.269   2.498  -5.844  0.00  0.00    +0.029 A 
ATOM     10  C   UNL     1      -2.987   2.979  -6.950  0.00  0.00    +0.012 A 
ATOM     11  C   UNL     1      -4.348   3.003  -6.913  0.00  0.00    +0.001 A 
ATOM     12  C   UNL     1      -5.041   2.555  -5.791  0.00  0.00    +0.001 A 
ATOM     13  C   UNL     1      -4.376   2.082  -4.700  0.00  0.00    +0.012 A 
ATOM     14  C   UNL     1       2.574   2.892  -7.071  0.00  0.00    +0.087 C 
ENDROOT
BRANCH   1  15
ATOM     15  C   UNL     1       2.380   1.692  -4.198  0.00  0.00    +0.343 C 
ATOM     16  O   UNL     1       2.824   0.562  -4.253  0.00  0.00    -0.245 OA
BRANCH  15  17
ATOM     17  O   UNL     1       2.926   2.591  -3.355  0.00  0.00    -0.461 OA
BRANCH  17  19
ATOM     18  C   UNL     1       4.524   3.289  -1.655  0.00  0.00    +0.048 C 
ATOM     19  C   UNL     1       4.041   2.139  -2.542  0.00  0.00    +0.229 C 
ENDBRANCH  17  19
ENDBRANCH  15  17
ENDBRANCH   1  15
BRANCH   7  20
ATOM     20  O   UNL     1      -2.931   1.119  -2.487  0.00  0.00    -0.506 OA
ATOM     21  H   UNL     1      -4.031   1.144  -2.470  0.00  0.00    +0.292 HD
ENDBRANCH   7  20
BRANCH   6  22
ATOM     22  C   UNL     1      -0.145   1.005  -2.408  0.00  0.00    -0.002 C 
BRANCH  22  23
ATOM     23  N   UNL     1      -0.723   1.572  -1.182  0.00  0.00    +0.387 N 
ATOM     24  C   UNL     1      -0.013   1.086   0.008  0.00  0.00    -0.077 C 
ATOM     25  C   UNL     1      -0.729   1.579   1.267  0.00  0.00    -0.015 C 
ATOM     26  C   UNL     1      -0.764   3.110   1.262  0.00  0.00    -0.018 C 
ATOM     27  C   UNL     1      -1.466   3.591  -0.011  0.00  0.00    -0.015 C 
ATOM     28  C   UNL     1      -0.729   3.040  -1.234  0.00  0.00    -0.077 C 
ATOM     29  C   UNL     1      -1.532   3.608   2.488  0.00  0.00    +0.007 C 
ATOM     30  H   UNL     1      -1.767   1.235  -1.111  0.00  0.00    -0.080 HD
ENDBRANCH  22  23
BRANCH  22  31
ATOM     31  C   UNL     1      -0.250  -0.498  -2.363  0.00  0.00    -0.056 A 
ATOM     32  C   UNL     1      -1.389  -1.097  -1.858  0.00  0.00    +0.004 A 
ATOM     33  C   UNL     1      -1.487  -2.475  -1.822  0.00  0.00    +0.020 A 
ATOM     34  C   UNL     1      -0.441  -3.255  -2.282  0.00  0.00    +0.041 A 
ATOM     35  C   UNL     1       0.701  -2.655  -2.782  0.00  0.00    +0.020 A 
ATOM     36  C   UNL     1       0.796  -1.277  -2.823  0.00  0.00    +0.004 A 
ATOM     37 CL   UNL     1      -0.561  -4.987  -2.230  0.00  0.00    -0.084 Cl
ENDBRANCH  22  31
ENDBRANCH   6  22
TORSDOF 7
