REMARK  Name = ZINC08397057
REMARK  9 active torsions:
REMARK  status: ('A' for Active; 'I' for Inactive)
REMARK    1  A    between atoms: C_4  and  C_7
REMARK    2  A    between atoms: C_7  and  N_64
REMARK    3  A    between atoms: C_8  and  C_9
REMARK    4  A    between atoms: C_8  and  N_64
REMARK    5  A    between atoms: C_9  and  C_11
REMARK    6  A    between atoms: C_9  and  O_27
REMARK    7  A    between atoms: C_11  and  N_12
REMARK    8  A    between atoms: C_28  and  N_64
REMARK    9  A    between atoms: C_34  and  O_36
REMARK                            x       y       z     vdW  Elec       q    Type
REMARK                         _______ _______ _______ _____ _____    ______ ____
ROOT
ATOM      1  C   UNL     1       3.165  -0.879  -1.091  0.00  0.00    +0.118 C 
ENDROOT
BRANCH   1   2
ATOM      2  O   UNL     1       1.870  -0.631  -1.641  0.00  0.00    -0.392 OA
ATOM      3  H   UNL     1       1.185  -1.235  -1.323  0.00  0.00    +0.210 HD
ENDBRANCH   1   2
BRANCH   1   4
ATOM      4  C   UNL     1       3.610  -2.297  -1.454  0.00  0.00    -0.044 C 
BRANCH   4   5
ATOM      5  N   UNL     1       3.853  -2.359  -2.910  0.00  0.00    +0.388 N 
ATOM      6  H   UNL     1       4.340  -1.504  -3.204  0.00  0.00    -0.081 HD
BRANCH   5   7
ATOM      7  C   UNL     1       2.567  -2.452  -3.633  0.00  0.00    -0.039 C 
ATOM      8  C   UNL     1       2.011  -3.876  -3.557  0.00  0.00    -0.013 C 
ATOM      9  C   UNL     1       0.686  -3.947  -4.318  0.00  0.00    -0.001 C 
ATOM     10  C   UNL     1       0.918  -3.568  -5.782  0.00  0.00    +0.002 C 
ATOM     11  C   UNL     1       1.474  -2.145  -5.859  0.00  0.00    +0.030 C 
ATOM     12  C   UNL     1       2.799  -2.073  -5.097  0.00  0.00    +0.101 C 
BRANCH  12  13
ATOM     13  O   UNL     1       3.734  -2.981  -5.682  0.00  0.00    -0.393 OA
ATOM     14  H   UNL     1       3.988  -2.755  -6.587  0.00  0.00    +0.210 HD
ENDBRANCH  12  13
ENDBRANCH   5   7
BRANCH   5  15
ATOM     15  C   UNL     1       4.699  -3.528  -3.232  0.00  0.00    -0.042 C 
BRANCH  15  19
ATOM     16  C   UNL     1       8.631  -2.842  -1.710  0.00  0.00    +0.000 A 
ATOM     17  C   UNL     1       7.726  -3.587  -0.976  0.00  0.00    +0.000 A 
ATOM     18  C   UNL     1       6.453  -3.808  -1.469  0.00  0.00    +0.002 A 
ATOM     19  C   UNL     1       6.086  -3.286  -2.695  0.00  0.00    -0.064 A 
ATOM     20  C   UNL     1       6.993  -2.546  -3.431  0.00  0.00    +0.002 A 
ATOM     21  C   UNL     1       8.263  -2.320  -2.936  0.00  0.00    +0.000 A 
ENDBRANCH  15  19
ENDBRANCH   5  15
ENDBRANCH   4   5
ENDBRANCH   1   4
BRANCH   1  22
ATOM     22  C   UNL     1       3.108  -0.736   0.431  0.00  0.00    +0.151 C 
BRANCH  22  23
ATOM     23  N   UNL     1       2.799   0.652   0.780  0.00  0.00    -0.337 N 
ATOM     24  C   UNL     1       1.522   1.160   0.950  0.00  0.00    +0.050 A 
ATOM     25  C   UNL     1       0.263   0.577   0.853  0.00  0.00    +0.028 A 
ATOM     26  C   UNL     1      -0.868   1.334   1.073  0.00  0.00    +0.022 A 
ATOM     27  C   UNL     1      -0.763   2.678   1.403  0.00  0.00    +0.042 A 
ATOM     28  C   UNL     1       0.477   3.273   1.503  0.00  0.00    +0.030 A 
ATOM     29  C   UNL     1       1.627   2.520   1.278  0.00  0.00    +0.009 A 
ATOM     30  C   UNL     1       3.067   2.835   1.302  0.00  0.00    +0.009 A 
ATOM     31  C   UNL     1       3.740   1.645   0.988  0.00  0.00    +0.050 A 
ATOM     32  C   UNL     1       5.131   1.641   0.937  0.00  0.00    +0.028 A 
ATOM     33  C   UNL     1       5.834   2.799   1.193  0.00  0.00    +0.022 A 
ATOM     34  C   UNL     1       5.167   3.975   1.504  0.00  0.00    +0.042 A 
ATOM     35  C   UNL     1       3.789   3.998   1.560  0.00  0.00    +0.030 A 
ATOM     36 CL   UNL     1       6.070   5.423   1.824  0.00  0.00    -0.084 Cl
ATOM     37 CL   UNL     1      -2.197   3.614   1.683  0.00  0.00    -0.084 Cl
ENDBRANCH  22  23
ENDBRANCH   1  22
TORSDOF 9
