REMARK  Name = ZINC31160247
REMARK  13 active torsions:
REMARK  status: ('A' for Active; 'I' for Inactive)
REMARK    1  A    between atoms: C_1  and  C_2
REMARK    2  A    between atoms: C_2  and  C_3
REMARK    3  A    between atoms: C_2  and  C_4
REMARK    4  A    between atoms: C_2  and  O_19
REMARK    5  A    between atoms: O_19  and  C_20
REMARK    6  A    between atoms: C_22  and  O_41
REMARK    7  A    between atoms: C_24  and  O_40
REMARK    8  A    between atoms: C_26  and  O_39
REMARK    9  A    between atoms: C_28  and  C_31
REMARK   10  A    between atoms: C_31  and  O_32
REMARK   11  A    between atoms: O_32  and  C_33
REMARK   12  A    between atoms: C_33  and  C_35
REMARK   13  A    between atoms: C_35  and  C_36
REMARK                            x       y       z     vdW  Elec       q    Type
REMARK                         _______ _______ _______ _____ _____    ______ ____
ROOT
ATOM      1  C   UNL     1      -8.895   1.317   0.821  0.00  0.00    +0.282 C 
ATOM      2  C   UNL     1      -9.472  -0.029   0.375  0.00  0.00    +0.201 C 
ATOM      3  C   UNL     1     -10.666  -0.384   1.266  0.00  0.00    +0.179 C 
ATOM      4  C   UNL     1     -10.212  -0.402   2.728  0.00  0.00    +0.178 C 
ATOM      5  C   UNL     1      -9.607   0.958   3.083  0.00  0.00    +0.190 C 
ATOM      6  O   UNL     1      -8.521   1.241   2.199  0.00  0.00    -0.339 OA
ENDROOT
BRANCH   4   7
ATOM      7  O   UNL     1     -11.334  -0.663   3.574  0.00  0.00    -0.386 OA
ATOM      8  H   UNL     1     -11.200  -0.714   4.665  0.00  0.00    +0.210 HD
ENDBRANCH   4   7
BRANCH   3   9
ATOM      9  O   UNL     1     -11.695   0.593   1.097  0.00  0.00    -0.386 OA
ATOM     10  H   UNL     1     -12.636   0.504   1.660  0.00  0.00    +0.210 HD
ENDBRANCH   3   9
BRANCH   2  11
ATOM     11  O   UNL     1      -8.469  -1.040   0.494  0.00  0.00    -0.384 OA
ATOM     12  H   UNL     1      -8.701  -2.080   0.217  0.00  0.00    +0.210 HD
ENDBRANCH   2  11
BRANCH   1  13
ATOM     13  O   UNL     1      -7.746   1.629   0.032  0.00  0.00    -0.339 OA
BRANCH  13  15
ATOM     14  C   UNL     1      -7.082   3.336   1.608  0.00  0.00    +0.045 C 
ATOM     15  C   UNL     1      -7.319   2.988   0.137  0.00  0.00    +0.104 C 
ATOM     16  C   UNL     1      -8.399   3.908  -0.437  0.00  0.00    +0.045 C 
BRANCH  15  17
ATOM     17  C   UNL     1      -6.019   3.177  -0.647  0.00  0.00    +0.209 C 
ATOM     18  C   UNL     1      -4.905   2.260  -0.090  0.00  0.00    +0.086 C 
ATOM     19  C   UNL     1      -3.674   3.134  -0.240  0.00  0.00    -0.001 A 
ATOM     20  C   UNL     1      -2.345   2.844  -0.201  0.00  0.00    +0.019 A 
ATOM     21  C   UNL     1      -1.406   3.863  -0.398  0.00  0.00    +0.018 A 
ATOM     22  C   UNL     1       0.031   3.586  -0.356  0.00  0.00    +0.018 A 
ATOM     23  C   UNL     1       0.890   4.620  -0.553  0.00  0.00    +0.092 A 
ATOM     24  C   UNL     1       0.384   5.916  -0.784  0.00  0.00    +0.337 A 
ATOM     25  O   UNL     1       1.164   6.834  -0.960  0.00  0.00    -0.245 OA
ATOM     26  O   UNL     1      -0.935   6.164  -0.815  0.00  0.00    -0.422 OA
ATOM     27  C   UNL     1      -1.842   5.182  -0.625  0.00  0.00    +0.143 A 
ATOM     28  C   UNL     1      -3.199   5.457  -0.657  0.00  0.00    +0.093 A 
ATOM     29  C   UNL     1      -4.125   4.436  -0.461  0.00  0.00    +0.128 A 
ATOM     30  O   UNL     1      -5.484   4.495  -0.436  0.00  0.00    -0.485 OA
ENDBRANCH  15  17
ENDBRANCH  13  15
ENDBRANCH   1  13
BRANCH   5  31
ATOM     31  C   UNL     1      -9.096   0.929   4.525  0.00  0.00    +0.266 C 
BRANCH  31  32
ATOM     32  O   UNL     1      -8.630   2.252   4.901  0.00  0.00    -0.462 OA
BRANCH  32  33
ATOM     33  C   UNL     1      -8.146   2.397   6.144  0.00  0.00    +0.318 C 
ATOM     34  O   UNL     1      -8.113   1.451   6.894  0.00  0.00    -0.250 OA
BRANCH  33  35
ATOM     35  C   UNL     1      -7.645   3.742   6.605  0.00  0.00    +0.245 C 
BRANCH  35  36
ATOM     36  C   UNL     1      -7.159   3.636   8.028  0.00  0.00    +0.367 C 
ATOM     37  O   UNL     1      -7.215   2.577   8.608  0.00  0.00    -0.246 OA
ATOM     38  O   UNL     1      -6.665   4.717   8.651  0.00  0.00    -0.246 OA
ENDBRANCH  35  36
ENDBRANCH  33  35
ENDBRANCH  32  33
ENDBRANCH  31  32
ENDBRANCH   5  31
TORSDOF 11
