REMARK  Name = ZINC13030576
REMARK  15 active torsions:
REMARK  status: ('A' for Active; 'I' for Inactive)
REMARK    1  A    between atoms: C_1  and  C_2
REMARK    2  A    between atoms: C_2  and  C_3
REMARK    3  A    between atoms: C_2  and  C_4
REMARK    4  A    between atoms: C_4  and  C_5
REMARK    5  A    between atoms: C_5  and  N_6
REMARK    6  A    between atoms: C_7  and  C_9
REMARK    7  A    between atoms: C_9  and  C_11
REMARK    8  A    between atoms: C_9  and  N_21
REMARK    9  A    between atoms: C_14  and  O_19
REMARK   10  A    between atoms: C_15  and  O_17
REMARK   11  A    between atoms: O_17  and  C_18
REMARK   12  A    between atoms: O_19  and  C_20
REMARK   13  A    between atoms: N_21  and  C_22
REMARK   14  A    between atoms: C_28  and  C_30
REMARK   15  A    between atoms: C_30  and  N_31
REMARK                            x       y       z     vdW  Elec       q    Type
REMARK                         _______ _______ _______ _____ _____    ______ ____
ROOT
ATOM      1  C   UNL     1       0.773  -0.553   6.322  0.00  0.00    +0.197 C 
ENDROOT
BRANCH   1   2
ATOM      2  C   UNL     1       1.988   0.316   6.527  0.00  0.00    -0.014 A 
ATOM      3  C   UNL     1       1.860   1.543   7.151  0.00  0.00    +0.010 A 
ATOM      4  C   UNL     1       2.971   2.344   7.341  0.00  0.00    +0.050 A 
ATOM      5  C   UNL     1       4.215   1.917   6.906  0.00  0.00    +0.162 A 
ATOM      6  C   UNL     1       4.344   0.681   6.279  0.00  0.00    +0.162 A 
ATOM      7  C   UNL     1       3.227  -0.118   6.096  0.00  0.00    +0.055 A 
BRANCH   6   8
ATOM      8  O   UNL     1       5.563   0.258   5.850  0.00  0.00    -0.491 OA
ATOM      9  C   UNL     1       5.619  -1.021   5.215  0.00  0.00    +0.277 C 
ENDBRANCH   6   8
BRANCH   5  10
ATOM     10  O   UNL     1       5.309   2.703   7.092  0.00  0.00    -0.491 OA
ATOM     11  C   UNL     1       5.102   3.958   7.743  0.00  0.00    +0.277 C 
ENDBRANCH   5  10
ENDBRANCH   1   2
BRANCH   1  13
ATOM     12  N   UNL     1       0.159   0.506   4.173  0.00  0.00    -0.313 N 
ATOM     13  C   UNL     1      -0.206   0.156   5.422  0.00  0.00    +0.238 C 
ATOM     14  O   UNL     1      -1.322   0.411   5.823  0.00  0.00    -0.273 OA
ATOM     15  H   UNL     1       1.051   0.301   3.853  0.00  0.00    +0.149 HD
BRANCH  12  16
ATOM     16  C   UNL     1      -0.793   1.195   3.298  0.00  0.00    +0.104 C 
BRANCH  16  17
ATOM     17  C   UNL     1      -0.133   1.475   1.947  0.00  0.00    +0.022 C 
BRANCH  17  19
ATOM     18  C   UNL     1      -1.453   3.571   1.618  0.00  0.00    +0.007 C 
ATOM     19  C   UNL     1      -1.127   2.195   1.033  0.00  0.00    -0.016 C 
ATOM     20  C   UNL     1      -0.512   2.365  -0.357  0.00  0.00    +0.007 C 
ENDBRANCH  17  19
ENDBRANCH  16  17
ENDBRANCH  12  16
ENDBRANCH   1  13
BRANCH   1  21
ATOM     21  N   UNL     1       0.141  -0.822   7.616  0.00  0.00    -0.254 N 
ATOM     22  C   UNL     1      -0.884  -1.692   7.697  0.00  0.00    +0.242 C 
ATOM     23  O   UNL     1      -1.342  -2.186   6.689  0.00  0.00    -0.273 OA
BRANCH  21  24
ATOM     24  C   UNL     1       0.603  -0.175   8.768  0.00  0.00    +0.037 A 
ATOM     25  C   UNL     1      -0.205   0.750   9.417  0.00  0.00    +0.023 A 
ATOM     26  C   UNL     1       0.253   1.386  10.554  0.00  0.00    +0.002 A 
ATOM     27  C   UNL     1       1.514   1.104  11.046  0.00  0.00    +0.000 A 
ATOM     28  C   UNL     1       2.321   0.185  10.401  0.00  0.00    +0.002 A 
ATOM     29  C   UNL     1       1.867  -0.459   9.267  0.00  0.00    +0.023 A 
ENDBRANCH  21  24
BRANCH  22  30
ATOM     30  C   UNL     1      -1.462  -2.052   9.042  0.00  0.00    +0.242 C 
BRANCH  30  31
ATOM     31  N   UNL     1      -2.468  -3.104   8.875  0.00  0.00    -0.235 N 
ATOM     32  C   UNL     1      -3.812  -2.928   8.646  0.00  0.00    +0.090 A 
ATOM     33  C   UNL     1      -4.630  -1.813   8.502  0.00  0.00    +0.029 A 
ATOM     34  C   UNL     1      -5.968  -1.976   8.276  0.00  0.00    +0.002 A 
ATOM     35  C   UNL     1      -6.520  -3.248   8.188  0.00  0.00    +0.002 A 
ATOM     36  C   UNL     1      -5.739  -4.358   8.325  0.00  0.00    +0.032 A 
ATOM     37  C   UNL     1      -4.364  -4.218   8.557  0.00  0.00    +0.113 A 
ATOM     38  N   UNL     1      -3.364  -5.104   8.731  0.00  0.00    -0.129 NA
ATOM     39  N   UNL     1      -2.249  -4.489   8.912  0.00  0.00    -0.064 NA
ENDBRANCH  30  31
ENDBRANCH  22  30
ENDBRANCH   1  21
TORSDOF 11
