REMARK  Name = ZINC21254652
REMARK  10 active torsions:
REMARK  status: ('A' for Active; 'I' for Inactive)
REMARK    1  A    between atoms: C_1  and  C_2
REMARK    2  A    between atoms: C_2  and  O_3
REMARK    3  A    between atoms: O_3  and  C_4
REMARK    4  A    between atoms: C_7  and  C_12
REMARK    5  A    between atoms: C_9  and  O_10
REMARK    6  A    between atoms: O_10  and  C_11
REMARK    7  A    between atoms: C_17  and  C_27
REMARK    8  A    between atoms: C_30  and  O_34
REMARK    9  A    between atoms: O_34  and  C_35
REMARK   10  A    between atoms: C_35  and  C_36
REMARK                            x       y       z     vdW  Elec       q    Type
REMARK                         _______ _______ _______ _____ _____    ______ ____
ROOT
ATOM      1  C   UNL     1      -3.055   0.777   4.277  0.00  0.00    +0.032 C 
ATOM      2  C   UNL     1      -4.334   1.076   3.497  0.00  0.00    +0.059 C 
ATOM      3  C   UNL     1      -4.000   1.371   2.044  0.00  0.00    +0.017 C 
ATOM      4  C   UNL     1      -2.950   0.779   1.451  0.00  0.00    +0.036 C 
ATOM      5  C   UNL     1      -2.513   0.977   0.019  0.00  0.00    +0.136 C 
ATOM      6  N   UNL     1      -3.470   1.682  -0.807  0.00  0.00    -0.331 N 
ATOM      7  C   UNL     1      -3.800   3.009  -0.554  0.00  0.00    +0.049 A 
ATOM      8  C   UNL     1      -3.439   4.024  -1.425  0.00  0.00    +0.025 A 
ATOM      9  C   UNL     1      -3.688   5.340  -1.075  0.00  0.00    +0.002 A 
ATOM     10  C   UNL     1      -4.293   5.641   0.131  0.00  0.00    +0.002 A 
ATOM     11  C   UNL     1      -4.676   4.628   0.994  0.00  0.00    +0.025 A 
ATOM     12  C   UNL     1      -4.443   3.310   0.637  0.00  0.00    +0.052 A 
ATOM     13  N   UNL     1      -4.843   2.243   1.433  0.00  0.00    -0.316 N 
ATOM     14  C   UNL     1      -2.136  -0.122   2.178  0.00  0.00    +0.163 C 
ATOM     15  O   UNL     1      -1.204  -0.659   1.612  0.00  0.00    -0.292 OA
ATOM     16  C   UNL     1      -2.383  -0.436   3.623  0.00  0.00    +0.088 C 
ATOM     17  H   UNL     1      -3.950   1.168  -1.653  0.00  0.00    +0.147 HD
ATOM     18  H   UNL     1      -5.931   2.130   1.550  0.00  0.00    +0.152 HD
ENDROOT
BRANCH   5  19
ATOM     19  C   UNL     1      -1.220   1.750   0.017  0.00  0.00    -0.021 A 
ATOM     20  C   UNL     1      -0.068   1.168  -0.479  0.00  0.00    +0.009 A 
ATOM     21  C   UNL     1       1.118   1.876  -0.487  0.00  0.00    +0.047 A 
ATOM     22  C   UNL     1       1.155   3.171   0.008  0.00  0.00    +0.139 A 
ATOM     23  C   UNL     1      -0.002   3.752   0.510  0.00  0.00    +0.083 A 
ATOM     24  C   UNL     1      -1.186   3.039   0.516  0.00  0.00    +0.029 A 
ATOM     25 CL   UNL     1       0.040   5.373   1.131  0.00  0.00    -0.080 Cl
BRANCH  22  26
ATOM     26  O   UNL     1       2.320   3.870  -0.000  0.00  0.00    -0.491 OA
BRANCH  26  27
ATOM     27  C   UNL     1       3.470   3.209  -0.533  0.00  0.00    +0.226 C 
ATOM     28  C   UNL     1       4.677   4.146  -0.458  0.00  0.00    +0.048 C 
ENDBRANCH  26  27
ENDBRANCH  22  26
ENDBRANCH   5  19
BRANCH   1  32
ATOM     29  C   UNL     1      -4.019  -0.121   8.345  0.00  0.00    +0.162 A 
ATOM     30  C   UNL     1      -4.561  -0.878   7.319  0.00  0.00    +0.050 A 
ATOM     31  C   UNL     1      -4.247  -0.585   6.005  0.00  0.00    +0.008 A 
ATOM     32  C   UNL     1      -3.394   0.463   5.711  0.00  0.00    -0.040 A 
ATOM     33  C   UNL     1      -2.846   1.218   6.731  0.00  0.00    +0.053 A 
ATOM     34  C   UNL     1      -3.160   0.933   8.050  0.00  0.00    +0.162 A 
BRANCH  34  35
ATOM     35  O   UNL     1      -2.626   1.679   9.054  0.00  0.00    -0.491 OA
ATOM     36  C   UNL     1      -1.752   2.745   8.677  0.00  0.00    +0.277 C 
ENDBRANCH  34  35
BRANCH  29  37
ATOM     37  O   UNL     1      -4.326  -0.408   9.639  0.00  0.00    -0.489 OA
BRANCH  37  39
ATOM     38  C   UNL     1      -5.440  -1.673  11.371  0.00  0.00    +0.048 C 
ATOM     39  C   UNL     1      -5.214  -1.504   9.867  0.00  0.00    +0.226 C 
ENDBRANCH  37  39
ENDBRANCH  29  37
ENDBRANCH   1  32
TORSDOF 7
