REMARK  Name = ZINC54044531
REMARK  7 active torsions:
REMARK  status: ('A' for Active; 'I' for Inactive)
REMARK    1  A    between atoms: C_1  and  C_2
REMARK    2  A    between atoms: C_7  and  C_8
REMARK    3  A    between atoms: N_10  and  N_11
REMARK    4  A    between atoms: N_14  and  C_15
REMARK    5  A    between atoms: C_15  and  C_16
REMARK    6  A    between atoms: C_16  and  C_18
REMARK    7  A    between atoms: C_16  and  N_23
REMARK                            x       y       z     vdW  Elec       q    Type
REMARK                         _______ _______ _______ _____ _____    ______ ____
ROOT
ATOM      1  N   UNL     1       0.281  -0.010   4.882  0.00  0.00    -0.218 N 
ATOM      2  C   UNL     1       0.606  -0.671   6.010  0.00  0.00    +0.316 C 
ATOM      3  O   UNL     1       0.749  -0.062   7.053  0.00  0.00    -0.251 OA
ATOM      4  N   UNL     1       0.773  -2.008   5.983  0.00  0.00    -0.299 N 
ATOM      5  H   UNL     1       0.161   0.953   4.902  0.00  0.00    +0.174 HD
ATOM      6  H   UNL     1       0.658  -2.495   5.152  0.00  0.00    +0.150 HD
ENDROOT
BRANCH   1   9
ATOM      7  C   UNL     1      -0.210  -0.050   2.553  0.00  0.00    +0.260 C 
ATOM      8  O   UNL     1      -0.360   1.155   2.577  0.00  0.00    -0.269 OA
ATOM      9  N   UNL     1       0.116  -0.712   3.681  0.00  0.00    -0.229 N 
ATOM     10  H   UNL     1       0.235  -1.674   3.661  0.00  0.00    +0.173 HD
BRANCH   7  17
ATOM     11  C   UNL     1      -0.758   1.401   0.110  0.00  0.00    +0.044 C 
ATOM     12  C   UNL     1      -0.649  -0.102   0.101  0.00  0.00    -0.038 A 
ATOM     13  C   UNL     1      -0.804  -0.799  -1.079  0.00  0.00    +0.004 A 
ATOM     14  C   UNL     1      -0.704  -2.179  -1.090  0.00  0.00    +0.000 A 
ATOM     15  C   UNL     1      -0.447  -2.869   0.082  0.00  0.00    +0.001 A 
ATOM     16  C   UNL     1      -0.289  -2.184   1.269  0.00  0.00    +0.013 A 
ATOM     17  C   UNL     1      -0.384  -0.791   1.285  0.00  0.00    +0.041 A 
ENDBRANCH   7  17
ENDBRANCH   1   9
BRANCH   4  18
ATOM     18  C   UNL     1       1.126  -2.728   7.209  0.00  0.00    +0.095 C 
BRANCH  18  19
ATOM     19  C   UNL     1       1.374  -4.202   6.883  0.00  0.00    -0.013 C 
BRANCH  19  20
ATOM     20  N   UNL     1       1.851  -4.896   8.086  0.00  0.00    +0.386 N 
ATOM     21  C   UNL     1       2.264  -6.282   7.748  0.00  0.00    -0.078 C 
ATOM     22  C   UNL     1       3.222  -6.659   8.906  0.00  0.00    -0.020 C 
ATOM     23  C   UNL     1       3.975  -5.337   9.175  0.00  0.00    -0.020 C 
ATOM     24  C   UNL     1       3.062  -4.231   8.613  0.00  0.00    -0.078 C 
ATOM     25  H   UNL     1       1.127  -4.910   8.790  0.00  0.00    -0.081 HD
ENDBRANCH  19  20
BRANCH  19  26
ATOM     26  C   UNL     1       0.090  -4.835   6.412  0.00  0.00    -0.022 A 
ATOM     27  C   UNL     1      -0.316  -5.102   5.147  0.00  0.00    +0.009 A 
ATOM     28  C   UNL     1      -1.549  -5.696   4.950  0.00  0.00    +0.008 A 
ATOM     29  C   UNL     1      -2.315  -5.992   6.029  0.00  0.00    +0.045 A 
ATOM     30  S   UNL     1      -1.287  -5.434   7.377  0.00  0.00    -0.103 S 
ENDBRANCH  19  26
ENDBRANCH  18  19
ENDBRANCH   4  18
TORSDOF 6
