REMARK  Name = ZINC59938322
REMARK  6 active torsions:
REMARK  status: ('A' for Active; 'I' for Inactive)
REMARK    1  A    between atoms: C_1  and  C_2
REMARK    2  A    between atoms: C_7  and  S_10
REMARK    3  A    between atoms: S_10  and  C_11
REMARK    4  A    between atoms: C_11  and  C_12
REMARK    5  A    between atoms: N_14  and  C_15
REMARK    6  A    between atoms: C_18  and  N_22
REMARK                            x       y       z     vdW  Elec       q    Type
REMARK                         _______ _______ _______ _____ _____    ______ ____
ROOT
ATOM      1  C   UNL     1       3.305   1.073  -5.371  0.00  0.00    +0.228 C 
ATOM      2  O   UNL     1       3.167   0.300  -6.295  0.00  0.00    -0.275 OA
ATOM      3  N   UNL     1       4.193   2.083  -5.464  0.00  0.00    -0.283 N 
ATOM      4  H   UNL     1       4.253   2.743  -4.756  0.00  0.00    +0.155 HD
ENDROOT
BRANCH   3   5
ATOM      5  C   UNL     1       5.029   2.179  -6.583  0.00  0.00    +0.062 A 
ATOM      6  C   UNL     1       4.631   2.919  -7.689  0.00  0.00    +0.042 A 
ATOM      7  C   UNL     1       5.459   3.012  -8.791  0.00  0.00    +0.050 A 
ATOM      8  C   UNL     1       6.683   2.368  -8.795  0.00  0.00    +0.128 A 
ATOM      9  C   UNL     1       7.083   1.630  -7.696  0.00  0.00    +0.050 A 
ATOM     10  C   UNL     1       6.262   1.538  -6.588  0.00  0.00    +0.042 A 
ATOM     11 BR   UNL     1       6.813   0.534  -5.082  0.00  0.00    -0.048 Br
ATOM     12 BR   UNL     1       2.958   3.800  -7.685  0.00  0.00    -0.048 Br
BRANCH   8  13
ATOM     13  N   UNL     1       7.567   2.469  -9.978  0.00  0.00    +0.056 N 
ATOM     14  O   UNL     1       7.219   3.113 -10.939  0.00  0.00    -0.126 OA
ATOM     15  O   UNL     1       8.637   1.906  -9.982  0.00  0.00    -0.126 OA
ENDBRANCH   8  13
ENDBRANCH   3   5
BRANCH   1  16
ATOM     16  C   UNL     1       2.485   0.904  -4.118  0.00  0.00    +0.173 C 
BRANCH  16  17
ATOM     17  S   UNL     1       1.392  -0.532  -4.300  0.00  0.00    -0.078 S 
BRANCH  17  24
ATOM     18  C   UNL     1       0.423   1.349   0.356  0.00  0.00    +0.066 C 
ATOM     19  C   UNL     1       0.117   0.300  -0.681  0.00  0.00    +0.046 A 
ATOM     20  C   UNL     1      -0.819  -0.660  -0.424  0.00  0.00    +0.093 A 
ATOM     21  C   UNL     1      -1.088  -1.629  -1.407  0.00  0.00    +0.252 A 
ATOM     22  O   UNL     1      -1.919  -2.501  -1.210  0.00  0.00    -0.268 OA
ATOM     23  N   UNL     1      -0.410  -1.575  -2.573  0.00  0.00    -0.302 N 
ATOM     24  C   UNL     1       0.512  -0.594  -2.775  0.00  0.00    +0.170 A 
ATOM     25  N   UNL     1       0.755   0.314  -1.849  0.00  0.00    -0.228 NA
ATOM     26  H   UNL     1      -0.580  -2.233  -3.265  0.00  0.00    +0.171 HD
ENDBRANCH  17  24
ENDBRANCH  16  17
ENDBRANCH   1  16
TORSDOF 5
