REMARK  Name = ZINC40880322
REMARK  5 active torsions:
REMARK  status: ('A' for Active; 'I' for Inactive)
REMARK    1  A    between atoms: C_3  and  C_6
REMARK    2  A    between atoms: C_8  and  C_11
REMARK    3  A    between atoms: C_14  and  N_18
REMARK    4  A    between atoms: C_22  and  C_25
REMARK    5  A    between atoms: C_30  and  N_33
REMARK                            x       y       z     vdW  Elec       q    Type
REMARK                         _______ _______ _______ _____ _____    ______ ____
ROOT
ATOM      1  N   UNL     1      11.135  -0.527  -0.136  0.00  0.00    -0.327 N 
ATOM      2  C   UNL     1      11.836  -0.817   1.123  0.00  0.00    +0.105 C 
ATOM      3  C   UNL     1      13.187  -0.096   1.112  0.00  0.00    +0.020 C 
ATOM      4  C   UNL     1      13.963  -0.494  -0.146  0.00  0.00    +0.016 C 
ATOM      5  C   UNL     1      13.178  -0.067  -1.388  0.00  0.00    +0.092 C 
ATOM      6  C   UNL     1      11.824  -0.793  -1.406  0.00  0.00    +0.118 C 
ENDROOT
BRANCH   5   7
ATOM      7  C   UNL     1      13.958  -0.430  -2.625  0.00  0.00    +0.220 C 
ATOM      8  O   UNL     1      13.864  -1.543  -3.097  0.00  0.00    -0.275 OA
ATOM      9  N   UNL     1      14.761   0.483  -3.207  0.00  0.00    -0.301 N 
ATOM     10  C   UNL     1      14.983   1.793  -2.580  0.00  0.00    +0.106 C 
ATOM     11  C   UNL     1      16.491   2.022  -2.437  0.00  0.00    +0.004 C 
ATOM     12  C   UNL     1      17.160   1.858  -3.804  0.00  0.00    -0.066 C 
ATOM     13  C   UNL     1      16.934   0.434  -4.316  0.00  0.00    +0.004 C 
ATOM     14  C   UNL     1      15.436   0.185  -4.478  0.00  0.00    +0.106 C 
BRANCH  12  15
ATOM     15  N   UNL     1      18.601   2.110  -3.677  0.00  0.00    +0.382 N 
ATOM     16  C   UNL     1      18.816   3.474  -3.178  0.00  0.00    -0.078 C 
ATOM     17  C   UNL     1      20.313   3.714  -2.967  0.00  0.00    -0.019 C 
ATOM     18  C   UNL     1      21.046   3.534  -4.299  0.00  0.00    -0.004 C 
ATOM     19  C   UNL     1      20.755   2.134  -4.846  0.00  0.00    -0.019 C 
ATOM     20  C   UNL     1      19.242   1.953  -4.988  0.00  0.00    -0.078 C 
ATOM     21  H   UNL     1      19.001   1.450  -3.027  0.00  0.00    -0.081 HD
ENDBRANCH  12  15
ENDBRANCH   5   7
BRANCH   1  25
ATOM     22  C   UNL     1       7.259   1.004  -0.103  0.00  0.00    +0.025 A 
ATOM     23  C   UNL     1       7.466  -0.374  -0.115  0.00  0.00    +0.013 A 
ATOM     24  C   UNL     1       8.749  -0.879  -0.125  0.00  0.00    +0.027 A 
ATOM     25  C   UNL     1       9.837  -0.014  -0.125  0.00  0.00    +0.065 A 
ATOM     26  C   UNL     1       9.633   1.363  -0.114  0.00  0.00    +0.145 A 
ATOM     27  C   UNL     1       8.350   1.871  -0.109  0.00  0.00    +0.052 A 
ATOM     28  F   UNL     1      10.692   2.202  -0.112  0.00  0.00    -0.204 F 
BRANCH  22  31
ATOM     29  C   UNL     1       3.704   1.613  -0.075  0.00  0.00    +0.265 A 
ATOM     30  N   UNL     1       4.753   0.818  -0.085  0.00  0.00    -0.187 NA
ATOM     31  C   UNL     1       5.879   1.548  -0.092  0.00  0.00    +0.202 A 
ATOM     32  N   UNL     1       5.560   2.820  -0.086  0.00  0.00    -0.056 NA
ATOM     33  O   UNL     1       4.142   2.886  -0.080  0.00  0.00    -0.332 OA
BRANCH  29  36
ATOM     34  C   UNL     1      -0.038   1.267  -0.052  0.00  0.00    +0.008 A 
ATOM     35  C   UNL     1       1.151   1.960  -0.060  0.00  0.00    +0.021 A 
ATOM     36  C   UNL     1       2.299   1.186  -0.066  0.00  0.00    +0.077 A 
ATOM     37  S   UNL     1       1.627  -0.465  -0.059  0.00  0.00    -0.092 S 
ATOM     38  C   UNL     1      -0.010  -0.087  -0.050  0.00  0.00    +0.046 A 
ENDBRANCH  29  36
ENDBRANCH  22  31
ENDBRANCH   1  25
TORSDOF 5
