REMARK  Name = ZINC08862466
REMARK  5 active torsions:
REMARK  status: ('A' for Active; 'I' for Inactive)
REMARK    1  A    between atoms: C_1  and  C_2
REMARK    2  A    between atoms: C_15  and  C_17
REMARK    3  A    between atoms: C_17  and  C_19
REMARK    4  A    between atoms: C_17  and  N_65
REMARK    5  A    between atoms: C_25  and  C_27
REMARK                            x       y       z     vdW  Elec       q    Type
REMARK                         _______ _______ _______ _____ _____    ______ ____
ROOT
ATOM      1  C   UNL     1      -2.412   0.361   0.567  0.00  0.00    -0.059 C 
ATOM      2  C   UNL     1      -3.877  -0.038   0.363  0.00  0.00    +0.089 C 
ATOM      3  N   UNL     1      -3.965  -1.506   0.358  0.00  0.00    -0.302 N 
ATOM      4  C   UNL     1      -3.063  -2.254  -0.531  0.00  0.00    +0.089 C 
ATOM      5  C   UNL     1      -1.630  -1.768  -0.291  0.00  0.00    -0.059 C 
ATOM      6  C   UNL     1      -4.849  -2.148   1.147  0.00  0.00    +0.260 C 
ATOM      7  O   UNL     1      -4.851  -3.360   1.193  0.00  0.00    -0.271 OA
ATOM      8  N   UNL     1      -1.591  -0.300  -0.470  0.00  0.00    +0.388 N 
ATOM      9  H   UNL     1      -1.972  -0.067  -1.395  0.00  0.00    -0.081 HD
ENDROOT
BRANCH   6  10
ATOM     10  C   UNL     1      -5.835  -1.361   1.972  0.00  0.00    +0.296 C 
ATOM     11  C   UNL     1      -5.128  -0.774   3.201  0.00  0.00    +0.283 C 
ATOM     12  O   UNL     1      -6.094  -0.046   3.967  0.00  0.00    -0.484 OA
ATOM     13  C   UNL     1      -7.288  -0.660   4.189  0.00  0.00    +0.162 A 
ATOM     14  C   UNL     1      -8.119  -0.191   5.196  0.00  0.00    +0.049 A 
ATOM     15  C   UNL     1      -9.337  -0.800   5.428  0.00  0.00    +0.004 A 
ATOM     16  C   UNL     1      -9.732  -1.878   4.658  0.00  0.00    +0.004 A 
ATOM     17  C   UNL     1      -8.909  -2.351   3.654  0.00  0.00    +0.049 A 
ATOM     18  C   UNL     1      -7.684  -1.745   3.417  0.00  0.00    +0.163 A 
ATOM     19  O   UNL     1      -6.883  -2.224   2.426  0.00  0.00    -0.473 OA
ENDBRANCH   6  10
BRANCH   8  20
ATOM     20  C   UNL     1      -0.196   0.180  -0.391  0.00  0.00    -0.004 C 
ATOM     21  C   UNL     1       0.507  -0.408   0.834  0.00  0.00    -0.005 C 
BRANCH  20  35
ATOM     22  C   UNL     1       3.703  -3.099  -8.987  0.00  0.00    +0.008 C 
ATOM     23  C   UNL     1       3.347  -2.815  -7.526  0.00  0.00    -0.009 C 
ATOM     24  C   UNL     1       4.009  -1.508  -7.081  0.00  0.00    +0.008 C 
ATOM     25  C   UNL     1       3.866  -1.343  -5.567  0.00  0.00    +0.037 C 
ATOM     26  C   UNL     1       2.396  -1.499  -5.191  0.00  0.00    -0.023 A 
ATOM     27  C   UNL     1       1.528  -2.095  -6.035  0.00  0.00    -0.004 A 
ATOM     28  S   UNL     1      -0.033  -2.052  -5.195  0.00  0.00    -0.073 S 
ATOM     29  C   UNL     1       0.487  -1.232  -3.710  0.00  0.00    +0.116 A 
ATOM     30  C   UNL     1       1.859  -1.018  -3.918  0.00  0.00    +0.075 A 
ATOM     31  C   UNL     1       2.552  -0.356  -2.852  0.00  0.00    +0.260 A 
ATOM     32  O   UNL     1       3.746  -0.125  -2.939  0.00  0.00    -0.267 OA
ATOM     33  N   UNL     1       1.863   0.006  -1.754  0.00  0.00    -0.312 N 
ATOM     34  H   UNL     1       2.325   0.455  -1.029  0.00  0.00    +0.170 HD
ATOM     35  C   UNL     1       0.533  -0.243  -1.641  0.00  0.00    +0.097 A 
ATOM     36  N   UNL     1      -0.125  -0.849  -2.593  0.00  0.00    -0.228 NA
ATOM     37  C   UNL     1       1.825  -2.669  -7.387  0.00  0.00    +0.046 C 
ENDBRANCH  20  35
ENDBRANCH   8  20
TORSDOF 3
