REMARK  Name = ZINC20746166
REMARK  3 active torsions:
REMARK  status: ('A' for Active; 'I' for Inactive)
REMARK    1  A    between atoms: C_1  and  C_2
REMARK    2  A    between atoms: C_14  and  O_27
REMARK    3  A    between atoms: C_17  and  C_19
REMARK                            x       y       z     vdW  Elec       q    Type
REMARK                         _______ _______ _______ _____ _____    ______ ____
ROOT
ATOM      1  C   UNL     1      -0.160   1.564  -0.025  0.00  0.00    +0.068 C 
ATOM      2  C   UNL     1      -0.139   0.057   0.005  0.00  0.00    +0.067 A 
ATOM      3  C   UNL     1      -0.169  -0.783  -1.124  0.00  0.00    +0.037 A 
ATOM      4  C   UNL     1      -0.132  -2.077  -0.682  0.00  0.00    +0.167 A 
ATOM      5  N   UNL     1      -0.088  -2.020   0.700  0.00  0.00    -0.179 N 
ATOM      6  N   UNL     1      -0.085  -0.678   1.079  0.00  0.00    -0.167 NA
ATOM      7  C   UNL     1      -0.048  -3.113   1.563  0.00  0.00    +0.253 A 
ATOM      8  N   UNL     1      -0.046  -4.336   1.056  0.00  0.00    -0.219 NA
ATOM      9  C   UNL     1      -0.009  -5.396   1.846  0.00  0.00    +0.116 A 
ATOM     10  C   UNL     1       0.028  -5.214   3.220  0.00  0.00    +0.039 A 
ATOM     11  C   UNL     1       0.025  -3.919   3.716  0.00  0.00    +0.116 A 
ATOM     12  N   UNL     1      -0.008  -2.904   2.869  0.00  0.00    -0.219 NA
ATOM     13  N   UNL     1      -0.124  -3.249  -1.336  0.00  0.00    -0.197 NA
ATOM     14  C   UNL     1      -0.150  -3.625  -2.531  0.00  0.00    +0.199 C 
ATOM     15  C   UNL     1      -0.264  -2.830  -3.772  0.00  0.00    +0.165 C 
ATOM     16  S   UNL     1       0.643  -1.279  -3.703  0.00  0.00    -0.138 S 
ATOM     17  C   UNL     1      -0.235  -0.248  -2.523  0.00  0.00    +0.113 C 
ENDROOT
BRANCH  17  18
ATOM     18  C   UNL     1       0.365   1.134  -2.545  0.00  0.00    -0.011 A 
ATOM     19  C   UNL     1       1.721   1.302  -2.338  0.00  0.00    +0.009 A 
ATOM     20  C   UNL     1       2.273   2.569  -2.357  0.00  0.00    +0.039 A 
ATOM     21  C   UNL     1       1.466   3.671  -2.583  0.00  0.00    +0.125 A 
ATOM     22  C   UNL     1       0.108   3.503  -2.791  0.00  0.00    +0.058 A 
ATOM     23  C   UNL     1      -0.442   2.234  -2.777  0.00  0.00    +0.048 A 
ATOM     24 CL   UNL     1      -2.144   2.021  -3.043  0.00  0.00    -0.083 Cl
ATOM     25  F   UNL     1       2.004   4.910  -2.601  0.00  0.00    -0.205 F 
ENDBRANCH  17  18
BRANCH  14  26
ATOM     26  O   UNL     1      -0.061  -4.958  -2.713  0.00  0.00    -0.495 OA
ATOM     27  H   UNL     1       0.013  -5.463  -1.892  0.00  0.00    +0.293 HD
ENDBRANCH  14  26
TORSDOF 2
