REMARK  Name = ZINC27252823
REMARK  9 active torsions:
REMARK  status: ('A' for Active; 'I' for Inactive)
REMARK    1  A    between atoms: C_1  and  O_2
REMARK    2  A    between atoms: O_2  and  C_3
REMARK    3  A    between atoms: C_8  and  C_9
REMARK    4  A    between atoms: C_9  and  C_10
REMARK    5  A    between atoms: C_9  and  C_17
REMARK    6  A    between atoms: C_9  and  O_33
REMARK    7  A    between atoms: C_17  and  C_19
REMARK    8  A    between atoms: C_17  and  C_26
REMARK    9  A    between atoms: C_19  and  N_20
REMARK                            x       y       z     vdW  Elec       q    Type
REMARK                         _______ _______ _______ _____ _____    ______ ____
ROOT
ATOM      1  C   UNL     1      -1.343  -0.691  -0.036  0.00  0.00    +0.124 C 
ENDROOT
BRANCH   1   2
ATOM      2  C   UNL     1      -2.149  -0.141  -1.185  0.00  0.00    -0.011 A 
ATOM      3  C   UNL     1      -2.902   1.006  -1.014  0.00  0.00    +0.008 A 
ATOM      4  C   UNL     1      -3.637   1.514  -2.068  0.00  0.00    +0.015 A 
ATOM      5  C   UNL     1      -3.629   0.868  -3.292  0.00  0.00    +0.018 A 
ATOM      6  C   UNL     1      -2.880  -0.282  -3.461  0.00  0.00    +0.015 A 
ATOM      7  C   UNL     1      -2.140  -0.786  -2.407  0.00  0.00    +0.008 A 
ATOM      8 BR   UNL     1      -4.640   1.559  -4.733  0.00  0.00    -0.050 Br
ENDBRANCH   1   2
BRANCH   1  14
ATOM      9  C   UNL     1       0.201   1.283   0.046  0.00  0.00    +0.126 A 
ATOM     10  C   UNL     1       1.474   1.833   0.024  0.00  0.00    +0.046 A 
ATOM     11  C   UNL     1       2.578   1.011  -0.103  0.00  0.00    +0.004 A 
ATOM     12  C   UNL     1       2.413  -0.358  -0.207  0.00  0.00    +0.001 A 
ATOM     13  C   UNL     1       1.145  -0.908  -0.185  0.00  0.00    +0.010 A 
ATOM     14  C   UNL     1       0.038  -0.091  -0.059  0.00  0.00    +0.030 A 
BRANCH   9  16
ATOM     15  C   UNL     1      -0.645   3.494   0.269  0.00  0.00    +0.277 C 
ATOM     16  O   UNL     1      -0.887   2.089   0.165  0.00  0.00    -0.495 OA
ENDBRANCH   9  16
ENDBRANCH   1  14
BRANCH   1  17
ATOM     17  O   UNL     1      -1.248  -2.112  -0.159  0.00  0.00    -0.379 OA
ATOM     18  H   UNL     1      -2.160  -2.726  -0.162  0.00  0.00    +0.211 HD
ENDBRANCH   1  17
BRANCH   1  19
ATOM     19  C   UNL     1      -2.031  -0.339   1.284  0.00  0.00    +0.043 C 
BRANCH  19  20
ATOM     20  C   UNL     1      -3.401  -0.966   1.321  0.00  0.00    -0.043 A 
ATOM     21  C   UNL     1      -3.529  -2.340   1.414  0.00  0.00    +0.007 A 
ATOM     22  C   UNL     1      -4.784  -2.916   1.454  0.00  0.00    +0.038 A 
ATOM     23  C   UNL     1      -5.914  -2.118   1.388  0.00  0.00    +0.123 A 
ATOM     24  C   UNL     1      -5.784  -0.743   1.289  0.00  0.00    +0.038 A 
ATOM     25  C   UNL     1      -4.528  -0.169   1.256  0.00  0.00    +0.007 A 
ATOM     26  F   UNL     1      -7.141  -2.681   1.420  0.00  0.00    -0.205 F 
ENDBRANCH  19  20
BRANCH  19  27
ATOM     27  C   UNL     1      -1.196  -0.868   2.451  0.00  0.00    -0.067 C 
BRANCH  27  28
ATOM     28  N   UNL     1      -1.791  -0.427   3.720  0.00  0.00    +0.380 N 
ATOM     29  C   UNL     1      -1.711   1.032   3.860  0.00  0.00    -0.079 C 
ATOM     30  C   UNL     1      -2.467   1.468   5.117  0.00  0.00    -0.019 C 
ATOM     31  C   UNL     1      -1.849   0.784   6.340  0.00  0.00    -0.004 C 
ATOM     32  C   UNL     1      -1.902  -0.734   6.148  0.00  0.00    -0.019 C 
ATOM     33  C   UNL     1      -1.163  -1.106   4.861  0.00  0.00    -0.079 C 
ATOM     34  H   UNL     1      -2.856  -0.705   3.710  0.00  0.00    -0.082 HD
ENDBRANCH  27  28
ENDBRANCH  19  27
ENDBRANCH   1  19
TORSDOF 8
