REMARK  Name = ZINC39543078
REMARK  7 active torsions:
REMARK  status: ('A' for Active; 'I' for Inactive)
REMARK    1  A    between atoms: C_1  and  C_2
REMARK    2  A    between atoms: N_9  and  C_15
REMARK    3  A    between atoms: C_11  and  C_14
REMARK    4  A    between atoms: C_15  and  C_16
REMARK    5  A    between atoms: N_18  and  C_19
REMARK    6  A    between atoms: C_19  and  C_21
REMARK    7  A    between atoms: C_19  and  C_28
REMARK                            x       y       z     vdW  Elec       q    Type
REMARK                         _______ _______ _______ _____ _____    ______ ____
ROOT
ATOM      1  C   UNL     1      -1.552  -2.473   4.813  0.00  0.00    +0.197 C 
ATOM      2  O   UNL     1      -1.501  -1.439   4.181  0.00  0.00    -0.278 OA
ATOM      3  N   UNL     1      -1.761  -2.439   6.144  0.00  0.00    -0.306 N 
ATOM      4  H   UNL     1      -1.802  -3.265   6.650  0.00  0.00    +0.150 HD
ENDROOT
BRANCH   1   5
ATOM      5  C   UNL     1      -1.381  -3.795   4.111  0.00  0.00    +0.019 C 
BRANCH   5  14
ATOM      6  C   UNL     1      -0.018   1.503   0.010  0.00  0.00    +0.044 C 
ATOM      7  C   UNL     1       0.002  -0.004   0.002  0.00  0.00    -0.050 A 
ATOM      8  C   UNL     1       0.006  -0.688  -1.200  0.00  0.00    +0.007 A 
ATOM      9  C   UNL     1       0.016  -2.069  -1.214  0.00  0.00    +0.046 A 
ATOM     10  C   UNL     1       0.028  -2.768  -0.015  0.00  0.00    +0.122 A 
ATOM     11  C   UNL     1       0.040  -2.081   1.183  0.00  0.00    -0.022 A 
ATOM     12  C   UNL     1       0.023  -0.701   1.197  0.00  0.00    +0.008 A 
ATOM     13  C   UNL     1       0.101  -2.853   2.487  0.00  0.00    -0.038 C 
ATOM     14  N   UNL     1      -1.168  -3.563   2.676  0.00  0.00    +0.391 N 
ATOM     15  C   UNL     1      -1.164  -4.846   1.980  0.00  0.00    -0.033 C 
ATOM     16  C   UNL     1      -1.192  -4.729   0.473  0.00  0.00    +0.154 C 
ATOM     17  O   UNL     1       0.015  -4.130  -0.015  0.00  0.00    -0.491 OA
ATOM     18  C   UNL     1      -1.343  -6.123  -0.138  0.00  0.00    +0.050 C 
ATOM     19  H   UNL     1      -1.921  -2.995   2.318  0.00  0.00    -0.081 HD
ENDBRANCH   5  14
ENDBRANCH   1   5
BRANCH   3  20
ATOM     20  C   UNL     1      -1.927  -1.153   6.827  0.00  0.00    +0.134 C 
BRANCH  20  21
ATOM     21  C   UNL     1      -2.723  -1.355   8.091  0.00  0.00    -0.023 A 
ATOM     22  C   UNL     1      -2.494  -2.465   8.882  0.00  0.00    +0.007 A 
ATOM     23  C   UNL     1      -3.224  -2.650  10.041  0.00  0.00    +0.020 A 
ATOM     24  C   UNL     1      -4.184  -1.724  10.409  0.00  0.00    +0.041 A 
ATOM     25  C   UNL     1      -4.413  -0.613   9.616  0.00  0.00    +0.020 A 
ATOM     26  C   UNL     1      -3.678  -0.426   8.460  0.00  0.00    +0.007 A 
ATOM     27 CL   UNL     1      -5.102  -1.956  11.864  0.00  0.00    -0.084 Cl
ENDBRANCH  20  21
BRANCH  20  28
ATOM     28  C   UNL     1      -0.572  -0.589   7.171  0.00  0.00    -0.020 A 
ATOM     29  C   UNL     1       0.446  -1.414   7.625  0.00  0.00    +0.025 A 
ATOM     30  C   UNL     1       1.675  -0.861   7.931  0.00  0.00    +0.111 A 
ATOM     31  N   UNL     1       1.884   0.434   7.796  0.00  0.00    -0.263 NA
ATOM     32  C   UNL     1       0.939   1.248   7.367  0.00  0.00    +0.111 A 
ATOM     33  C   UNL     1      -0.313   0.766   7.036  0.00  0.00    +0.025 A 
ENDBRANCH  20  28
ENDBRANCH   3  20
TORSDOF 5
