REMARK  Name = ZINC12027905
REMARK  7 active torsions:
REMARK  status: ('A' for Active; 'I' for Inactive)
REMARK    1  A    between atoms: C_1  and  O_2
REMARK    2  A    between atoms: O_2  and  C_3
REMARK    3  A    between atoms: C_9  and  C_10
REMARK    4  A    between atoms: N_12  and  C_13
REMARK    5  A    between atoms: C_13  and  C_14
REMARK    6  A    between atoms: C_23  and  C_24
REMARK    7  A    between atoms: C_23  and  N_60
REMARK                            x       y       z     vdW  Elec       q    Type
REMARK                         _______ _______ _______ _____ _____    ______ ____
ROOT
ATOM      1  C   UNL     1      -2.440  -1.594   3.195  0.00  0.00    +0.139 A 
ATOM      2  C   UNL     1      -2.934  -1.670   4.481  0.00  0.00    +0.116 A 
ATOM      3  C   UNL     1      -3.976  -2.557   4.754  0.00  0.00    +0.255 A 
ATOM      4  O   UNL     1      -4.405  -2.630   5.895  0.00  0.00    -0.268 OA
ATOM      5  N   UNL     1      -4.528  -3.338   3.796  0.00  0.00    -0.313 N 
ATOM      6  C   UNL     1      -4.066  -3.325   2.540  0.00  0.00    +0.036 A 
ATOM      7  C   UNL     1      -3.033  -2.469   2.183  0.00  0.00    +0.098 A 
ATOM      8  C   UNL     1      -4.590  -4.239   1.460  0.00  0.00    +0.036 C 
ATOM      9  C   UNL     1      -6.060  -4.585   1.692  0.00  0.00    -0.072 C 
ATOM     10  C   UNL     1      -5.459  -5.627   3.785  0.00  0.00    -0.056 C 
ATOM     11  C   UNL     1      -5.661  -4.172   4.210  0.00  0.00    +0.106 C 
ATOM     12  N   UNL     1      -6.111  -5.833   2.478  0.00  0.00    +0.384 N 
ATOM     13  H   UNL     1      -5.611  -6.571   1.968  0.00  0.00    -0.081 HD
ENDROOT
BRANCH   7  14
ATOM     14  C   UNL     1      -2.541  -2.439   0.795  0.00  0.00    +0.250 C 
ATOM     15  O   UNL     1      -2.823  -1.504   0.071  0.00  0.00    -0.270 OA
ATOM     16  N   UNL     1      -1.779  -3.447   0.328  0.00  0.00    -0.307 N 
ATOM     17  H   UNL     1      -1.499  -4.160   0.924  0.00  0.00    +0.149 HD
BRANCH  16  18
ATOM     18  C   UNL     1      -1.373  -3.467  -1.080  0.00  0.00    +0.147 C 
BRANCH  18  19
ATOM     19  C   UNL     1      -0.533  -4.690  -1.343  0.00  0.00    +0.007 A 
ATOM     20  C   UNL     1      -0.925  -5.927  -1.735  0.00  0.00    +0.013 A 
ATOM     21  C   UNL     1       0.032  -6.908  -1.917  0.00  0.00    +0.008 A 
ATOM     22  C   UNL     1       1.335  -6.603  -1.698  0.00  0.00    +0.045 A 
ATOM     23  S   UNL     1       1.237  -4.886  -1.219  0.00  0.00    -0.100 S 
ENDBRANCH  18  19
ENDBRANCH  16  18
ENDBRANCH   7  14
BRANCH   1  25
ATOM     24  C   UNL     1      -0.926   0.077   3.934  0.00  0.00    +0.277 C 
ATOM     25  O   UNL     1      -1.441  -0.738   2.879  0.00  0.00    -0.494 OA
ENDBRANCH   1  25
BRANCH  12  26
ATOM     26  C   UNL     1      -7.516  -6.252   2.674  0.00  0.00    -0.036 C 
BRANCH  26  27
ATOM     27  C   UNL     1      -7.539  -7.708   3.063  0.00  0.00    +0.018 A 
ATOM     28  C   UNL     1      -7.763  -8.064   4.340  0.00  0.00    +0.201 A 
ATOM     29  O   UNL     1      -7.799  -9.338   4.743  0.00  0.00    -0.462 OA
ATOM     30  C   UNL     1      -7.604 -10.370   3.896  0.00  0.00    +0.138 A 
ATOM     31  C   UNL     1      -7.642 -11.684   4.347  0.00  0.00    +0.047 A 
ATOM     32  C   UNL     1      -7.439 -12.720   3.462  0.00  0.00    +0.004 A 
ATOM     33  C   UNL     1      -7.194 -12.468   2.119  0.00  0.00    +0.001 A 
ATOM     34  C   UNL     1      -7.151 -11.173   1.652  0.00  0.00    +0.015 A 
ATOM     35  C   UNL     1      -7.356 -10.116   2.537  0.00  0.00    +0.064 A 
ATOM     36  C   UNL     1      -7.319  -8.712   2.083  0.00  0.00    +0.194 A 
ATOM     37  O   UNL     1      -7.108  -8.427   0.917  0.00  0.00    -0.287 OA
ENDBRANCH  26  27
ENDBRANCH  12  26
TORSDOF 6
