REMARK  Name = ZINC59263048
REMARK  8 active torsions:
REMARK  status: ('A' for Active; 'I' for Inactive)
REMARK    1  A    between atoms: C_1  and  N_2
REMARK    2  A    between atoms: N_7  and  C_10
REMARK    3  A    between atoms: C_12  and  S_14
REMARK    4  A    between atoms: S_14  and  C_15
REMARK    5  A    between atoms: C_18  and  C_26
REMARK    6  A    between atoms: N_19  and  C_20
REMARK    7  A    between atoms: C_26  and  N_27
REMARK    8  A    between atoms: N_27  and  C_28
REMARK                            x       y       z     vdW  Elec       q    Type
REMARK                         _______ _______ _______ _____ _____    ______ ____
ROOT
ATOM      1  C   UNL     1      -5.361  -3.237   0.013  0.00  0.00    +0.204 A 
ATOM      2  N   UNL     1      -4.506  -4.233   0.010  0.00  0.00    -0.122 NA
ATOM      3  N   UNL     1      -5.138  -5.352   0.006  0.00  0.00    -0.132 NA
ATOM      4  C   UNL     1      -6.424  -5.141   0.008  0.00  0.00    +0.156 A 
ATOM      5  N   UNL     1      -6.615  -3.785   0.017  0.00  0.00    -0.273 N 
ENDROOT
BRANCH   5   6
ATOM      6  C   UNL     1      -7.839  -3.102   0.026  0.00  0.00    +0.050 A 
ATOM      7  C   UNL     1      -8.685  -3.205   1.122  0.00  0.00    +0.026 A 
ATOM      8  C   UNL     1      -9.890  -2.530   1.128  0.00  0.00    +0.002 A 
ATOM      9  C   UNL     1     -10.254  -1.752   0.045  0.00  0.00    +0.000 A 
ATOM     10  C   UNL     1      -9.413  -1.647  -1.048  0.00  0.00    +0.002 A 
ATOM     11  C   UNL     1      -8.204  -2.315  -1.058  0.00  0.00    +0.026 A 
ENDBRANCH   5   6
BRANCH   1  12
ATOM     12  S   UNL     1      -4.969  -1.519   0.019  0.00  0.00    -0.010 S 
BRANCH  12  24
ATOM     13  C   UNL     1      -0.018   1.461   0.010  0.00  0.00    +0.155 C 
ATOM     14  N   UNL     1       0.002  -0.004   0.002  0.00  0.00    -0.279 N 
ATOM     15  C   UNL     1      -1.187  -0.712   0.004  0.00  0.00    +0.171 A 
ATOM     16  C   UNL     1      -1.141  -2.125  -0.004  0.00  0.00    +0.173 A 
ATOM     17  C   UNL     1       0.098  -2.760  -0.014  0.00  0.00    +0.284 A 
ATOM     18  O   UNL     1       0.175  -4.104  -0.022  0.00  0.00    -0.265 OA
ATOM     19  N   UNL     1       1.235  -2.004  -0.015  0.00  0.00    -0.262 N 
ATOM     20  C   UNL     1       1.177  -0.662  -0.013  0.00  0.00    +0.333 A 
ATOM     21  O   UNL     1       2.213  -0.024  -0.020  0.00  0.00    -0.246 OA
ATOM     22  C   UNL     1       2.541  -2.669  -0.025  0.00  0.00    +0.157 C 
ATOM     23  N   UNL     1      -2.430  -2.549   0.000  0.00  0.00    -0.213 NA
ATOM     24  C   UNL     1      -3.208  -1.484   0.010  0.00  0.00    +0.199 A 
ATOM     25  N   UNL     1      -2.465  -0.374   0.012  0.00  0.00    -0.202 NA
ENDBRANCH  12  24
ENDBRANCH   1  12
BRANCH   4  26
ATOM     26  C   UNL     1      -7.502  -6.195   0.005  0.00  0.00    +0.178 C 
BRANCH  26  27
ATOM     27  N   UNL     1      -7.851  -6.540   1.385  0.00  0.00    -0.336 N 
ATOM     28  H   UNL     1      -7.400  -6.102   2.123  0.00  0.00    +0.147 HD
BRANCH  27  29
ATOM     29  C   UNL     1      -8.831  -7.498   1.637  0.00  0.00    +0.035 A 
ATOM     30  C   UNL     1      -9.471  -8.130   0.592  0.00  0.00    +0.023 A 
ATOM     31  C   UNL     1     -10.451  -9.088   0.832  0.00  0.00    +0.002 A 
ATOM     32  C   UNL     1     -10.803  -9.429   2.102  0.00  0.00    +0.008 A 
ATOM     33  C   UNL     1     -10.175  -8.810   3.196  0.00  0.00    -0.016 A 
ATOM     34  C   UNL     1      -9.172  -7.837   2.964  0.00  0.00    +0.003 A 
ATOM     35  C   UNL     1      -8.541  -7.222   4.057  0.00  0.00    +0.010 A 
ATOM     36  C   UNL     1      -8.896  -7.573   5.324  0.00  0.00    +0.001 A 
ATOM     37  C   UNL     1      -9.878  -8.535   5.553  0.00  0.00    +0.001 A 
ATOM     38  C   UNL     1     -10.519  -9.142   4.518  0.00  0.00    +0.008 A 
ENDBRANCH  27  29
ENDBRANCH  26  27
ENDBRANCH   4  26
TORSDOF 6
