REMARK  Name = ZINC16945559
REMARK  9 active torsions:
REMARK  status: ('A' for Active; 'I' for Inactive)
REMARK    1  A    between atoms: C_1  and  C_2
REMARK    2  A    between atoms: C_3  and  C_34
REMARK    3  A    between atoms: N_9  and  C_29
REMARK    4  A    between atoms: C_10  and  S_12
REMARK    5  A    between atoms: S_12  and  C_13
REMARK    6  A    between atoms: C_13  and  C_15
REMARK    7  A    between atoms: C_13  and  C_16
REMARK    8  A    between atoms: N_18  and  C_19
REMARK    9  A    between atoms: C_24  and  C_25
REMARK                            x       y       z     vdW  Elec       q    Type
REMARK                         _______ _______ _______ _____ _____    ______ ____
ROOT
ATOM      1  C   UNL     1       2.706   5.985  -1.024  0.00  0.00    +0.045 C 
ATOM      2  C   UNL     1       3.615   4.833  -0.680  0.00  0.00    -0.026 A 
ATOM      3  C   UNL     1       4.898   5.055  -0.358  0.00  0.00    -0.008 A 
ATOM      4  S   UNL     1       5.534   3.420  -0.042  0.00  0.00    -0.073 S 
ATOM      5  C   UNL     1       4.058   2.485  -0.352  0.00  0.00    +0.117 A 
ATOM      6  C   UNL     1       3.112   3.471  -0.692  0.00  0.00    +0.075 A 
ATOM      7  C   UNL     1       1.800   2.993  -1.004  0.00  0.00    +0.263 A 
ATOM      8  O   UNL     1       0.916   3.773  -1.315  0.00  0.00    -0.267 OA
ATOM      9  N   UNL     1       1.553   1.671  -0.946  0.00  0.00    -0.284 N 
ATOM     10  C   UNL     1       2.532   0.782  -0.606  0.00  0.00    +0.174 A 
ATOM     11  N   UNL     1       3.750   1.195  -0.318  0.00  0.00    -0.216 NA
ATOM     12  C   UNL     1       5.628   6.371  -0.281  0.00  0.00    +0.052 C 
ENDROOT
BRANCH   9  13
ATOM     13  C   UNL     1       0.210   1.177  -1.259  0.00  0.00    +0.093 C 
ATOM     14  C   UNL     1      -0.795   1.667  -0.197  0.00  0.00    +0.025 C 
ATOM     15  C   UNL     1      -1.415   2.942  -0.822  0.00  0.00    +0.002 C 
ATOM     16  C   UNL     1      -1.536   2.566  -2.319  0.00  0.00    +0.002 C 
ATOM     17  C   UNL     1      -0.260   1.748  -2.608  0.00  0.00    +0.025 C 
ENDBRANCH   9  13
BRANCH  10  18
ATOM     18  S   UNL     1       2.161  -0.939  -0.551  0.00  0.00    -0.075 S 
BRANCH  18  19
ATOM     19  C   UNL     1       3.777  -1.593  -0.062  0.00  0.00    +0.137 C 
ATOM     20  C   UNL     1       4.122  -1.099   1.344  0.00  0.00    +0.029 C 
BRANCH  19  21
ATOM     21  C   UNL     1       3.732  -3.099  -0.069  0.00  0.00    +0.230 C 
ATOM     22  O   UNL     1       2.666  -3.675  -0.011  0.00  0.00    -0.274 OA
ATOM     23  N   UNL     1       4.877  -3.807  -0.138  0.00  0.00    -0.284 N 
ATOM     24  H   UNL     1       5.732  -3.351  -0.100  0.00  0.00    +0.155 HD
BRANCH  23  25
ATOM     25  C   UNL     1       4.831  -5.200  -0.264  0.00  0.00    +0.045 A 
ATOM     26  C   UNL     1       3.682  -5.819  -0.740  0.00  0.00    +0.024 A 
ATOM     27  C   UNL     1       3.642  -7.193  -0.868  0.00  0.00    +0.002 A 
ATOM     28  C   UNL     1       4.742  -7.954  -0.514  0.00  0.00    +0.001 A 
ATOM     29  C   UNL     1       5.885  -7.342  -0.036  0.00  0.00    +0.014 A 
ATOM     30  C   UNL     1       5.933  -5.967   0.090  0.00  0.00    +0.076 A 
BRANCH  30  31
ATOM     31  C   UNL     1       7.180  -5.301   0.613  0.00  0.00    +0.419 C 
ATOM     32  F   UNL     1       8.143  -6.273   0.899  0.00  0.00    -0.166 F 
ATOM     33  F   UNL     1       7.678  -4.421  -0.354  0.00  0.00    -0.166 F 
ATOM     34  F   UNL     1       6.875  -4.589   1.778  0.00  0.00    -0.166 F 
ENDBRANCH  30  31
ENDBRANCH  23  25
ENDBRANCH  19  21
ENDBRANCH  18  19
ENDBRANCH  10  18
TORSDOF 6
