REMARK  Name = ZINC48968836
REMARK  6 active torsions:
REMARK  status: ('A' for Active; 'I' for Inactive)
REMARK    1  A    between atoms: C_1  and  C_2
REMARK    2  A    between atoms: C_2  and  N_3
REMARK    3  A    between atoms: N_6  and  C_7
REMARK    4  A    between atoms: C_7  and  C_12
REMARK    5  A    between atoms: N_14  and  N_15
REMARK    6  A    between atoms: N_18  and  C_19
REMARK                            x       y       z     vdW  Elec       q    Type
REMARK                         _______ _______ _______ _____ _____    ______ ____
ROOT
ATOM      1  C   UNL     1      -3.115  -3.744  -0.099  0.00  0.00    +0.113 C 
ATOM      2  C   UNL     1      -2.718  -4.562   1.148  0.00  0.00    +0.035 C 
ATOM      3  C   UNL     1      -4.016  -4.627   1.989  0.00  0.00    +0.003 C 
ATOM      4  C   UNL     1      -5.116  -4.786   0.910  0.00  0.00    +0.003 C 
ATOM      5  C   UNL     1      -4.640  -3.887  -0.250  0.00  0.00    +0.035 C 
ENDROOT
BRANCH   1   9
ATOM      6  N   UNL     1      -1.132  -0.669   0.238  0.00  0.00    -0.300 N 
ATOM      7  C   UNL     1      -1.463  -1.973   0.166  0.00  0.00    +0.300 C 
ATOM      8  O   UNL     1      -0.593  -2.822   0.168  0.00  0.00    -0.253 OA
ATOM      9  N   UNL     1      -2.759  -2.336   0.090  0.00  0.00    -0.285 N 
ATOM     10  H   UNL     1      -1.826   0.009   0.236  0.00  0.00    +0.150 HD
ATOM     11  H   UNL     1      -3.456  -1.665   0.162  0.00  0.00    +0.151 HD
BRANCH   6  13
ATOM     12  C   UNL     1       0.375   1.251   0.391  0.00  0.00    +0.024 C 
ATOM     13  C   UNL     1       0.276  -0.274   0.320  0.00  0.00    +0.102 C 
ENDBRANCH   6  13
ENDBRANCH   1   9
BRANCH   1  14
ATOM     14  C   UNL     1      -2.422  -4.293  -1.320  0.00  0.00    +0.253 C 
ATOM     15  O   UNL     1      -2.033  -5.441  -1.332  0.00  0.00    -0.272 OA
ATOM     16  N   UNL     1      -2.235  -3.506  -2.398  0.00  0.00    -0.231 N 
ATOM     17  H   UNL     1      -2.609  -2.611  -2.417  0.00  0.00    +0.173 HD
BRANCH  16  18
ATOM     18  N   UNL     1      -1.499  -3.981  -3.492  0.00  0.00    -0.218 N 
ATOM     19  C   UNL     1      -1.312  -3.194  -4.570  0.00  0.00    +0.316 C 
ATOM     20  O   UNL     1      -0.673  -3.606  -5.519  0.00  0.00    -0.251 OA
ATOM     21  N   UNL     1      -1.832  -1.951  -4.596  0.00  0.00    -0.301 N 
ATOM     22  C   UNL     1      -1.628  -1.096  -5.768  0.00  0.00    +0.129 C 
ATOM     23  H   UNL     1      -1.125  -4.875  -3.473  0.00  0.00    +0.174 HD
ATOM     24  H   UNL     1      -2.341  -1.623  -3.839  0.00  0.00    +0.150 HD
ENDBRANCH  16  18
ENDBRANCH   1  14
TORSDOF 4
