REMARK  Name = ZINC36235475
REMARK  10 active torsions:
REMARK  status: ('A' for Active; 'I' for Inactive)
REMARK    1  A    between atoms: C_1  and  N_2
REMARK    2  A    between atoms: N_2  and  C_3
REMARK    3  A    between atoms: N_2  and  C_4
REMARK    4  A    between atoms: C_7  and  C_10
REMARK    5  A    between atoms: C_11  and  C_12
REMARK    6  A    between atoms: C_11  and  N_26
REMARK    7  A    between atoms: N_14  and  N_15
REMARK    8  A    between atoms: C_16  and  C_17
REMARK    9  A    between atoms: C_22  and  O_23
REMARK   10  A    between atoms: C_27  and  C_29
REMARK                            x       y       z     vdW  Elec       q    Type
REMARK                         _______ _______ _______ _____ _____    ______ ____
ROOT
ATOM      1  C   UNL     1      -4.835  -2.917   0.079  0.00  0.00    +0.036 C 
ATOM      2  C   UNL     1      -5.969  -2.179   0.142  0.00  0.00    +0.098 C 
ENDROOT
BRANCH   1   6
ATOM      3  C   UNL     1      -1.053  -1.027   0.416  0.00  0.00    +0.029 A 
ATOM      4  C   UNL     1      -1.158  -2.260  -0.221  0.00  0.00    +0.023 A 
ATOM      5  C   UNL     1      -2.383  -2.877  -0.333  0.00  0.00    +0.010 A 
ATOM      6  C   UNL     1      -3.525  -2.262   0.196  0.00  0.00    -0.023 A 
ATOM      7  C   UNL     1      -3.414  -1.022   0.837  0.00  0.00    +0.010 A 
ATOM      8  C   UNL     1      -2.184  -0.415   0.949  0.00  0.00    +0.023 A 
BRANCH   3  10
ATOM      9  C   UNL     1       0.303   0.889   1.203  0.00  0.00    +0.129 C 
ATOM     10  N   UNL     1       0.189  -0.406   0.527  0.00  0.00    -0.336 N 
ATOM     11  C   UNL     1       1.381  -1.048  -0.032  0.00  0.00    +0.129 C 
ENDBRANCH   3  10
ENDBRANCH   1   6
BRANCH   2  12
ATOM     12  C   UNL     1      -7.276  -2.844   0.189  0.00  0.00    +0.277 C 
ATOM     13  O   UNL     1      -7.339  -4.056   0.282  0.00  0.00    -0.267 OA
ATOM     14  N   UNL     1      -8.407  -2.114   0.128  0.00  0.00    -0.202 N 
ATOM     15  H   UNL     1      -8.358  -1.156  -0.021  0.00  0.00    +0.178 HD
BRANCH  14  16
ATOM     16  N   UNL     1      -9.652  -2.737   0.279  0.00  0.00    -0.187 NA
ATOM     17  C   UNL     1     -10.742  -2.033   0.220  0.00  0.00    +0.142 C 
BRANCH  17  18
ATOM     18  C   UNL     1     -12.052  -2.688   0.379  0.00  0.00    +0.039 A 
ATOM     19  C   UNL     1     -13.227  -1.935   0.311  0.00  0.00    +0.033 A 
ATOM     20  C   UNL     1     -14.451  -2.555   0.461  0.00  0.00    +0.043 A 
ATOM     21  C   UNL     1     -14.520  -3.921   0.678  0.00  0.00    +0.043 A 
ATOM     22  C   UNL     1     -13.363  -4.677   0.748  0.00  0.00    +0.084 A 
ATOM     23  C   UNL     1     -12.126  -4.071   0.594  0.00  0.00    +0.144 A 
ATOM     24 CL   UNL     1     -13.462  -6.388   1.023  0.00  0.00    -0.080 Cl
ATOM     25 CL   UNL     1     -15.910  -1.618   0.376  0.00  0.00    -0.083 Cl
BRANCH  23  26
ATOM     26  O   UNL     1     -10.990  -4.813   0.656  0.00  0.00    -0.505 OA
ATOM     27  H   UNL     1     -10.622  -4.895   1.546  0.00  0.00    +0.292 HD
ENDBRANCH  23  26
ENDBRANCH  17  18
ENDBRANCH  14  16
ENDBRANCH   2  12
BRANCH   2  28
ATOM     28  N   UNL     1      -5.894  -0.782   0.163  0.00  0.00    -0.277 N 
ATOM     29  C   UNL     1      -6.481  -0.090   1.160  0.00  0.00    +0.248 C 
ATOM     30  O   UNL     1      -7.000  -0.682   2.086  0.00  0.00    -0.270 OA
ATOM     31  H   UNL     1      -5.420  -0.311  -0.540  0.00  0.00    +0.155 HD
BRANCH  29  32
ATOM     32  C   UNL     1      -6.492   1.387   1.127  0.00  0.00    +0.037 A 
ATOM     33  C   UNL     1      -5.902   2.070   0.063  0.00  0.00    +0.013 A 
ATOM     34  C   UNL     1      -5.917   3.449   0.038  0.00  0.00    +0.001 A 
ATOM     35  C   UNL     1      -6.515   4.156   1.066  0.00  0.00    +0.000 A 
ATOM     36  C   UNL     1      -7.102   3.486   2.125  0.00  0.00    +0.001 A 
ATOM     37  C   UNL     1      -7.099   2.107   2.159  0.00  0.00    +0.013 A 
ENDBRANCH  29  32
ENDBRANCH   2  28
TORSDOF 8
