REMARK  Name = ZINC08744871
REMARK  10 active torsions:
REMARK  status: ('A' for Active; 'I' for Inactive)
REMARK    1  A    between atoms: C_1  and  C_2
REMARK    2  A    between atoms: C_2  and  N_3
REMARK    3  A    between atoms: C_4  and  C_25
REMARK    4  A    between atoms: C_7  and  S_8
REMARK    5  A    between atoms: S_8  and  C_9
REMARK    6  A    between atoms: C_9  and  C_10
REMARK    7  A    between atoms: N_12  and  C_13
REMARK    8  A    between atoms: C_13  and  C_14
REMARK    9  A    between atoms: C_14  and  C_16
REMARK   10  A    between atoms: C_14  and  N_57
REMARK                            x       y       z     vdW  Elec       q    Type
REMARK                         _______ _______ _______ _____ _____    ______ ____
ROOT
ATOM      1  C   UNL     1      -1.323   1.884  -3.556  0.00  0.00    +0.173 C 
ENDROOT
BRANCH   1   2
ATOM      2  C   UNL     1      -0.457   1.481  -2.390  0.00  0.00    +0.223 C 
ATOM      3  O   UNL     1       0.651   1.027  -2.586  0.00  0.00    -0.275 OA
ATOM      4  N   UNL     1      -0.914   1.623  -1.130  0.00  0.00    -0.316 N 
ATOM      5  H   UNL     1      -1.800   1.986  -0.974  0.00  0.00    +0.149 HD
BRANCH   4   6
ATOM      6  C   UNL     1      -0.073   1.231   0.003  0.00  0.00    +0.096 C 
BRANCH   6   7
ATOM      7  C   UNL     1      -0.773   1.603   1.311  0.00  0.00    +0.016 C 
BRANCH   7  12
ATOM      8  C   UNL     1       1.379   2.110   2.330  0.00  0.00    -0.078 C 
ATOM      9  C   UNL     1       1.924   2.115   3.781  0.00  0.00    -0.020 C 
ATOM     10  C   UNL     1       0.639   2.238   4.632  0.00  0.00    -0.020 C 
ATOM     11  C   UNL     1      -0.496   1.737   3.721  0.00  0.00    -0.078 C 
ATOM     12  N   UNL     1       0.137   1.333   2.465  0.00  0.00    +0.387 N 
ATOM     13  H   UNL     1       0.356   0.331   2.493  0.00  0.00    -0.081 HD
ENDBRANCH   7  12
BRANCH   7  14
ATOM     14  C   UNL     1      -2.032   0.788   1.456  0.00  0.00    +0.093 A 
ATOM     15  C   UNL     1      -3.280   1.212   1.183  0.00  0.00    +0.043 A 
ATOM     16  C   UNL     1      -4.149   0.131   1.459  0.00  0.00    +0.041 A 
ATOM     17  C   UNL     1      -3.381  -0.888   1.883  0.00  0.00    +0.195 A 
ATOM     18  O   UNL     1      -2.099  -0.486   1.874  0.00  0.00    -0.469 OA
ENDBRANCH   7  14
ENDBRANCH   6   7
ENDBRANCH   4   6
ENDBRANCH   1   2
BRANCH   1  19
ATOM     19  S   UNL     1      -0.435   1.573  -5.103  0.00  0.00    -0.077 S 
BRANCH  19  24
ATOM     20  N   UNL     1      -1.518   2.118  -7.624  0.00  0.00    -0.302 N 
ATOM     21  C   UNL     1      -2.702   2.627  -8.106  0.00  0.00    +0.166 A 
ATOM     22  N   UNL     1      -3.455   2.901  -7.066  0.00  0.00    -0.128 NA
ATOM     23  N   UNL     1      -2.834   2.598  -5.982  0.00  0.00    -0.122 NA
ATOM     24  C   UNL     1      -1.643   2.119  -6.263  0.00  0.00    +0.192 A 
BRANCH  21  25
ATOM     25  C   UNL     1      -3.058   2.829  -9.526  0.00  0.00    +0.038 A 
ATOM     26  C   UNL     1      -2.167   3.470 -10.388  0.00  0.00    +0.014 A 
ATOM     27  C   UNL     1      -2.503   3.651 -11.713  0.00  0.00    +0.021 A 
ATOM     28  C   UNL     1      -3.726   3.207 -12.188  0.00  0.00    +0.042 A 
ATOM     29  C   UNL     1      -4.617   2.574 -11.338  0.00  0.00    +0.040 A 
ATOM     30  C   UNL     1      -4.290   2.383 -10.010  0.00  0.00    +0.053 A 
ATOM     31 CL   UNL     1      -5.409   1.591  -8.944  0.00  0.00    -0.083 Cl
ATOM     32 CL   UNL     1      -4.143   3.444 -13.856  0.00  0.00    -0.083 Cl
ENDBRANCH  21  25
BRANCH  20  34
ATOM     33  C   UNL     1      -0.574   0.215  -8.835  0.00  0.00    +0.027 C 
ATOM     34  C   UNL     1      -0.364   1.668  -8.406  0.00  0.00    +0.122 C 
ENDBRANCH  20  34
ENDBRANCH  19  24
ENDBRANCH   1  19
TORSDOF 9
