REMARK  Name = ZINC09264259
REMARK  5 active torsions:
REMARK  status: ('A' for Active; 'I' for Inactive)
REMARK    1  A    between atoms: C_1  and  O_2
REMARK    2  A    between atoms: O_2  and  C_3
REMARK    3  A    between atoms: C_6  and  C_9
REMARK    4  A    between atoms: C_21  and  C_23
REMARK    5  A    between atoms: C_32  and  C_35
REMARK                            x       y       z     vdW  Elec       q    Type
REMARK                         _______ _______ _______ _____ _____    ______ ____
ROOT
ATOM      1  C   UNL     1       3.831   0.868  -2.017  0.00  0.00    +0.252 C 
ATOM      2  O   UNL     1       3.493  -0.297  -2.106  0.00  0.00    -0.270 OA
ATOM      3  N   UNL     1       3.337   1.640  -1.029  0.00  0.00    -0.254 N 
ATOM      4  C   UNL     1       3.632   2.998  -1.014  0.00  0.00    +0.059 A 
ATOM      5  C   UNL     1       3.145   3.854  -1.990  0.00  0.00    +0.025 A 
ATOM      6  C   UNL     1       3.394   5.212  -1.891  0.00  0.00    +0.002 A 
ATOM      7  C   UNL     1       4.125   5.715  -0.830  0.00  0.00    +0.002 A 
ATOM      8  C   UNL     1       4.633   4.861   0.134  0.00  0.00    +0.025 A 
ATOM      9  C   UNL     1       4.400   3.501   0.025  0.00  0.00    +0.053 A 
ATOM     10  N   UNL     1       4.923   2.581   0.927  0.00  0.00    -0.316 N 
ATOM     11  C   UNL     1       4.184   1.796   1.754  0.00  0.00    +0.017 C 
ATOM     12  C   UNL     1       3.106   1.087   1.383  0.00  0.00    +0.037 C 
ATOM     13  C   UNL     1       2.508   1.043  -0.004  0.00  0.00    +0.147 C 
ATOM     14  C   UNL     1       2.419   0.286   2.326  0.00  0.00    +0.163 C 
ATOM     15  O   UNL     1       1.459  -0.363   1.957  0.00  0.00    -0.292 OA
ATOM     16  C   UNL     1       2.833   0.212   3.765  0.00  0.00    +0.091 C 
ATOM     17  C   UNL     1       3.509   1.536   4.144  0.00  0.00    +0.068 C 
ATOM     18  C   UNL     1       4.682   1.748   3.189  0.00  0.00    +0.063 C 
ATOM     19  H   UNL     1       5.888   2.492   0.968  0.00  0.00    +0.152 HD
ENDROOT
BRANCH   1  23
ATOM     20  C   UNL     1       6.566   2.502  -4.824  0.00  0.00    +0.120 A 
ATOM     21  C   UNL     1       6.595   2.926  -3.501  0.00  0.00    +0.046 A 
ATOM     22  C   UNL     1       5.709   2.399  -2.588  0.00  0.00    +0.016 A 
ATOM     23  C   UNL     1       4.781   1.436  -2.993  0.00  0.00    +0.037 A 
ATOM     24  C   UNL     1       4.759   1.009  -4.323  0.00  0.00    +0.016 A 
ATOM     25  C   UNL     1       5.644   1.545  -5.231  0.00  0.00    +0.046 A 
BRANCH  20  27
ATOM     26  C   UNL     1       7.356   2.545  -7.065  0.00  0.00    +0.277 C 
ATOM     27  O   UNL     1       7.440   3.025  -5.721  0.00  0.00    -0.495 OA
ENDBRANCH  20  27
ENDBRANCH   1  23
BRANCH  13  28
ATOM     28  C   UNL     1       1.186   1.766   0.023  0.00  0.00    -0.022 A 
ATOM     29  C   UNL     1       1.122   3.073   0.468  0.00  0.00    +0.006 A 
ATOM     30  C   UNL     1      -0.091   3.734   0.498  0.00  0.00    +0.000 A 
ATOM     31  C   UNL     1      -1.239   3.092   0.072  0.00  0.00    +0.000 A 
ATOM     32  C   UNL     1      -1.175   1.785  -0.373  0.00  0.00    +0.000 A 
ATOM     33  C   UNL     1       0.038   1.122  -0.398  0.00  0.00    +0.006 A 
ENDBRANCH  13  28
BRANCH  17  34
ATOM     34  C   UNL     1       4.012   1.465   5.563  0.00  0.00    +0.109 A 
ATOM     35  C   UNL     1       3.636   2.271   6.572  0.00  0.00    +0.045 A 
ATOM     36  C   UNL     1       4.351   1.853   7.718  0.00  0.00    +0.041 A 
ATOM     37  C   UNL     1       5.120   0.817   7.341  0.00  0.00    +0.195 A 
ATOM     38  O   UNL     1       4.907   0.582   6.036  0.00  0.00    -0.468 OA
ENDBRANCH  17  34
TORSDOF 4
