REMARK  Name = ZINC15830001
REMARK  6 active torsions:
REMARK  status: ('A' for Active; 'I' for Inactive)
REMARK    1  A    between atoms: C_1  and  C_2
REMARK    2  A    between atoms: C_5  and  C_8
REMARK    3  A    between atoms: C_10  and  O_21
REMARK    4  A    between atoms: O_21  and  C_22
REMARK    5  A    between atoms: C_22  and  C_23
REMARK    6  A    between atoms: N_25  and  C_26
REMARK                            x       y       z     vdW  Elec       q    Type
REMARK                         _______ _______ _______ _____ _____    ______ ____
ROOT
ATOM      1  C   UNL     1       2.730   5.837  -1.000  0.00  0.00    +0.165 A 
ATOM      2  N   UNL     1       1.427   5.599  -1.073  0.00  0.00    -0.193 NA
ATOM      3  C   UNL     1       0.869   4.433  -0.770  0.00  0.00    +0.227 A 
ATOM      4  C   UNL     1       1.760   3.406  -0.347  0.00  0.00    +0.073 A 
ATOM      5  C   UNL     1       1.413   2.049   0.039  0.00  0.00    -0.023 A 
ATOM      6  C   UNL     1       2.434   1.241   0.407  0.00  0.00    -0.004 A 
ATOM      7  S   UNL     1       3.895   2.238   0.260  0.00  0.00    -0.073 S 
ATOM      8  C   UNL     1       3.141   3.733  -0.294  0.00  0.00    +0.116 A 
ATOM      9  N   UNL     1       3.617   4.918  -0.612  0.00  0.00    -0.220 NA
ATOM     10  C   UNL     1       2.347  -0.189   0.844  0.00  0.00    +0.043 C 
ATOM     11  C   UNL     1       0.881  -0.509   1.172  0.00  0.00    +0.005 C 
ATOM     12  C   UNL     1       0.001   0.003   0.028  0.00  0.00    +0.005 C 
ATOM     13  C   UNL     1      -0.024   1.531   0.037  0.00  0.00    +0.037 C 
ENDROOT
BRANCH   1  18
ATOM     14  C   UNL     1       4.647  11.077  -2.424  0.00  0.00    +0.044 C 
ATOM     15  C   UNL     1       4.146   9.705  -2.051  0.00  0.00    -0.050 A 
ATOM     16  C   UNL     1       2.792   9.426  -2.117  0.00  0.00    +0.004 A 
ATOM     17  C   UNL     1       2.327   8.172  -1.777  0.00  0.00    +0.012 A 
ATOM     18  C   UNL     1       3.224   7.186  -1.367  0.00  0.00    +0.019 A 
ATOM     19  C   UNL     1       4.586   7.475  -1.298  0.00  0.00    +0.012 A 
ATOM     20  C   UNL     1       5.040   8.731  -1.645  0.00  0.00    +0.004 A 
ENDBRANCH   1  18
BRANCH   3  21
ATOM     21  O   UNL     1      -0.468   4.232  -0.857  0.00  0.00    -0.466 OA
BRANCH  21  22
ATOM     22  C   UNL     1      -1.263   5.337  -1.293  0.00  0.00    +0.326 C 
BRANCH  22  23
ATOM     23  C   UNL     1      -2.713   4.929  -1.328  0.00  0.00    +0.255 C 
ATOM     24  O   UNL     1      -3.034   3.804  -1.011  0.00  0.00    -0.272 OA
ATOM     25  N   UNL     1      -3.653   5.816  -1.712  0.00  0.00    -0.280 N 
ATOM     26  H   UNL     1      -3.405   6.734  -1.903  0.00  0.00    +0.155 HD
BRANCH  25  27
ATOM     27  C   UNL     1      -4.988   5.412  -1.834  0.00  0.00    +0.069 A 
ATOM     28  C   UNL     1      -5.510   4.462  -0.967  0.00  0.00    +0.026 A 
ATOM     29  C   UNL     1      -6.829   4.069  -1.086  0.00  0.00    +0.002 A 
ATOM     30  C   UNL     1      -7.628   4.612  -2.075  0.00  0.00    +0.003 A 
ATOM     31  C   UNL     1      -7.111   5.555  -2.945  0.00  0.00    +0.040 A 
ATOM     32  C   UNL     1      -5.793   5.957  -2.828  0.00  0.00    +0.144 A 
ATOM     33  F   UNL     1      -5.288   6.877  -3.678  0.00  0.00    -0.204 F 
ENDBRANCH  25  27
ENDBRANCH  22  23
ENDBRANCH  21  22
ENDBRANCH   3  21
TORSDOF 5
