REMARK  Name = ZINC31944383
REMARK  4 active torsions:
REMARK  status: ('A' for Active; 'I' for Inactive)
REMARK    1  A    between atoms: C_3  and  C_23
REMARK    2  A    between atoms: C_6  and  C_7
REMARK    3  A    between atoms: C_7  and  S_8
REMARK    4  A    between atoms: S_8  and  C_9
REMARK                            x       y       z     vdW  Elec       q    Type
REMARK                         _______ _______ _______ _____ _____    ______ ____
ROOT
ATOM      1  C   UNL     1       3.804   3.055  -0.019  0.00  0.00    +0.170 A 
ATOM      2  N   UNL     1       4.416   1.836  -0.031  0.00  0.00    -0.301 N 
ATOM      3  H   UNL     1       5.514   1.771  -0.042  0.00  0.00    +0.171 HD
ATOM      4  C   UNL     1       3.700   0.696  -0.030  0.00  0.00    +0.261 A 
ATOM      5  O   UNL     1       4.260  -0.387  -0.040  0.00  0.00    -0.267 OA
ATOM      6  C   UNL     1       2.272   0.775  -0.016  0.00  0.00    +0.075 A 
ATOM      7  C   UNL     1       1.303  -0.334  -0.013  0.00  0.00    -0.023 A 
ATOM      8  C   UNL     1       0.002  -0.004   0.002  0.00  0.00    -0.004 A 
ATOM      9  S   UNL     1      -0.022   1.774   0.012  0.00  0.00    -0.073 S 
ATOM     10  C   UNL     1       1.727   2.067  -0.003  0.00  0.00    +0.117 A 
ATOM     11  N   UNL     1       2.489   3.155  -0.006  0.00  0.00    -0.216 NA
ATOM     12  C   UNL     1      -0.892  -1.215   0.007  0.00  0.00    +0.043 C 
ATOM     13  C   UNL     1       0.034  -2.377   0.430  0.00  0.00    +0.010 C 
ATOM     14  C   UNL     1       1.413  -1.862  -0.026  0.00  0.00    +0.037 C 
ENDROOT
BRANCH   1  15
ATOM     15  S   UNL     1       4.785   4.519  -0.021  0.00  0.00    -0.083 S 
BRANCH  15  16
ATOM     16  C   UNL     1       3.479   5.773  -0.002  0.00  0.00    +0.112 C 
BRANCH  16  22
ATOM     17  C   UNL     1       4.391   7.769   1.199  0.00  0.00    +0.006 A 
ATOM     18  C   UNL     1       4.964   9.024   1.207  0.00  0.00    +0.019 A 
ATOM     19  C   UNL     1       5.243   9.668   0.001  0.00  0.00    +0.052 A 
ATOM     20  C   UNL     1       4.942   9.035  -1.207  0.00  0.00    +0.019 A 
ATOM     21  C   UNL     1       4.373   7.779  -1.201  0.00  0.00    +0.006 A 
ATOM     22  C   UNL     1       4.101   7.146  -0.001  0.00  0.00    -0.037 A 
BRANCH  19  23
ATOM     23  C   UNL     1       5.834  10.973   0.001  0.00  0.00    +0.099 C 
ATOM     24  N   UNL     1       6.303  12.007   0.002  0.00  0.00    -0.191 NA
ENDBRANCH  19  23
ENDBRANCH  16  22
ENDBRANCH  15  16
ENDBRANCH   1  15
TORSDOF 4
