REMARK  Name = ZINC33306551
REMARK  9 active torsions:
REMARK  status: ('A' for Active; 'I' for Inactive)
REMARK    1  A    between atoms: C_1  and  C_2
REMARK    2  A    between atoms: C_2  and  C_3
REMARK    3  A    between atoms: N_5  and  C_6
REMARK    4  A    between atoms: C_7  and  C_33
REMARK    5  A    between atoms: C_10  and  C_11
REMARK    6  A    between atoms: C_12  and  C_13
REMARK    7  A    between atoms: C_16  and  S_18
REMARK    8  A    between atoms: S_18  and  N_21
REMARK    9  A    between atoms: N_21  and  C_22
REMARK                            x       y       z     vdW  Elec       q    Type
REMARK                         _______ _______ _______ _____ _____    ______ ____
ROOT
ATOM      1  C   UNL     1       0.772   1.835   2.345  0.00  0.00    +0.014 A 
ATOM      2  C   UNL     1       2.070   1.355   2.434  0.00  0.00    +0.017 A 
ATOM      3  C   UNL     1       3.105   2.258   2.379  0.00  0.00    +0.037 A 
ATOM      4  C   UNL     1       2.827   3.581   2.241  0.00  0.00    +0.143 A 
ATOM      5  S   UNL     1       1.043   3.591   2.175  0.00  0.00    -0.069 S 
ENDROOT
BRANCH   4   6
ATOM      6  S   UNL     1       3.944   4.941   2.144  0.00  0.00    +0.065 S 
ATOM      7  O   UNL     1       3.191   6.107   2.446  0.00  0.00    -0.153 OA
ATOM      8  O   UNL     1       5.101   4.569   2.881  0.00  0.00    -0.153 OA
BRANCH   6   9
ATOM      9  N   UNL     1       4.413   5.077   0.562  0.00  0.00    -0.182 NA
ATOM     10  H   UNL     1       5.431   4.773   0.276  0.00  0.00    +0.149 HD
BRANCH   9  11
ATOM     11  C   UNL     1       3.423   5.387  -0.472  0.00  0.00    +0.107 C 
ATOM     12  C   UNL     1       3.417   6.892  -0.729  0.00  0.00    +0.025 C 
ATOM     13  C   UNL     1       2.541   7.171  -1.955  0.00  0.00    +0.007 C 
ATOM     14  C   UNL     1       3.260   6.637  -3.192  0.00  0.00    +0.035 C 
ATOM     15  C   UNL     1       3.687   5.208  -2.981  0.00  0.00    -0.043 A 
ATOM     16  C   UNL     1       3.769   4.636  -1.731  0.00  0.00    -0.026 A 
ATOM     17  C   UNL     1       4.183   3.317  -1.605  0.00  0.00    +0.005 A 
ATOM     18  C   UNL     1       4.508   2.574  -2.721  0.00  0.00    +0.000 A 
ATOM     19  C   UNL     1       4.421   3.146  -3.976  0.00  0.00    +0.000 A 
ATOM     20  C   UNL     1       4.012   4.458  -4.104  0.00  0.00    +0.004 A 
ENDBRANCH   9  11
ENDBRANCH   6   9
ENDBRANCH   4   6
BRANCH   1  22
ATOM     21  C   UNL     1      -1.664   1.756   2.268  0.00  0.00    +0.052 C 
ATOM     22  C   UNL     1      -0.489   1.095   2.376  0.00  0.00    +0.019 C 
BRANCH  21  27
ATOM     23  C   UNL     1      -4.194   1.556   2.198  0.00  0.00    +0.103 A 
ATOM     24  C   UNL     1      -5.113   0.495   2.263  0.00  0.00    +0.102 A 
ATOM     25  N   UNL     1      -4.448  -0.619   2.396  0.00  0.00    -0.081 NA
ATOM     26  O   UNL     1      -3.064  -0.321   2.418  0.00  0.00    -0.353 OA
ATOM     27  C   UNL     1      -2.924   1.016   2.293  0.00  0.00    +0.182 A 
ATOM     28  C   UNL     1      -6.613   0.623   2.195  0.00  0.00    +0.071 C 
BRANCH  23  31
ATOM     29  C   UNL     1      -5.621   3.413   2.635  0.00  0.00    +0.217 C 
ATOM     30  O   UNL     1      -6.320   2.698   3.322  0.00  0.00    -0.275 OA
ATOM     31  N   UNL     1      -4.508   2.917   2.060  0.00  0.00    -0.281 N 
ATOM     32  H   UNL     1      -3.845   3.578   1.483  0.00  0.00    +0.155 HD
BRANCH  29  34
ATOM     33  C   UNL     1      -7.293   5.161   3.179  0.00  0.00    +0.013 C 
ATOM     34  C   UNL     1      -5.998   4.857   2.424  0.00  0.00    +0.093 C 
ENDBRANCH  29  34
ENDBRANCH  23  31
ENDBRANCH  21  27
ENDBRANCH   1  22
TORSDOF 7
