REMARK  Name = ZINC10100386
REMARK  14 active torsions:
REMARK  status: ('A' for Active; 'I' for Inactive)
REMARK    1  A    between atoms: C_1  and  C_2
REMARK    2  A    between atoms: C_7  and  C_8
REMARK    3  A    between atoms: N_12  and  C_13
REMARK    4  A    between atoms: C_13  and  C_14
REMARK    5  A    between atoms: C_14  and  N_65
REMARK    6  A    between atoms: C_15  and  N_65
REMARK    7  A    between atoms: C_16  and  N_65
REMARK    8  A    between atoms: C_17  and  C_19
REMARK    9  A    between atoms: C_22  and  S_25
REMARK   10  A    between atoms: S_25  and  N_28
REMARK   11  A    between atoms: N_28  and  C_29
REMARK   12  A    between atoms: N_28  and  C_30
REMARK   13  A    between atoms: C_30  and  C_31
REMARK   14  A    between atoms: C_30  and  C_32
REMARK                            x       y       z     vdW  Elec       q    Type
REMARK                         _______ _______ _______ _____ _____    ______ ____
ROOT
ATOM      1  C   UNL     1      -7.265   3.285  11.238  0.00  0.00    +0.044 C 
ATOM      2  C   UNL     1      -6.437   4.180  10.354  0.00  0.00    -0.045 A 
ATOM      3  C   UNL     1      -6.274   5.514  10.702  0.00  0.00    +0.005 A 
ATOM      4  C   UNL     1      -5.514   6.337   9.892  0.00  0.00    +0.017 A 
ATOM      5  C   UNL     1      -4.933   5.824   8.759  0.00  0.00    +0.041 A 
ATOM      6  C   UNL     1      -5.077   4.472   8.373  0.00  0.00    +0.083 A 
ATOM      7  C   UNL     1      -5.861   3.659   9.225  0.00  0.00    -0.021 A 
ATOM      8  C   UNL     1      -6.066   2.205   8.887  0.00  0.00    +0.046 C 
ATOM      9  N   UNL     1      -4.450   4.119   7.230  0.00  0.00    -0.224 NA
ATOM     10  C   UNL     1      -3.742   4.969   6.523  0.00  0.00    +0.168 A 
ATOM     11  S   UNL     1      -3.909   6.480   7.463  0.00  0.00    -0.052 S 
ATOM     12  N   UNL     1      -3.046   4.752   5.346  0.00  0.00    -0.248 N 
ATOM     13  C   UNL     1      -3.040   3.527   4.783  0.00  0.00    +0.252 C 
ATOM     14  O   UNL     1      -3.739   2.644   5.241  0.00  0.00    -0.270 OA
ENDROOT
BRANCH  13  15
ATOM     15  C   UNL     1      -2.184   3.257   3.609  0.00  0.00    +0.037 A 
ATOM     16  C   UNL     1      -1.666   1.978   3.398  0.00  0.00    +0.015 A 
ATOM     17  C   UNL     1      -0.867   1.734   2.300  0.00  0.00    +0.029 A 
ATOM     18  C   UNL     1      -0.579   2.752   1.410  0.00  0.00    +0.106 A 
ATOM     19  C   UNL     1      -1.084   4.024   1.616  0.00  0.00    +0.029 A 
ATOM     20  C   UNL     1      -1.889   4.281   2.707  0.00  0.00    +0.015 A 
BRANCH  18  21
ATOM     21  S   UNL     1       0.443   2.431   0.010  0.00  0.00    +0.061 S 
ATOM     22  O   UNL     1       1.239   1.301   0.340  0.00  0.00    -0.153 OA
ATOM     23  O   UNL     1       1.009   3.677  -0.374  0.00  0.00    -0.153 OA
BRANCH  21  24
ATOM     24  N   UNL     1      -0.554   1.963  -1.226  0.00  0.00    -0.177 NA
ATOM     25  C   UNL     1      -0.878   0.546  -1.410  0.00  0.00    +0.132 C 
BRANCH  24  26
ATOM     26  C   UNL     1      -1.113   2.966  -2.137  0.00  0.00    +0.073 C 
ATOM     27  C   UNL     1      -0.659   2.665  -3.567  0.00  0.00    +0.025 C 
ATOM     28  C   UNL     1      -2.640   2.924  -2.067  0.00  0.00    +0.025 C 
ENDBRANCH  24  26
ENDBRANCH  21  24
ENDBRANCH  18  21
ENDBRANCH  13  15
BRANCH  12  29
ATOM     29  C   UNL     1      -2.318   5.853   4.711  0.00  0.00    +0.097 C 
BRANCH  29  30
ATOM     30  C   UNL     1      -3.295   6.719   3.914  0.00  0.00    -0.060 C 
BRANCH  30  33
ATOM     31  C   UNL     1      -3.418   8.535   2.318  0.00  0.00    -0.097 C 
ATOM     32  C   UNL     1      -2.022   8.745   4.285  0.00  0.00    -0.097 C 
ATOM     33  N   UNL     1      -2.542   7.812   3.264  0.00  0.00    +0.377 N 
ATOM     34  H   UNL     1      -1.752   7.410   2.745  0.00  0.00    -0.083 HD
ENDBRANCH  30  33
ENDBRANCH  29  30
ENDBRANCH  12  29
TORSDOF 7
