REMARK  Name = ZINC63502970
REMARK  9 active torsions:
REMARK  status: ('A' for Active; 'I' for Inactive)
REMARK    1  A    between atoms: C_1  and  C_2
REMARK    2  A    between atoms: C_2  and  C_3
REMARK    3  A    between atoms: C_14  and  C_34
REMARK    4  A    between atoms: N_16  and  C_19
REMARK    5  A    between atoms: C_19  and  C_20
REMARK    6  A    between atoms: N_22  and  C_23
REMARK    7  A    between atoms: C_23  and  C_24
REMARK    8  A    between atoms: C_24  and  C_25
REMARK    9  A    between atoms: C_34  and  C_35
REMARK                            x       y       z     vdW  Elec       q    Type
REMARK                         _______ _______ _______ _____ _____    ______ ____
ROOT
ATOM      1  C   UNL     1      -1.412  -0.526   0.013  0.00  0.00    -0.017 C 
ATOM      2  C   UNL     1      -2.157  -0.896  -1.046  0.00  0.00    +0.007 C 
ATOM      3  C   UNL     1      -3.489  -1.480  -0.742  0.00  0.00    +0.112 C 
ATOM      4  C   UNL     1      -4.023  -0.691   0.538  0.00  0.00    +0.078 C 
ATOM      5  S   UNL     1      -2.471  -0.797   1.446  0.00  0.00    -0.124 S 
ATOM      6  C   UNL     1      -5.270  -1.456   0.789  0.00  0.00    +0.048 C 
ATOM      7  C   UNL     1      -5.808  -1.605  -0.666  0.00  0.00    +0.164 C 
ATOM      8  N   UNL     1      -4.667  -1.300  -1.559  0.00  0.00    -0.298 N 
ATOM      9  C   UNL     1      -4.860  -0.893  -2.857  0.00  0.00    +0.117 C 
ATOM     10  N   UNL     1      -5.963  -0.248  -3.117  0.00  0.00    -0.166 NA
ATOM     11  N   UNL     1      -6.888   0.039  -2.109  0.00  0.00    -0.181 N 
ATOM     12  C   UNL     1      -6.883  -0.601  -0.954  0.00  0.00    +0.256 C 
ATOM     13  O   UNL     1      -7.728  -0.347  -0.121  0.00  0.00    -0.272 OA
ENDROOT
BRANCH   1  15
ATOM     14  C   UNL     1      -0.019   1.526   0.010  0.00  0.00    +0.009 C 
ATOM     15  C   UNL     1       0.002  -0.004   0.002  0.00  0.00    +0.038 C 
ENDBRANCH   1  15
BRANCH   9  16
ATOM     16  C   UNL     1      -3.843  -1.178  -3.932  0.00  0.00    +0.070 C 
ATOM     17  C   UNL     1      -4.334  -0.606  -5.263  0.00  0.00    +0.012 C 
ENDBRANCH   9  16
BRANCH  11  18
ATOM     18  C   UNL     1      -7.911   1.057  -2.358  0.00  0.00    +0.230 C 
BRANCH  18  19
ATOM     19  C   UNL     1      -7.392   2.406  -1.930  0.00  0.00    +0.232 C 
ATOM     20  O   UNL     1      -6.278   2.506  -1.463  0.00  0.00    -0.274 OA
ATOM     21  N   UNL     1      -8.167   3.500  -2.066  0.00  0.00    -0.314 N 
ATOM     22  H   UNL     1      -9.059   3.420  -2.440  0.00  0.00    +0.149 HD
BRANCH  21  23
ATOM     23  C   UNL     1      -7.663   4.811  -1.650  0.00  0.00    +0.108 C 
BRANCH  23  24
ATOM     24  C   UNL     1      -8.732   5.875  -1.910  0.00  0.00    +0.052 C 
BRANCH  24  25
ATOM     25  C   UNL     1      -8.213   7.223  -1.482  0.00  0.00    -0.040 C 
ATOM     26  C   UNL     1      -7.620   8.152  -2.266  0.00  0.00    -0.001 A 
ATOM     27  C   UNL     1      -7.292   8.184  -3.696  0.00  0.00    +0.010 A 
ATOM     28  C   UNL     1      -6.683   9.279  -4.205  0.00  0.00    +0.001 A 
ATOM     29  C   UNL     1      -6.358  10.382  -3.403  0.00  0.00    +0.002 A 
ATOM     30  C   UNL     1      -6.627  10.426  -2.081  0.00  0.00    +0.026 A 
ATOM     31  C   UNL     1      -7.266   9.329  -1.440  0.00  0.00    +0.043 A 
ATOM     32  N   UNL     1      -7.627   9.135  -0.195  0.00  0.00    -0.380 N 
ATOM     33  C   UNL     1      -8.256   7.814  -0.090  0.00  0.00    +0.144 C 
ATOM     34  H   UNL     1      -7.502   9.762   0.535  0.00  0.00    +0.160 HD
ENDBRANCH  24  25
ENDBRANCH  23  24
ENDBRANCH  21  23
ENDBRANCH  18  19
ENDBRANCH  11  18
TORSDOF 7
