REMARK  Name = ZINC40685255
REMARK  6 active torsions:
REMARK  status: ('A' for Active; 'I' for Inactive)
REMARK    1  A    between atoms: C_1  and  C_2
REMARK    2  A    between atoms: C_2  and  N_3
REMARK    3  A    between atoms: N_3  and  C_4
REMARK    4  A    between atoms: C_15  and  N_28
REMARK    5  A    between atoms: C_16  and  N_20
REMARK    6  A    between atoms: C_25  and  C_27
REMARK                            x       y       z     vdW  Elec       q    Type
REMARK                         _______ _______ _______ _____ _____    ______ ____
ROOT
ATOM      1  N   UNL     1       0.721  -0.426   1.229  0.00  0.00    -0.283 N 
ATOM      2  C   UNL     1       2.085  -0.636   1.061  0.00  0.00    +0.151 A 
ATOM      3  C   UNL     1       2.711  -0.308  -0.143  0.00  0.00    +0.104 A 
ATOM      4  C   UNL     1       4.083  -0.540  -0.258  0.00  0.00    +0.127 A 
ATOM      5  N   UNL     1       4.737  -1.060   0.778  0.00  0.00    -0.333 N 
ATOM      6  C   UNL     1       4.109  -1.356   1.897  0.00  0.00    +0.200 A 
ATOM      7  N   UNL     1       2.816  -1.149   2.049  0.00  0.00    -0.220 NA
ATOM      8  H   UNL     1       5.691  -1.225   0.707  0.00  0.00    +0.168 HD
ENDROOT
BRANCH   1   9
ATOM      9  C   UNL     1      -0.178  -1.465   0.997  0.00  0.00    +0.043 A 
ATOM     10  C   UNL     1      -0.711  -1.656  -0.261  0.00  0.00    +0.024 A 
ATOM     11  C   UNL     1      -1.610  -2.691  -0.502  0.00  0.00    +0.002 A 
ATOM     12  C   UNL     1      -1.987  -3.541   0.492  0.00  0.00    +0.008 A 
ATOM     13  C   UNL     1      -1.467  -3.381   1.787  0.00  0.00    -0.016 A 
ATOM     14  C   UNL     1      -0.547  -2.336   2.045  0.00  0.00    +0.003 A 
ATOM     15  C   UNL     1      -0.024  -2.180   3.338  0.00  0.00    +0.010 A 
ATOM     16  C   UNL     1      -0.402  -3.038   4.326  0.00  0.00    +0.001 A 
ATOM     17  C   UNL     1      -1.303  -4.071   4.072  0.00  0.00    +0.001 A 
ATOM     18  C   UNL     1      -1.839  -4.244   2.833  0.00  0.00    +0.008 A 
ENDBRANCH   1   9
BRANCH   4  19
ATOM     19  N   UNL     1       4.755  -0.232  -1.436  0.00  0.00    -0.284 N 
ATOM     20  C   UNL     1       6.141  -0.336  -1.493  0.00  0.00    +0.124 A 
ATOM     21  C   UNL     1       6.817   0.077  -2.637  0.00  0.00    +0.044 A 
ATOM     22  C   UNL     1       8.195  -0.032  -2.681  0.00  0.00    +0.005 A 
ATOM     23  C   UNL     1       8.854  -0.553  -1.575  0.00  0.00    +0.023 A 
ATOM     24  C   UNL     1       8.120  -0.943  -0.473  0.00  0.00    +0.040 A 
ATOM     25  N   UNL     1       6.806  -0.822  -0.457  0.00  0.00    -0.237 NA
ATOM     26  C   UNL     1       8.829  -1.509   0.731  0.00  0.00    +0.065 C 
ATOM     27  H   UNL     1       4.258   0.056  -2.217  0.00  0.00    +0.155 HD
ENDBRANCH   4  19
BRANCH   3  28
ATOM     28  N   UNL     1       1.980   0.239  -1.210  0.00  0.00    -0.353 N 
ATOM     29  H   UNL     1       1.044   0.462  -1.092  0.00  0.00    +0.143 HD
ATOM     30  H   UNL     1       2.412   0.393  -2.064  0.00  0.00    +0.143 HD
ENDBRANCH   3  28
BRANCH   1  32
ATOM     31  C   UNL     1       0.050   0.904   3.168  0.00  0.00    +0.025 C 
ATOM     32  C   UNL     1       0.229   0.888   1.649  0.00  0.00    +0.109 C 
ENDBRANCH   1  32
TORSDOF 4
