REMARK  Name = ZINC64057440
REMARK  9 active torsions:
REMARK  status: ('A' for Active; 'I' for Inactive)
REMARK    1  A    between atoms: C_1  and  C_2
REMARK    2  A    between atoms: C_2  and  C_3
REMARK    3  A    between atoms: C_2  and  C_4
REMARK    4  A    between atoms: C_2  and  C_5
REMARK    5  A    between atoms: C_8  and  C_11
REMARK    6  A    between atoms: N_13  and  C_14
REMARK    7  A    between atoms: C_14  and  C_15
REMARK    8  A    between atoms: C_15  and  C_16
REMARK    9  A    between atoms: C_21  and  C_24
REMARK                            x       y       z     vdW  Elec       q    Type
REMARK                         _______ _______ _______ _____ _____    ______ ____
ROOT
ATOM      1  C   UNL     1       6.817  -2.065  -7.582  0.00  0.00    +0.217 C 
ATOM      2  O   UNL     1       6.400  -2.887  -8.370  0.00  0.00    -0.276 OA
ATOM      3  N   UNL     1       8.092  -1.637  -7.666  0.00  0.00    -0.297 N 
ATOM      4  C   UNL     1       9.002  -2.144  -8.708  0.00  0.00    +0.113 C 
ATOM      5  C   UNL     1       9.409  -0.965  -9.595  0.00  0.00    +0.054 C 
ATOM      6  C   UNL     1       9.788   0.217  -8.753  0.00  0.00    -0.043 C 
ATOM      7  C   UNL     1       9.439   0.369  -7.481  0.00  0.00    -0.004 C 
ATOM      8  C   UNL     1       8.628  -0.642  -6.726  0.00  0.00    +0.135 C 
ENDROOT
BRANCH   6   9
ATOM      9  C   UNL     1      10.562   1.232  -9.350  0.00  0.00    -0.015 C 
ATOM     10  C   UNL     1      10.935   1.329 -10.686  0.00  0.00    +0.022 A 
ATOM     11  C   UNL     1      10.687   0.512 -11.812  0.00  0.00    +0.013 A 
ATOM     12  C   UNL     1      11.206   0.894 -13.014  0.00  0.00    +0.020 A 
ATOM     13  C   UNL     1      11.962   2.061 -13.121  0.00  0.00    +0.113 A 
ATOM     14  N   UNL     1      12.210   2.838 -12.098  0.00  0.00    -0.238 NA
ATOM     15  C   UNL     1      11.742   2.550 -10.865  0.00  0.00    +0.135 A 
ATOM     16  N   UNL     1      11.871   3.184  -9.720  0.00  0.00    -0.365 N 
ATOM     17  C   UNL     1      11.157   2.447  -8.674  0.00  0.00    +0.150 C 
ATOM     18  H   UNL     1      12.360   4.012  -9.590  0.00  0.00    +0.161 HD
ENDBRANCH   6   9
BRANCH   1  19
ATOM     19  C   UNL     1       5.910  -1.522  -6.508  0.00  0.00    +0.114 C 
BRANCH  19  20
ATOM     20  C   UNL     1       4.528  -2.167  -6.634  0.00  0.00    +0.113 C 
BRANCH  20  23
ATOM     21  C   UNL     1       2.371  -2.067  -5.505  0.00  0.00    +0.244 C 
ATOM     22  O   UNL     1       1.952  -2.891  -6.295  0.00  0.00    -0.270 OA
ATOM     23  N   UNL     1       3.646  -1.639  -5.590  0.00  0.00    -0.311 N 
ATOM     24  H   UNL     1       3.980  -0.982  -4.960  0.00  0.00    +0.149 HD
BRANCH  21  28
ATOM     25  C   UNL     1      -0.187  -0.537  -2.478  0.00  0.00    -0.042 A 
ATOM     26  C   UNL     1      -0.666  -1.475  -3.376  0.00  0.00    +0.005 A 
ATOM     27  C   UNL     1       0.159  -1.975  -4.362  0.00  0.00    +0.013 A 
ATOM     28  C   UNL     1       1.480  -1.534  -4.452  0.00  0.00    +0.037 A 
ATOM     29  C   UNL     1       1.958  -0.589  -3.543  0.00  0.00    +0.013 A 
ATOM     30  C   UNL     1       1.120  -0.092  -2.566  0.00  0.00    +0.005 A 
BRANCH  25  32
ATOM     31  C   UNL     1      -1.228   1.520  -1.567  0.00  0.00    +0.015 C 
ATOM     32  C   UNL     1      -1.094   0.005  -1.404  0.00  0.00    -0.013 C 
ATOM     33  C   UNL     1      -0.501  -0.309  -0.029  0.00  0.00    +0.015 C 
ATOM     34  C   UNL     1      -2.474  -0.645  -1.526  0.00  0.00    +0.015 C 
ENDBRANCH  25  32
ENDBRANCH  21  28
ENDBRANCH  20  23
ENDBRANCH  19  20
ENDBRANCH   1  19
TORSDOF 6
