REMARK  Name = ZINC23184264
REMARK  7 active torsions:
REMARK  status: ('A' for Active; 'I' for Inactive)
REMARK    1  A    between atoms: C_1  and  C_2
REMARK    2  A    between atoms: C_4  and  C_29
REMARK    3  A    between atoms: C_7  and  C_13
REMARK    4  A    between atoms: C_11  and  C_12
REMARK    5  A    between atoms: N_15  and  C_16
REMARK    6  A    between atoms: N_15  and  C_17
REMARK    7  A    between atoms: C_17  and  C_18
REMARK                            x       y       z     vdW  Elec       q    Type
REMARK                         _______ _______ _______ _____ _____    ______ ____
ROOT
ATOM      1  C   UNL     1       2.519   1.454   0.214  0.00  0.00    +0.263 C 
ATOM      2  O   UNL     1       2.780   0.266   0.222  0.00  0.00    -0.268 OA
ATOM      3  N   UNL     1       3.469   2.350  -0.119  0.00  0.00    -0.296 N 
ATOM      4  C   UNL     1       3.160   3.782  -0.109  0.00  0.00    +0.132 C 
ENDROOT
BRANCH   1  11
ATOM      5  C   UNL     1      -3.675   5.138   2.058  0.00  0.00    +0.044 C 
ATOM      6  C   UNL     1      -2.733   4.017   1.699  0.00  0.00    -0.045 A 
ATOM      7  C   UNL     1      -3.212   2.716   1.620  0.00  0.00    +0.007 A 
ATOM      8  C   UNL     1      -2.377   1.686   1.297  0.00  0.00    -0.041 A 
ATOM      9  C   UNL     1      -1.024   1.942   1.036  0.00  0.00    +0.004 A 
ATOM     10  C   UNL     1       0.073   1.116   0.691  0.00  0.00    +0.041 A 
ATOM     11  C   UNL     1       1.167   1.912   0.568  0.00  0.00    +0.103 A 
ATOM     12  N   UNL     1       0.808   3.220   0.828  0.00  0.00    -0.350 N 
ATOM     13  H   UNL     1       1.563   4.019   0.778  0.00  0.00    +0.166 HD
ATOM     14  C   UNL     1      -0.535   3.260   1.122  0.00  0.00    +0.050 A 
ATOM     15  C   UNL     1      -1.407   4.294   1.454  0.00  0.00    -0.024 A 
ATOM     16  C   UNL     1      -0.901   5.710   1.543  0.00  0.00    +0.046 C 
ATOM     17  C   UNL     1      -2.909   0.279   1.215  0.00  0.00    +0.044 C 
ENDBRANCH   1  11
BRANCH   3  18
ATOM     18  C   UNL     1       4.810   1.892  -0.492  0.00  0.00    +0.155 C 
BRANCH  18  19
ATOM     19  C   UNL     1       4.866   1.655  -2.002  0.00  0.00    +0.228 C 
ATOM     20  C   UNL     1       6.238   1.085  -2.386  0.00  0.00    +0.275 C 
ATOM     21  O   UNL     1       6.261   0.888  -3.804  0.00  0.00    -0.485 OA
ATOM     22  C   UNL     1       5.792   1.909  -4.571  0.00  0.00    +0.162 A 
ATOM     23  C   UNL     1       6.105   1.946  -5.922  0.00  0.00    +0.049 A 
ATOM     24  C   UNL     1       5.631   2.974  -6.715  0.00  0.00    +0.004 A 
ATOM     25  C   UNL     1       4.843   3.968  -6.165  0.00  0.00    +0.004 A 
ATOM     26  C   UNL     1       4.529   3.938  -4.819  0.00  0.00    +0.049 A 
ATOM     27  C   UNL     1       5.002   2.910  -4.017  0.00  0.00    +0.163 A 
ATOM     28  O   UNL     1       4.686   2.896  -2.693  0.00  0.00    -0.480 OA
ENDBRANCH  18  19
ENDBRANCH   3  18
TORSDOF 3
