REMARK  Name = ZINC36316384
REMARK  21 active torsions:
REMARK  status: ('A' for Active; 'I' for Inactive)
REMARK    1  A    between atoms: C_1  and  C_2
REMARK    2  A    between atoms: C_2  and  C_3
REMARK    3  A    between atoms: C_4  and  C_23
REMARK    4  A    between atoms: C_5  and  O_14
REMARK    5  A    between atoms: N_6  and  C_8
REMARK    6  A    between atoms: O_14  and  C_15
REMARK    7  A    between atoms: C_18  and  O_21
REMARK    8  A    between atoms: O_21  and  C_22
REMARK    9  A    between atoms: C_23  and  N_24
REMARK   10  A    between atoms: N_24  and  C_25
REMARK   11  A    between atoms: N_24  and  C_35
REMARK   12  A    between atoms: C_25  and  C_26
REMARK   13  A    between atoms: C_26  and  C_28
REMARK   14  A    between atoms: C_26  and  O_34
REMARK   15  A    between atoms: C_28  and  O_29
REMARK   16  A    between atoms: O_29  and  C_30
REMARK   17  A    between atoms: C_30  and  C_31
REMARK   18  A    between atoms: C_30  and  C_32
REMARK   19  A    between atoms: C_30  and  C_33
REMARK   20  A    between atoms: C_35  and  C_36
REMARK   21  A    between atoms: C_35  and  C_37
REMARK                            x       y       z     vdW  Elec       q    Type
REMARK                         _______ _______ _______ _____ _____    ______ ____
ROOT
ATOM      1  C   UNL     1       0.848  -0.634   2.514  0.00  0.00    +0.068 A 
ATOM      2  C   UNL     1       1.938  -0.736   1.643  0.00  0.00    +0.021 A 
ATOM      3  C   UNL     1       2.939  -1.381   2.301  0.00  0.00    +0.225 A 
ATOM      4  N   UNL     1       2.485  -1.673   3.549  0.00  0.00    -0.200 N 
ATOM      5  N   UNL     1       1.175  -1.188   3.653  0.00  0.00    -0.168 NA
ENDROOT
BRANCH   4   6
ATOM      6  C   UNL     1       3.203  -2.337   4.554  0.00  0.00    +0.069 A 
ATOM      7  C   UNL     1       3.965  -3.455   4.242  0.00  0.00    +0.028 A 
ATOM      8  C   UNL     1       4.671  -4.106   5.234  0.00  0.00    +0.002 A 
ATOM      9  C   UNL     1       4.619  -3.647   6.537  0.00  0.00    +0.000 A 
ATOM     10  C   UNL     1       3.860  -2.535   6.851  0.00  0.00    +0.002 A 
ATOM     11  C   UNL     1       3.157  -1.875   5.862  0.00  0.00    +0.028 A 
ENDBRANCH   4   6
BRANCH   1  13
ATOM     12  C   UNL     1      -0.420   1.496   2.555  0.00  0.00    +0.010 C 
ATOM     13  C   UNL     1      -0.476   0.010   2.195  0.00  0.00    +0.054 C 
ENDBRANCH   1  13
BRANCH   3  14
ATOM     14  O   UNL     1       4.165  -1.678   1.802  0.00  0.00    -0.438 OA
BRANCH  14  15
ATOM     15  C   UNL     1       4.297  -2.814   1.067  0.00  0.00    +0.131 A 
ATOM     16  C   UNL     1       3.175  -3.560   0.736  0.00  0.00    +0.050 A 
ATOM     17  C   UNL     1       3.309  -4.714  -0.011  0.00  0.00    +0.049 A 
ATOM     18  C   UNL     1       4.565  -5.128  -0.430  0.00  0.00    +0.120 A 
ATOM     19  C   UNL     1       5.687  -4.382  -0.099  0.00  0.00    +0.049 A 
ATOM     20  C   UNL     1       5.553  -3.225   0.643  0.00  0.00    +0.050 A 
BRANCH  18  21
ATOM     21  O   UNL     1       4.697  -6.265  -1.164  0.00  0.00    -0.495 OA
ATOM     22  C   UNL     1       6.020  -6.631  -1.561  0.00  0.00    +0.277 C 
ENDBRANCH  18  21
ENDBRANCH  14  15
ENDBRANCH   3  14
BRANCH   2  23
ATOM     23  C   UNL     1       1.993  -0.224   0.227  0.00  0.00    -0.035 C 
BRANCH  23  24
ATOM     24  N   UNL     1       2.378   1.193   0.234  0.00  0.00    +0.386 N 
ATOM     25  H   UNL     1       1.754   1.709   0.836  0.00  0.00    -0.081 HD
BRANCH  24  26
ATOM     26  C   UNL     1       2.297   1.730  -1.132  0.00  0.00    -0.074 C 
ATOM     27  C   UNL     1       3.256   0.958  -2.041  0.00  0.00    -0.014 C 
ATOM     28  C   UNL     1       0.867   1.579  -1.654  0.00  0.00    -0.014 C 
ENDBRANCH  24  26
BRANCH  24  29
ATOM     29  C   UNL     1       3.755   1.324   0.729  0.00  0.00    -0.044 C 
BRANCH  29  30
ATOM     30  C   UNL     1       4.101   2.805   0.890  0.00  0.00    +0.124 C 
BRANCH  30  31
ATOM     31  O   UNL     1       4.163   3.423  -0.397  0.00  0.00    -0.391 OA
ATOM     32  H   UNL     1       4.795   3.010  -1.001  0.00  0.00    +0.210 HD
ENDBRANCH  30  31
BRANCH  30  33
ATOM     33  C   UNL     1       5.457   2.940   1.586  0.00  0.00    +0.189 C 
BRANCH  33  34
ATOM     34  O   UNL     1       5.727   4.320   1.841  0.00  0.00    -0.372 OA
BRANCH  34  35
ATOM     35  C   UNL     1       6.977   4.557   2.492  0.00  0.00    +0.061 C 
ATOM     36  C   UNL     1       8.116   4.029   1.617  0.00  0.00    +0.041 C 
ATOM     37  C   UNL     1       7.159   6.060   2.714  0.00  0.00    +0.041 C 
ATOM     38  C   UNL     1       6.994   3.836   3.842  0.00  0.00    +0.041 C 
ENDBRANCH  34  35
ENDBRANCH  33  34
ENDBRANCH  30  33
ENDBRANCH  29  30
ENDBRANCH  24  29
ENDBRANCH  23  24
ENDBRANCH   2  23
TORSDOF 14
