REMARK  Name = ZINC65130769
REMARK  5 active torsions:
REMARK  status: ('A' for Active; 'I' for Inactive)
REMARK    1  A    between atoms: C_5  and  C_7
REMARK    2  A    between atoms: C_7  and  N_8
REMARK    3  A    between atoms: C_9  and  C_11
REMARK    4  A    between atoms: C_18  and  C_23
REMARK    5  A    between atoms: C_25  and  C_28
REMARK                            x       y       z     vdW  Elec       q    Type
REMARK                         _______ _______ _______ _____ _____    ______ ____
ROOT
ATOM      1  C   UNL     1       1.828  -4.499   2.962  0.00  0.00    +0.078 C 
ATOM      2  C   UNL     1       3.192  -3.985   3.426  0.00  0.00    +0.031 C 
ATOM      3  C   UNL     1       3.452  -4.461   4.859  0.00  0.00    +0.107 C 
ATOM      4  N   UNL     1       3.311  -5.922   4.905  0.00  0.00    -0.315 N 
ATOM      5  C   UNL     1       2.072  -6.529   4.397  0.00  0.00    +0.107 C 
ATOM      6  C   UNL     1       1.828  -6.030   2.970  0.00  0.00    +0.031 C 
ATOM      7  C   UNL     1       4.326  -6.714   5.416  0.00  0.00    +0.134 A 
ATOM      8  C   UNL     1       4.387  -6.966   6.796  0.00  0.00    +0.079 A 
ATOM      9  C   UNL     1       5.421  -7.768   7.289  0.00  0.00    +0.018 A 
ATOM     10  C   UNL     1       6.343  -8.279   6.391  0.00  0.00    +0.021 A 
ATOM     11  C   UNL     1       6.216  -7.987   5.046  0.00  0.00    +0.113 A 
ATOM     12  N   UNL     1       5.230  -7.232   4.600  0.00  0.00    -0.240 NA
ENDROOT
BRANCH   8  13
ATOM     13  C   UNL     1       3.379  -6.395   7.710  0.00  0.00    +0.262 A 
ATOM     14  N   UNL     1       3.395  -6.474   9.021  0.00  0.00    -0.187 NA
ATOM     15  C   UNL     1       2.325  -5.843   9.530  0.00  0.00    +0.202 A 
ATOM     16  N   UNL     1       1.613  -5.353   8.544  0.00  0.00    -0.056 NA
ATOM     17  O   UNL     1       2.288  -5.699   7.344  0.00  0.00    -0.332 OA
BRANCH  15  18
ATOM     18  C   UNL     1       2.001  -5.721  10.973  0.00  0.00    +0.023 A 
ATOM     19  C   UNL     1       2.844  -6.283  11.929  0.00  0.00    +0.013 A 
ATOM     20  C   UNL     1       2.539  -6.167  13.270  0.00  0.00    +0.021 A 
ATOM     21  C   UNL     1       1.397  -5.492  13.666  0.00  0.00    +0.041 A 
ATOM     22  C   UNL     1       0.556  -4.931  12.720  0.00  0.00    +0.021 A 
ATOM     23  C   UNL     1       0.856  -5.037  11.377  0.00  0.00    +0.013 A 
ATOM     24 CL   UNL     1       1.017  -5.349  15.354  0.00  0.00    -0.084 Cl
ENDBRANCH  15  18
ENDBRANCH   8  13
BRANCH   1  26
ATOM     25  N   UNL     1       1.506  -2.681   1.316  0.00  0.00    -0.311 N 
ATOM     26  C   UNL     1       1.553  -4.005   1.565  0.00  0.00    +0.216 C 
ATOM     27  O   UNL     1       1.376  -4.798   0.665  0.00  0.00    -0.276 OA
ATOM     28  H   UNL     1       1.648  -2.047   2.036  0.00  0.00    +0.149 HD
BRANCH  25  29
ATOM     29  C   UNL     1       1.239  -2.200  -0.042  0.00  0.00    +0.142 C 
BRANCH  29  34
ATOM     30  C   UNL     1       0.041   1.380  -0.039  0.00  0.00    +0.000 A 
ATOM     31  C   UNL     1       1.237   2.073  -0.066  0.00  0.00    +0.003 A 
ATOM     32  C   UNL     1       2.435   1.384  -0.085  0.00  0.00    +0.038 A 
ATOM     33  C   UNL     1       2.437  -0.001  -0.077  0.00  0.00    +0.128 A 
ATOM     34  C   UNL     1       1.238  -0.693  -0.050  0.00  0.00    +0.005 A 
ATOM     35  C   UNL     1       0.042  -0.002  -0.031  0.00  0.00    +0.008 A 
ATOM     36  F   UNL     1       3.607  -0.675  -0.097  0.00  0.00    -0.205 F 
ENDBRANCH  29  34
ENDBRANCH  25  29
ENDBRANCH   1  26
TORSDOF 5
