REMARK  Name = ZINC13064845
REMARK  11 active torsions:
REMARK  status: ('A' for Active; 'I' for Inactive)
REMARK    1  A    between atoms: C_1  and  C_2
REMARK    2  A    between atoms: C_2  and  C_3
REMARK    3  A    between atoms: C_3  and  C_5
REMARK    4  A    between atoms: C_3  and  N_69
REMARK    5  A    between atoms: N_9  and  C_10
REMARK    6  A    between atoms: C_16  and  C_17
REMARK    7  A    between atoms: C_16  and  N_69
REMARK    8  A    between atoms: C_22  and  C_23
REMARK    9  A    between atoms: C_22  and  N_69
REMARK   10  A    between atoms: C_26  and  C_36
REMARK   11  A    between atoms: C_28  and  C_35
REMARK                            x       y       z     vdW  Elec       q    Type
REMARK                         _______ _______ _______ _____ _____    ______ ____
ROOT
ATOM      1  N   UNL     1       4.978   4.968  -1.369  0.00  0.00    +0.392 N 
ATOM      2  H   UNL     1       4.051   5.319  -1.636  0.00  0.00    -0.080 HD
ENDROOT
BRANCH   1   3
ATOM      3  C   UNL     1       6.009   5.888  -1.894  0.00  0.00    +0.003 C 
BRANCH   3   4
ATOM      4  C   UNL     1       5.560   6.395  -3.240  0.00  0.00    +0.138 A 
ATOM      5  N   UNL     1       5.064   5.680  -4.220  0.00  0.00    -0.115 NA
ATOM      6  N   UNL     1       4.801   6.475  -5.200  0.00  0.00    -0.023 NA
ATOM      7  N   UNL     1       5.125   7.678  -4.873  0.00  0.00    -0.044 NA
ATOM      8  N   UNL     1       5.596   7.670  -3.672  0.00  0.00    -0.228 N 
BRANCH   8   9
ATOM      9  C   UNL     1       6.080   8.830  -2.920  0.00  0.00    +0.111 C 
ATOM     10  C   UNL     1       4.947   9.847  -2.766  0.00  0.00    +0.027 C 
ATOM     11  C   UNL     1       5.452  11.058  -1.980  0.00  0.00    +0.002 C 
ATOM     12  C   UNL     1       6.618  11.704  -2.732  0.00  0.00    +0.000 C 
ATOM     13  C   UNL     1       7.751  10.687  -2.885  0.00  0.00    +0.002 C 
ATOM     14  C   UNL     1       7.246   9.475  -3.671  0.00  0.00    +0.027 C 
ENDBRANCH   8   9
ENDBRANCH   3   4
BRANCH   3  16
ATOM     15  C   UNL     1       7.868   4.763  -0.661  0.00  0.00    +0.002 C 
ATOM     16  C   UNL     1       7.347   5.162  -2.043  0.00  0.00    -0.011 C 
ENDBRANCH   3  16
ENDBRANCH   1   3
BRANCH   1  17
ATOM     17  C   UNL     1       5.165   3.619  -1.942  0.00  0.00    -0.034 C 
BRANCH  17  18
ATOM     18  C   UNL     1       3.894   2.833  -1.751  0.00  0.00    -0.027 A 
ATOM     19  C   UNL     1       2.823   2.727  -2.575  0.00  0.00    +0.009 A 
ATOM     20  C   UNL     1       1.755   1.938  -2.190  0.00  0.00    +0.008 A 
ATOM     21  C   UNL     1       1.811   1.293  -0.999  0.00  0.00    +0.045 A 
ATOM     22  S   UNL     1       3.411   1.791  -0.384  0.00  0.00    -0.103 S 
ENDBRANCH  17  18
ENDBRANCH   1  17
BRANCH   1  23
ATOM     23  C   UNL     1       5.061   4.906   0.106  0.00  0.00    -0.036 C 
BRANCH  23  24
ATOM     24  C   UNL     1       4.383   6.124   0.679  0.00  0.00    +0.001 A 
ATOM     25  C   UNL     1       3.068   6.075   1.004  0.00  0.00    +0.017 A 
ATOM     26  C   UNL     1       2.439   7.275   1.558  0.00  0.00    +0.002 A 
ATOM     27  C   UNL     1       1.085   7.285   1.912  0.00  0.00    -0.041 A 
ATOM     28  C   UNL     1       0.529   8.421   2.427  0.00  0.00    +0.007 A 
ATOM     29  C   UNL     1       1.294   9.566   2.602  0.00  0.00    -0.048 A 
ATOM     30  C   UNL     1       2.629   9.579   2.260  0.00  0.00    +0.029 A 
ATOM     31  C   UNL     1       3.218   8.434   1.735  0.00  0.00    +0.050 A 
ATOM     32  N   UNL     1       4.551   8.419   1.384  0.00  0.00    -0.322 N 
ATOM     33  H   UNL     1       5.086   9.219   1.506  0.00  0.00    +0.169 HD
ATOM     34  C   UNL     1       5.120   7.312   0.875  0.00  0.00    +0.251 A 
ATOM     35  O   UNL     1       6.301   7.335   0.575  0.00  0.00    -0.268 OA
ATOM     36  C   UNL     1       0.658  10.808   3.172  0.00  0.00    +0.044 C 
ATOM     37  C   UNL     1       0.246   6.048   1.727  0.00  0.00    +0.044 C 
ENDBRANCH  23  24
ENDBRANCH   1  23
TORSDOF 8
