REMARK  Name = ZINC64353875
REMARK  8 active torsions:
REMARK  status: ('A' for Active; 'I' for Inactive)
REMARK    1  A    between atoms: C_1  and  C_2
REMARK    2  A    between atoms: C_4  and  C_9
REMARK    3  A    between atoms: C_5  and  C_8
REMARK    4  A    between atoms: C_9  and  C_10
REMARK    5  A    between atoms: N_12  and  C_13
REMARK    6  A    between atoms: C_13  and  C_15
REMARK    7  A    between atoms: C_13  and  C_21
REMARK    8  A    between atoms: C_28  and  C_31
REMARK                            x       y       z     vdW  Elec       q    Type
REMARK                         _______ _______ _______ _____ _____    ______ ____
ROOT
ATOM      1  C   UNL     1      -4.875   2.668  -1.194  0.00  0.00    +0.134 C 
ENDROOT
BRANCH   1   2
ATOM      2  C   UNL     1      -6.267   2.629  -1.771  0.00  0.00    -0.021 A 
ATOM      3  C   UNL     1      -6.479   2.048  -3.013  0.00  0.00    +0.008 A 
ATOM      4  C   UNL     1      -7.745   2.004  -3.556  0.00  0.00    +0.028 A 
ATOM      5  C   UNL     1      -8.814   2.544  -2.854  0.00  0.00    +0.066 A 
ATOM      6  C   UNL     1      -8.599   3.131  -1.596  0.00  0.00    +0.090 A 
ATOM      7  C   UNL     1      -7.307   3.161  -1.063  0.00  0.00    +0.035 A 
ATOM      8  N   UNL     1      -9.805   3.568  -1.151  0.00  0.00    -0.224 NA
ATOM      9  C   UNL     1     -10.722   3.293  -2.033  0.00  0.00    +0.213 A 
ATOM     10  N   UNL     1     -10.167   2.662  -3.102  0.00  0.00    -0.335 N 
ATOM     11  H   UNL     1     -10.635   2.352  -3.893  0.00  0.00    +0.167 HD
BRANCH   9  12
ATOM     12  C   UNL     1     -12.185   3.625  -1.889  0.00  0.00    +0.450 C 
ATOM     13  F   UNL     1     -12.353   4.554  -0.857  0.00  0.00    -0.163 F 
ATOM     14  F   UNL     1     -12.660   4.167  -3.088  0.00  0.00    -0.163 F 
ATOM     15  F   UNL     1     -12.900   2.460  -1.589  0.00  0.00    -0.163 F 
ENDBRANCH   9  12
ENDBRANCH   1   2
BRANCH   1  16
ATOM     16  C   UNL     1      -4.106   3.807  -1.813  0.00  0.00    -0.023 A 
ATOM     17  C   UNL     1      -3.550   3.662  -3.070  0.00  0.00    +0.006 A 
ATOM     18  C   UNL     1      -2.844   4.706  -3.638  0.00  0.00    +0.000 A 
ATOM     19  C   UNL     1      -2.696   5.896  -2.949  0.00  0.00    +0.000 A 
ATOM     20  C   UNL     1      -3.254   6.041  -1.692  0.00  0.00    +0.000 A 
ATOM     21  C   UNL     1      -3.962   4.998  -1.126  0.00  0.00    +0.006 A 
ENDBRANCH   1  16
BRANCH   1  24
ATOM     22  C   UNL     1      -3.186   0.986  -0.687  0.00  0.00    +0.218 C 
ATOM     23  O   UNL     1      -2.847   1.657   0.265  0.00  0.00    -0.275 OA
ATOM     24  N   UNL     1      -4.192   1.404  -1.481  0.00  0.00    -0.304 N 
ATOM     25  H   UNL     1      -4.463   0.868  -2.242  0.00  0.00    +0.150 HD
BRANCH  22  26
ATOM     26  C   UNL     1      -2.483  -0.314  -0.982  0.00  0.00    +0.131 C 
BRANCH  26  29
ATOM     27  C   UNL     1      -0.019   1.526   0.010  0.00  0.00    +0.045 C 
ATOM     28  C   UNL     1       0.002  -0.004   0.002  0.00  0.00    +0.174 C 
ATOM     29  C   UNL     1      -1.407  -0.548   0.046  0.00  0.00    -0.010 C 
ATOM     30  C   UNL     1      -1.526  -1.263   1.145  0.00  0.00    +0.038 C 
ATOM     31  N   UNL     1      -0.345  -1.271   1.865  0.00  0.00    -0.270 N 
ATOM     32  O   UNL     1       0.636  -0.500   1.190  0.00  0.00    -0.267 OA
ATOM     33  C   UNL     1      -2.784  -1.980   1.564  0.00  0.00    +0.065 C 
ATOM     34  H   UNL     1      -0.208  -1.735   2.706  0.00  0.00    +0.194 HD
ENDBRANCH  26  29
ENDBRANCH  22  26
ENDBRANCH   1  24
TORSDOF 6
