REMARK  Name = ZINC10368589
REMARK  9 active torsions:
REMARK  status: ('A' for Active; 'I' for Inactive)
REMARK    1  A    between atoms: C_1  and  C_2
REMARK    2  A    between atoms: C_2  and  C_3
REMARK    3  A    between atoms: C_3  and  N_4
REMARK    4  A    between atoms: C_8  and  C_10
REMARK    5  A    between atoms: C_10  and  S_11
REMARK    6  A    between atoms: S_11  and  C_12
REMARK    7  A    between atoms: N_22  and  C_23
REMARK    8  A    between atoms: C_25  and  C_30
REMARK    9  A    between atoms: C_27  and  C_29
REMARK                            x       y       z     vdW  Elec       q    Type
REMARK                         _______ _______ _______ _____ _____    ______ ____
ROOT
ATOM      1  C   UNL     1      -1.016  -2.041  -0.499  0.00  0.00    +0.177 A 
ATOM      2  N   UNL     1      -1.029  -0.731  -0.523  0.00  0.00    -0.223 NA
ATOM      3  C   UNL     1       0.016  -0.004  -0.062  0.00  0.00    +0.079 A 
ATOM      4  C   UNL     1       0.004   1.393  -0.087  0.00  0.00    +0.028 A 
ATOM      5  C   UNL     1       1.081   2.087   0.389  0.00  0.00    +0.002 A 
ATOM      6  C   UNL     1       2.189   1.424   0.901  0.00  0.00    +0.001 A 
ATOM      7  C   UNL     1       2.230   0.058   0.938  0.00  0.00    +0.015 A 
ATOM      8  C   UNL     1       1.146  -0.676   0.458  0.00  0.00    +0.065 A 
ATOM      9  C   UNL     1       1.135  -2.144   0.473  0.00  0.00    +0.267 A 
ATOM     10  O   UNL     1       2.079  -2.778   0.908  0.00  0.00    -0.267 OA
ATOM     11  N   UNL     1       0.037  -2.767  -0.014  0.00  0.00    -0.255 N 
ENDROOT
BRANCH  11  12
ATOM     12  C   UNL     1      -0.022  -4.167  -0.022  0.00  0.00    +0.052 A 
ATOM     13  C   UNL     1      -0.543  -4.847   1.070  0.00  0.00    +0.029 A 
ATOM     14  C   UNL     1      -0.605  -6.227   1.057  0.00  0.00    -0.048 A 
ATOM     15  C   UNL     1      -0.139  -6.931  -0.038  0.00  0.00    +0.006 A 
ATOM     16  C   UNL     1       0.386  -6.257  -1.125  0.00  0.00    -0.048 A 
ATOM     17  C   UNL     1       0.446  -4.877  -1.120  0.00  0.00    +0.029 A 
ATOM     18  C   UNL     1       0.893  -7.028  -2.316  0.00  0.00    +0.044 C 
ATOM     19  C   UNL     1      -1.177  -6.966   2.240  0.00  0.00    +0.044 C 
ENDBRANCH  11  12
BRANCH   1  20
ATOM     20  S   UNL     1      -2.419  -2.907  -1.121  0.00  0.00    -0.078 S 
BRANCH  20  21
ATOM     21  C   UNL     1      -3.459  -1.509  -1.610  0.00  0.00    +0.173 C 
BRANCH  21  26
ATOM     22  N   UNL     1      -7.782  -0.750  -3.572  0.00  0.00    -0.299 N 
ATOM     23  C   UNL     1      -6.846  -1.617  -3.138  0.00  0.00    +0.306 C 
ATOM     24  O   UNL     1      -7.045  -2.813  -3.211  0.00  0.00    -0.252 OA
ATOM     25  N   UNL     1      -5.689  -1.157  -2.622  0.00  0.00    -0.240 N 
ATOM     26  C   UNL     1      -4.753  -2.023  -2.187  0.00  0.00    +0.231 C 
ATOM     27  O   UNL     1      -4.952  -3.217  -2.260  0.00  0.00    -0.274 OA
ATOM     28  H   UNL     1      -7.623   0.205  -3.514  0.00  0.00    +0.150 HD
ATOM     29  H   UNL     1      -5.530  -0.202  -2.563  0.00  0.00    +0.159 HD
BRANCH  22  30
ATOM     30  C   UNL     1      -9.039  -1.250  -4.133  0.00  0.00    +0.105 C 
BRANCH  30  32
ATOM     31  C   UNL     1     -11.232  -0.591  -5.133  0.00  0.00    +0.005 C 
ATOM     32  C   UNL     1      -9.919  -0.069  -4.547  0.00  0.00    +0.015 C 
ENDBRANCH  30  32
ENDBRANCH  22  30
ENDBRANCH  21  26
ENDBRANCH  20  21
ENDBRANCH   1  20
TORSDOF 6
