REMARK  Name = ZINC38746695
REMARK  5 active torsions:
REMARK  status: ('A' for Active; 'I' for Inactive)
REMARK    1  A    between atoms: C_1  and  C_2
REMARK    2  A    between atoms: C_7  and  N_8
REMARK    3  A    between atoms: C_9  and  C_11
REMARK    4  A    between atoms: C_11  and  S_12
REMARK    5  A    between atoms: S_12  and  C_13
REMARK                            x       y       z     vdW  Elec       q    Type
REMARK                         _______ _______ _______ _____ _____    ______ ____
ROOT
ATOM      1  C   UNL     1      -0.384  -0.118   7.687  0.00  0.00    +0.182 C 
ATOM      2  N   UNL     1      -0.394   1.194   7.530  0.00  0.00    -0.151 NA
ATOM      3  C   UNL     1      -0.491   2.041   8.555  0.00  0.00    +0.272 C 
ATOM      4  O   UNL     1      -0.496   3.247   8.374  0.00  0.00    -0.268 OA
ATOM      5  C   UNL     1      -0.595   1.467   9.935  0.00  0.00    +0.071 C 
ATOM      6  C   UNL     1      -0.763   2.129  11.092  0.00  0.00    -0.042 C 
ATOM      7  C   UNL     1      -1.050   3.626  11.181  0.00  0.00    +0.033 C 
ATOM      8  C   UNL     1      -2.339   3.781  11.999  0.00  0.00    +0.004 C 
ATOM      9  C   UNL     1      -2.213   3.040  13.329  0.00  0.00    +0.002 C 
ATOM     10  C   UNL     1      -2.047   1.535  13.101  0.00  0.00    +0.019 C 
ATOM     11  C   UNL     1      -0.724   1.295  12.368  0.00  0.00    +0.079 C 
ATOM     12  S   UNL     1      -0.676  -0.413  11.706  0.00  0.00    -0.097 S 
ATOM     13  C   UNL     1      -0.562  -0.011   9.980  0.00  0.00    +0.112 C 
ATOM     14  N   UNL     1      -0.469  -0.711   8.878  0.00  0.00    -0.217 NA
ENDROOT
BRANCH   1  15
ATOM     15  S   UNL     1      -0.259  -1.133   6.252  0.00  0.00    -0.079 S 
BRANCH  15  16
ATOM     16  C   UNL     1      -0.168   0.052   4.882  0.00  0.00    +0.173 C 
BRANCH  16  18
ATOM     17  N   UNL     1       0.025  -0.015   2.417  0.00  0.00    -0.285 N 
ATOM     18  C   UNL     1      -0.056  -0.694   3.578  0.00  0.00    +0.227 C 
ATOM     19  O   UNL     1      -0.040  -1.907   3.573  0.00  0.00    -0.275 OA
ATOM     20  H   UNL     1       0.078   0.954   2.425  0.00  0.00    +0.155 HD
BRANCH  17  27
ATOM     21  C   UNL     1      -1.264   1.184   0.181  0.00  0.00    +0.045 C 
ATOM     22  C   UNL     1      -0.584  -0.158   0.084  0.00  0.00    -0.029 A 
ATOM     23  C   UNL     1      -0.568  -0.840  -1.117  0.00  0.00    +0.005 A 
ATOM     24  C   UNL     1       0.055  -2.071  -1.206  0.00  0.00    +0.000 A 
ATOM     25  C   UNL     1       0.666  -2.622  -0.095  0.00  0.00    +0.002 A 
ATOM     26  C   UNL     1       0.655  -1.945   1.108  0.00  0.00    +0.023 A 
ATOM     27  C   UNL     1       0.034  -0.706   1.201  0.00  0.00    +0.036 A 
ENDBRANCH  17  27
ENDBRANCH  16  18
ENDBRANCH  15  16
ENDBRANCH   1  15
TORSDOF 4
