REMARK  Name = ZINC15000433
REMARK  10 active torsions:
REMARK  status: ('A' for Active; 'I' for Inactive)
REMARK    1  A    between atoms: C_1  and  C_2
REMARK    2  A    between atoms: C_2  and  C_37
REMARK    3  A    between atoms: C_4  and  C_9
REMARK    4  A    between atoms: N_11  and  C_12
REMARK    5  A    between atoms: N_11  and  C_18
REMARK    6  A    between atoms: C_12  and  C_13
REMARK    7  A    between atoms: C_18  and  C_19
REMARK    8  A    between atoms: C_24  and  O_35
REMARK    9  A    between atoms: C_27  and  N_28
REMARK   10  A    between atoms: O_35  and  C_36
REMARK                            x       y       z     vdW  Elec       q    Type
REMARK                         _______ _______ _______ _____ _____    ______ ____
ROOT
ATOM      1  C   UNL     1       5.977   3.440  -2.892  0.00  0.00    +0.008 A 
ATOM      2  C   UNL     1       6.616   2.311  -3.311  0.00  0.00    +0.018 A 
ATOM      3  C   UNL     1       7.105   2.271  -4.631  0.00  0.00    -0.001 A 
ATOM      4  C   UNL     1       7.773   1.138  -5.124  0.00  0.00    +0.013 A 
ATOM      5  C   UNL     1       8.234   1.127  -6.404  0.00  0.00    +0.046 A 
ATOM      6  C   UNL     1       8.054   2.233  -7.239  0.00  0.00    +0.122 A 
ATOM      7  C   UNL     1       7.404   3.359  -6.787  0.00  0.00    +0.071 A 
ATOM      8  C   UNL     1       6.917   3.397  -5.471  0.00  0.00    +0.051 A 
ATOM      9  C   UNL     1       5.816   4.519  -3.772  0.00  0.00    +0.104 A 
ATOM     10  N   UNL     1       6.272   4.540  -5.049  0.00  0.00    -0.343 N 
ATOM     11  H   UNL     1       6.145   5.353  -5.663  0.00  0.00    +0.167 HD
ENDROOT
BRANCH   9  12
ATOM     12  N   UNL     1       5.159   5.659  -3.333  0.00  0.00    -0.316 N 
ATOM     13  C   UNL     1       3.808   5.755  -3.930  0.00  0.00    +0.106 C 
ATOM     14  C   UNL     1       3.164   7.095  -3.704  0.00  0.00    +0.019 C 
ATOM     15  C   UNL     1       3.462   7.993  -4.924  0.00  0.00    +0.002 C 
ATOM     16  C   UNL     1       4.812   8.545  -4.885  0.00  0.00    +0.002 C 
ATOM     17  C   UNL     1       5.893   7.444  -4.901  0.00  0.00    +0.019 C 
ATOM     18  C   UNL     1       6.002   6.862  -3.518  0.00  0.00    +0.106 C 
ENDBRANCH   9  12
BRANCH   6  19
ATOM     19  O   UNL     1       8.525   2.197  -8.513  0.00  0.00    -0.495 OA
ATOM     20  C   UNL     1       9.191   1.001  -8.924  0.00  0.00    +0.277 C 
ENDBRANCH   6  19
BRANCH   1  21
ATOM     21  C   UNL     1       5.438   3.525  -1.487  0.00  0.00    +0.146 C 
BRANCH  21  24
ATOM     22  C   UNL     1       6.847   2.005  -0.207  0.00  0.00    +0.219 C 
ATOM     23  O   UNL     1       7.693   2.873  -0.158  0.00  0.00    -0.275 OA
ATOM     24  N   UNL     1       5.662   2.251  -0.800  0.00  0.00    -0.289 N 
BRANCH  22  28
ATOM     25  C   UNL     1      10.396  -1.041   1.504  0.00  0.00    +0.041 C 
ATOM     26  C   UNL     1       8.894  -0.876   1.264  0.00  0.00    +0.065 C 
ATOM     27  C   UNL     1       8.631   0.467   0.579  0.00  0.00    +0.047 C 
ATOM     28  C   UNL     1       7.121   0.651   0.397  0.00  0.00    +0.080 C 
ATOM     29  C   UNL     1       6.437   0.552   1.764  0.00  0.00    +0.041 C 
ATOM     30  C   UNL     1       6.785  -0.795   2.404  0.00  0.00    +0.161 C 
ATOM     31  O   UNL     1       8.205  -0.915   2.515  0.00  0.00    -0.374 OA
ATOM     32  C   UNL     1       8.392  -2.012   0.370  0.00  0.00    +0.041 C 
ENDBRANCH  22  28
BRANCH  24  33
ATOM     33  C   UNL     1       4.599   1.244  -0.758  0.00  0.00    +0.182 C 
BRANCH  33  34
ATOM     34  C   UNL     1       4.634   0.423  -2.022  0.00  0.00    +0.122 A 
ATOM     35  C   UNL     1       5.276  -0.748  -2.182  0.00  0.00    +0.046 A 
ATOM     36  C   UNL     1       5.042  -1.164  -3.513  0.00  0.00    +0.041 A 
ATOM     37  C   UNL     1       4.278  -0.219  -4.088  0.00  0.00    +0.195 A 
ATOM     38  O   UNL     1       4.034   0.741  -3.181  0.00  0.00    -0.466 OA
ENDBRANCH  33  34
ENDBRANCH  24  33
ENDBRANCH  21  24
ENDBRANCH   1  21
TORSDOF 7
