REMARK  Name = ZINC09126844
REMARK  10 active torsions:
REMARK  status: ('A' for Active; 'I' for Inactive)
REMARK    1  A    between atoms: C_1  and  C_2
REMARK    2  A    between atoms: C_4  and  C_32
REMARK    3  A    between atoms: C_8  and  C_26
REMARK    4  A    between atoms: C_10  and  S_11
REMARK    5  A    between atoms: S_11  and  C_12
REMARK    6  A    between atoms: C_12  and  C_13
REMARK    7  A    between atoms: C_13  and  C_15
REMARK    8  A    between atoms: C_16  and  N_25
REMARK    9  A    between atoms: N_17  and  C_24
REMARK   10  A    between atoms: N_20  and  C_23
REMARK                            x       y       z     vdW  Elec       q    Type
REMARK                         _______ _______ _______ _____ _____    ______ ____
ROOT
ATOM      1  C   UNL     1      -2.506   2.256  -0.489  0.00  0.00    +0.046 C 
ATOM      2  C   UNL     1      -1.055   2.662  -0.455  0.00  0.00    -0.021 A 
ATOM      3  C   UNL     1      -0.699   3.970  -0.589  0.00  0.00    +0.030 A 
ATOM      4  C   UNL     1       0.654   4.341  -0.550  0.00  0.00    +0.059 A 
ATOM      5  N   UNL     1       1.595   3.452  -0.391  0.00  0.00    -0.169 NA
ATOM      6  N   UNL     1       1.278   2.096  -0.255  0.00  0.00    -0.206 N 
ATOM      7  C   UNL     1      -0.050   1.698  -0.289  0.00  0.00    +0.097 A 
ATOM      8  C   UNL     1      -0.048   0.316  -0.130  0.00  0.00    +0.100 A 
ATOM      9  N   UNL     1       1.234  -0.071  -0.008  0.00  0.00    -0.220 NA
ATOM     10  C   UNL     1       2.025   0.976  -0.081  0.00  0.00    +0.191 A 
ATOM     11  C   UNL     1       1.026   5.794  -0.694  0.00  0.00    +0.067 C 
ENDROOT
BRANCH   8  12
ATOM     12  C   UNL     1      -1.236  -0.564  -0.100  0.00  0.00    +0.003 A 
ATOM     13  C   UNL     1      -2.340  -0.225   0.684  0.00  0.00    +0.010 A 
ATOM     14  C   UNL     1      -3.447  -1.048   0.703  0.00  0.00    +0.001 A 
ATOM     15  C   UNL     1      -3.460  -2.213  -0.043  0.00  0.00    +0.000 A 
ATOM     16  C   UNL     1      -2.366  -2.558  -0.818  0.00  0.00    +0.001 A 
ATOM     17  C   UNL     1      -1.255  -1.742  -0.850  0.00  0.00    +0.010 A 
ENDBRANCH   8  12
BRANCH  10  18
ATOM     18  S   UNL     1       3.783   0.933   0.030  0.00  0.00    -0.078 S 
BRANCH  18  19
ATOM     19  C   UNL     1       4.165  -0.826   0.256  0.00  0.00    +0.157 C 
BRANCH  19  20
ATOM     20  C   UNL     1       5.657  -1.006   0.366  0.00  0.00    +0.182 C 
ATOM     21  O   UNL     1       6.392  -0.041   0.299  0.00  0.00    -0.291 OA
BRANCH  20  22
ATOM     22  C   UNL     1       6.201  -2.295   0.547  0.00  0.00    +0.120 A 
ATOM     23  C   UNL     1       7.574  -2.476   0.790  0.00  0.00    +0.116 A 
ATOM     24  N   UNL     1       8.053  -3.743   0.964  0.00  0.00    -0.284 N 
ATOM     25  C   UNL     1       7.242  -4.810   0.897  0.00  0.00    +0.333 A 
ATOM     26  O   UNL     1       7.718  -5.918   1.054  0.00  0.00    -0.246 OA
ATOM     27  N   UNL     1       5.924  -4.700   0.663  0.00  0.00    -0.263 N 
ATOM     28  C   UNL     1       5.352  -3.492   0.483  0.00  0.00    +0.269 A 
ATOM     29  O   UNL     1       4.158  -3.395   0.270  0.00  0.00    -0.267 OA
ATOM     30  C   UNL     1       5.097  -5.908   0.603  0.00  0.00    +0.157 C 
ATOM     31  C   UNL     1       9.481  -3.941   1.222  0.00  0.00    +0.155 C 
BRANCH  23  32
ATOM     32  N   UNL     1       8.411  -1.405   0.855  0.00  0.00    -0.344 N 
ATOM     33  H   UNL     1       8.050  -0.505   0.836  0.00  0.00    +0.144 HD
ATOM     34  H   UNL     1       9.369  -1.542   0.921  0.00  0.00    +0.144 HD
ENDBRANCH  23  32
ENDBRANCH  20  22
ENDBRANCH  19  20
ENDBRANCH  18  19
ENDBRANCH  10  18
TORSDOF 6
