REMARK  Name = ZINC35646620
REMARK  12 active torsions:
REMARK  status: ('A' for Active; 'I' for Inactive)
REMARK    1  A    between atoms: C_1  and  C_2
REMARK    2  A    between atoms: C_2  and  N_3
REMARK    3  A    between atoms: C_4  and  C_24
REMARK    4  A    between atoms: C_5  and  C_19
REMARK    5  A    between atoms: C_6  and  C_11
REMARK    6  A    between atoms: C_14  and  C_18
REMARK    7  A    between atoms: C_16  and  C_17
REMARK    8  A    between atoms: C_19  and  O_21
REMARK    9  A    between atoms: O_21  and  C_22
REMARK   10  A    between atoms: C_22  and  C_23
REMARK   11  A    between atoms: C_24  and  N_25
REMARK   12  A    between atoms: C_32  and  C_34
REMARK                            x       y       z     vdW  Elec       q    Type
REMARK                         _______ _______ _______ _____ _____    ______ ____
ROOT
ATOM      1  N   UNL     1       0.037  -0.235  -1.551  0.00  0.00    -0.261 N 
ATOM      2  C   UNL     1      -0.509  -1.059  -2.493  0.00  0.00    +0.010 C 
ATOM      3  C   UNL     1       0.272  -1.763  -3.340  0.00  0.00    +0.076 C 
ATOM      4  C   UNL     1       1.774  -1.606  -3.209  0.00  0.00    +0.144 C 
ATOM      5  N   UNL     1       2.261  -0.692  -2.162  0.00  0.00    -0.288 N 
ATOM      6  C   UNL     1       1.354  -0.055  -1.395  0.00  0.00    +0.307 C 
ATOM      7  O   UNL     1       1.746   0.704  -0.530  0.00  0.00    -0.252 OA
ATOM      8  H   UNL     1       3.211  -0.550  -2.030  0.00  0.00    +0.151 HD
ENDROOT
BRANCH   4   9
ATOM      9  C   UNL     1       2.307  -1.121  -4.533  0.00  0.00    -0.020 A 
ATOM     10  C   UNL     1       1.456  -0.518  -5.441  0.00  0.00    +0.006 A 
ATOM     11  C   UNL     1       1.945  -0.073  -6.655  0.00  0.00    +0.004 A 
ATOM     12  C   UNL     1       3.285  -0.230  -6.961  0.00  0.00    -0.050 A 
ATOM     13  C   UNL     1       4.135  -0.832  -6.052  0.00  0.00    +0.007 A 
ATOM     14  C   UNL     1       3.647  -1.273  -4.836  0.00  0.00    -0.045 A 
ATOM     15  C   UNL     1       4.574  -1.924  -3.843  0.00  0.00    +0.044 C 
ATOM     16  C   UNL     1       3.817   0.255  -8.284  0.00  0.00    +0.044 C 
ENDBRANCH   4   9
BRANCH   1  18
ATOM     17  C   UNL     1      -1.168   1.875  -1.265  0.00  0.00    +0.025 C 
ATOM     18  C   UNL     1      -0.871   0.499  -0.665  0.00  0.00    +0.111 C 
ENDBRANCH   1  18
BRANCH   3  19
ATOM     19  C   UNL     1      -0.292  -2.618  -4.315  0.00  0.00    +0.339 C 
ATOM     20  O   UNL     1      -1.499  -2.664  -4.459  0.00  0.00    -0.245 OA
BRANCH  19  21
ATOM     21  O   UNL     1       0.509  -3.382  -5.087  0.00  0.00    -0.462 OA
BRANCH  21  22
ATOM     22  C   UNL     1      -0.119  -4.138  -6.124  0.00  0.00    +0.229 C 
ATOM     23  C   UNL     1       0.921  -5.030  -6.806  0.00  0.00    +0.048 C 
ENDBRANCH  21  22
ENDBRANCH  19  21
ENDBRANCH   3  19
BRANCH   2  24
ATOM     24  C   UNL     1      -2.008  -1.186  -2.588  0.00  0.00    -0.026 C 
BRANCH  24  25
ATOM     25  N   UNL     1      -2.438  -2.421  -1.920  0.00  0.00    +0.384 N 
ATOM     26  C   UNL     1      -3.845  -2.652  -2.239  0.00  0.00    -0.077 C 
ATOM     27  C   UNL     1      -4.124  -4.138  -2.224  0.00  0.00    +0.000 C 
ATOM     28  C   UNL     1      -4.634  -4.550  -0.831  0.00  0.00    +0.106 C 
ATOM     29  N   UNL     1      -3.897  -3.842   0.235  0.00  0.00    -0.299 N 
ATOM     30  C   UNL     1      -2.464  -3.636   0.182  0.00  0.00    +0.089 C 
ATOM     31  C   UNL     1      -2.151  -2.307  -0.542  0.00  0.00    -0.059 C 
ATOM     32  C   UNL     1      -4.583  -3.369   1.295  0.00  0.00    +0.247 C 
ATOM     33  O   UNL     1      -4.018  -2.689   2.129  0.00  0.00    -0.270 OA
ATOM     34  H   UNL     1      -1.900  -3.188  -2.295  0.00  0.00    -0.081 HD
BRANCH  32  35
ATOM     35  C   UNL     1      -6.021  -3.677   1.442  0.00  0.00    +0.037 A 
ATOM     36  C   UNL     1      -6.514  -4.924   1.053  0.00  0.00    +0.013 A 
ATOM     37  C   UNL     1      -7.857  -5.205   1.193  0.00  0.00    +0.001 A 
ATOM     38  C   UNL     1      -8.715  -4.255   1.718  0.00  0.00    +0.000 A 
ATOM     39  C   UNL     1      -8.233  -3.017   2.106  0.00  0.00    +0.001 A 
ATOM     40  C   UNL     1      -6.891  -2.725   1.976  0.00  0.00    +0.013 A 
ENDBRANCH  32  35
ENDBRANCH  24  25
ENDBRANCH   2  24
TORSDOF 8
