REMARK  Name = ZINC15951908
REMARK  8 active torsions:
REMARK  status: ('A' for Active; 'I' for Inactive)
REMARK    1  A    between atoms: C_1  and  C_2
REMARK    2  A    between atoms: C_2  and  O_3
REMARK    3  A    between atoms: O_3  and  C_4
REMARK    4  A    between atoms: C_4  and  C_6
REMARK    5  A    between atoms: C_12  and  C_14
REMARK    6  A    between atoms: C_18  and  N_20
REMARK    7  A    between atoms: C_27  and  C_36
REMARK    8  A    between atoms: C_32  and  C_35
REMARK                            x       y       z     vdW  Elec       q    Type
REMARK                         _______ _______ _______ _____ _____    ______ ____
ROOT
ATOM      1  C   UNL     1      -5.729  -6.515  -1.525  0.00  0.00    +0.039 A 
ATOM      2  C   UNL     1      -4.709  -7.079  -0.756  0.00  0.00    +0.013 A 
ATOM      3  C   UNL     1      -4.294  -8.372  -1.004  0.00  0.00    +0.003 A 
ATOM      4  C   UNL     1      -4.884  -9.111  -2.011  0.00  0.00    +0.024 A 
ATOM      5  C   UNL     1      -5.899  -8.559  -2.782  0.00  0.00    +0.042 A 
ATOM      6  C   UNL     1      -6.328  -7.263  -2.538  0.00  0.00    +0.036 A 
ENDROOT
BRANCH   5   7
ATOM      7  N   UNL     1      -6.493  -9.312  -3.801  0.00  0.00    -0.216 N 
ATOM      8  C   UNL     1      -7.478 -10.168  -3.488  0.00  0.00    +0.310 C 
ATOM      9  O   UNL     1      -7.774 -10.317  -2.318  0.00  0.00    -0.252 OA
ATOM     10  N   UNL     1      -8.150 -10.865  -4.420  0.00  0.00    -0.292 N 
ATOM     11  C   UNL     1      -7.862 -10.643  -5.847  0.00  0.00    +0.114 C 
ATOM     12  C   UNL     1      -6.346 -10.426  -5.985  0.00  0.00    +0.096 C 
ATOM     13  C   UNL     1      -6.026  -9.139  -5.174  0.00  0.00    +0.185 C 
ATOM     14  O   UNL     1      -6.663  -8.023  -5.790  0.00  0.00    -0.468 OA
ATOM     15  C   UNL     1      -7.952  -8.150  -6.199  0.00  0.00    +0.128 A 
ATOM     16  C   UNL     1      -8.579  -9.377  -6.260  0.00  0.00    +0.015 A 
ATOM     17  C   UNL     1      -9.889  -9.460  -6.694  0.00  0.00    +0.012 A 
ATOM     18  C   UNL     1     -10.570  -8.318  -7.072  0.00  0.00    -0.050 A 
ATOM     19  C   UNL     1      -9.940  -7.089  -7.014  0.00  0.00    +0.007 A 
ATOM     20  C   UNL     1      -8.646  -7.004  -6.574  0.00  0.00    +0.046 A 
ATOM     21  C   UNL     1     -11.997  -8.413  -7.546  0.00  0.00    +0.044 C 
ATOM     22  C   UNL     1      -4.513  -8.912  -5.170  0.00  0.00    +0.079 C 
ATOM     23  H   UNL     1      -8.822 -11.512  -4.154  0.00  0.00    +0.151 HD
ENDBRANCH   5   7
BRANCH   1  30
ATOM     24  C   UNL     1      -3.452  -2.102  -1.800  0.00  0.00    +0.101 C 
ATOM     25  C   UNL     1      -4.961  -1.885  -1.938  0.00  0.00    +0.033 C 
ATOM     26  C   UNL     1      -5.694  -2.756  -0.913  0.00  0.00    +0.109 C 
ATOM     27  N   UNL     1      -5.267  -4.151  -1.085  0.00  0.00    -0.297 N 
ATOM     28  C   UNL     1      -3.831  -4.458  -1.061  0.00  0.00    +0.109 C 
ATOM     29  C   UNL     1      -3.118  -3.568  -2.084  0.00  0.00    +0.033 C 
ATOM     30  C   UNL     1      -6.176  -5.130  -1.263  0.00  0.00    +0.247 C 
ATOM     31  O   UNL     1      -7.363  -4.875  -1.207  0.00  0.00    -0.270 OA
BRANCH  24  32
ATOM     32  C   UNL     1      -2.726  -1.222  -2.784  0.00  0.00    +0.310 C 
ATOM     33  O   UNL     1      -2.014  -1.716  -3.626  0.00  0.00    -0.251 OA
BRANCH  32  34
ATOM     34  O   UNL     1      -2.870   0.112  -2.725  0.00  0.00    -0.465 OA
BRANCH  34  36
ATOM     35  C   UNL     1      -2.438   2.371  -3.466  0.00  0.00    +0.048 C 
ATOM     36  C   UNL     1      -2.152   0.885  -3.689  0.00  0.00    +0.229 C 
ENDBRANCH  34  36
ENDBRANCH  32  34
ENDBRANCH  24  32
ENDBRANCH   1  30
TORSDOF 5
