REMARK  Name = ZINC16236680
REMARK  5 active torsions:
REMARK  status: ('A' for Active; 'I' for Inactive)
REMARK    1  A    between atoms: C_1  and  N_2
REMARK    2  A    between atoms: N_2  and  C_3
REMARK    3  A    between atoms: C_3  and  C_4
REMARK    4  A    between atoms: C_16  and  C_18
REMARK    5  A    between atoms: C_18  and  C_19
REMARK                            x       y       z     vdW  Elec       q    Type
REMARK                         _______ _______ _______ _____ _____    ______ ____
ROOT
ATOM      1  C   UNL     1       2.024   6.194   1.284  0.00  0.00    +0.132 C 
ATOM      2  N   UNL     1       2.143   5.480   0.010  0.00  0.00    -0.297 N 
ATOM      3  C   UNL     1       2.011   6.149  -1.153  0.00  0.00    +0.220 C 
ATOM      4  O   UNL     1       2.110   5.558  -2.207  0.00  0.00    -0.275 OA
ENDROOT
BRANCH   2   5
ATOM      5  C   UNL     1       2.405   4.039   0.000  0.00  0.00    +0.181 C 
BRANCH   5   6
ATOM      6  C   UNL     1       1.097   3.290   0.009  0.00  0.00    +0.128 A 
ATOM      7  N   UNL     1       1.132   1.932   0.002  0.00  0.00    -0.309 N 
ATOM      8  H   UNL     1       1.987   1.473  -0.009  0.00  0.00    +0.170 HD
ATOM      9  C   UNL     1      -0.014   1.213   0.009  0.00  0.00    +0.259 A 
ATOM     10  O   UNL     1       0.002  -0.004   0.002  0.00  0.00    -0.267 OA
ATOM     11  C   UNL     1      -1.281   1.960   0.019  0.00  0.00    +0.065 A 
ATOM     12  C   UNL     1      -2.517   1.315   0.033  0.00  0.00    +0.015 A 
ATOM     13  C   UNL     1      -3.673   2.064   0.048  0.00  0.00    +0.001 A 
ATOM     14  C   UNL     1      -3.615   3.452   0.055  0.00  0.00    +0.002 A 
ATOM     15  C   UNL     1      -2.405   4.108   0.047  0.00  0.00    +0.028 A 
ATOM     16  C   UNL     1      -1.219   3.371   0.032  0.00  0.00    +0.078 A 
ATOM     17  N   UNL     1      -0.005   3.976   0.023  0.00  0.00    -0.232 NA
ENDBRANCH   5   6
ENDBRANCH   2   5
BRANCH   3  18
ATOM     18  C   UNL     1       1.742   7.631  -1.142  0.00  0.00    +0.131 C 
BRANCH  18  19
ATOM     19  C   UNL     1       1.638   8.133  -2.560  0.00  0.00    -0.034 A 
ATOM     20  C   UNL     1       2.770   8.582  -3.216  0.00  0.00    +0.053 A 
ATOM     21  C   UNL     1       2.673   9.038  -4.520  0.00  0.00    +0.164 A 
ATOM     22  C   UNL     1       1.442   9.053  -5.161  0.00  0.00    +0.180 A 
ATOM     23  C   UNL     1       0.310   8.607  -4.500  0.00  0.00    +0.086 A 
ATOM     24  C   UNL     1       0.412   8.147  -3.198  0.00  0.00    +0.028 A 
ATOM     25 CL   UNL     1      -1.231   8.623  -5.300  0.00  0.00    -0.080 Cl
ATOM     26  O   UNL     1       1.356   9.509  -6.444  0.00  0.00    -0.487 OA
ATOM     27  C   UNL     1       1.981   8.697  -7.440  0.00  0.00    +0.232 C 
ATOM     28  C   UNL     1       3.464   9.018  -7.544  0.00  0.00    +0.082 C 
ATOM     29  C   UNL     1       4.222   8.669  -6.273  0.00  0.00    +0.232 C 
ATOM     30  O   UNL     1       3.782   9.479  -5.181  0.00  0.00    -0.488 OA
ENDBRANCH  18  19
ENDBRANCH   3  18
TORSDOF 4
