REMARK  Name = ZINC45896373
REMARK  8 active torsions:
REMARK  status: ('A' for Active; 'I' for Inactive)
REMARK    1  A    between atoms: C_1  and  C_2
REMARK    2  A    between atoms: C_2  and  O_3
REMARK    3  A    between atoms: O_3  and  C_4
REMARK    4  A    between atoms: C_9  and  N_10
REMARK    5  A    between atoms: N_13  and  C_14
REMARK    6  A    between atoms: C_23  and  O_24
REMARK    7  A    between atoms: N_25  and  C_26
REMARK    8  A    between atoms: C_26  and  C_27
REMARK                            x       y       z     vdW  Elec       q    Type
REMARK                         _______ _______ _______ _____ _____    ______ ____
ROOT
ATOM      1  C   UNL     1       3.654  -1.761  -6.390  0.00  0.00    +0.140 A 
ATOM      2  C   UNL     1       3.982  -0.960  -7.521  0.00  0.00    +0.075 A 
ATOM      3  C   UNL     1       4.205  -1.661  -8.806  0.00  0.00    +0.042 A 
ATOM      4  C   UNL     1       4.530  -0.963  -9.965  0.00  0.00    +0.013 A 
ATOM      5  C   UNL     1       4.731  -1.653 -11.142  0.00  0.00    +0.001 A 
ATOM      6  C   UNL     1       4.608  -3.034 -11.171  0.00  0.00    +0.004 A 
ATOM      7  C   UNL     1       4.286  -3.735 -10.028  0.00  0.00    +0.047 A 
ATOM      8  C   UNL     1       4.081  -3.057  -8.833  0.00  0.00    +0.141 A 
ATOM      9  O   UNL     1       3.766  -3.726  -7.703  0.00  0.00    -0.424 OA
ATOM     10  C   UNL     1       3.566  -3.106  -6.530  0.00  0.00    +0.309 A 
ATOM     11  N   UNL     1       4.083   0.350  -7.429  0.00  0.00    -0.378 N 
ATOM     12  H   UNL     1       4.264   0.763  -6.570  0.00  0.00    +0.160 HD
ENDROOT
BRANCH   1  16
ATOM     13  N   UNL     1       2.380   0.476  -3.840  0.00  0.00    -0.266 N 
ATOM     14  C   UNL     1       2.521  -0.171  -5.014  0.00  0.00    +0.308 C 
ATOM     15  O   UNL     1       1.829   0.139  -5.965  0.00  0.00    -0.252 OA
ATOM     16  N   UNL     1       3.428  -1.160  -5.134  0.00  0.00    -0.262 N 
ATOM     17  H   UNL     1       2.983   0.283  -3.105  0.00  0.00    +0.156 HD
ATOM     18  H   UNL     1       3.926  -1.459  -4.357  0.00  0.00    +0.157 HD
BRANCH  13  24
ATOM     19  C   UNL     1       1.489   2.430  -2.723  0.00  0.00    +0.142 A 
ATOM     20  C   UNL     1       0.483   3.371  -2.574  0.00  0.00    +0.047 A 
ATOM     21  C   UNL     1      -0.645   3.309  -3.370  0.00  0.00    +0.004 A 
ATOM     22  C   UNL     1      -0.774   2.309  -4.317  0.00  0.00    +0.002 A 
ATOM     23  C   UNL     1       0.225   1.367  -4.471  0.00  0.00    +0.027 A 
ATOM     24  C   UNL     1       1.363   1.426  -3.680  0.00  0.00    +0.077 A 
BRANCH  19  25
ATOM     25  O   UNL     1       2.599   2.490  -1.940  0.00  0.00    -0.490 OA
BRANCH  25  27
ATOM     26  C   UNL     1       3.973   3.452  -0.199  0.00  0.00    +0.048 C 
ATOM     27  C   UNL     1       2.660   3.547  -0.980  0.00  0.00    +0.226 C 
ENDBRANCH  25  27
ENDBRANCH  19  25
ENDBRANCH  13  24
ENDBRANCH   1  16
BRANCH  10  28
ATOM     28  O   UNL     1       3.259  -3.853  -5.444  0.00  0.00    -0.479 OA
ATOM     29  H   UNL     1       3.214  -4.803  -5.620  0.00  0.00    +0.295 HD
ENDBRANCH  10  28
BRANCH  11  30
ATOM     30  C   UNL     1       3.922   1.183  -8.623  0.00  0.00    +0.148 C 
BRANCH  30  31
ATOM     31  C   UNL     1       3.263   2.484  -8.242  0.00  0.00    -0.028 A 
ATOM     32  C   UNL     1       1.885   2.592  -8.258  0.00  0.00    +0.005 A 
ATOM     33  C   UNL     1       1.281   3.785  -7.909  0.00  0.00    +0.000 A 
ATOM     34  C   UNL     1       2.055   4.871  -7.544  0.00  0.00    +0.000 A 
ATOM     35  C   UNL     1       3.433   4.763  -7.528  0.00  0.00    +0.000 A 
ATOM     36  C   UNL     1       4.037   3.568  -7.873  0.00  0.00    +0.005 A 
ENDBRANCH  30  31
ENDBRANCH  11  30
TORSDOF 7
