REMARK  Name = ZINC08828512
REMARK  10 active torsions:
REMARK  status: ('A' for Active; 'I' for Inactive)
REMARK    1  A    between atoms: C_1  and  C_2
REMARK    2  A    between atoms: C_2  and  O_3
REMARK    3  A    between atoms: O_3  and  C_4
REMARK    4  A    between atoms: N_9  and  S_12
REMARK    5  A    between atoms: S_12  and  C_15
REMARK    6  A    between atoms: C_19  and  C_21
REMARK    7  A    between atoms: N_23  and  C_24
REMARK    8  A    between atoms: C_27  and  C_30
REMARK    9  A    between atoms: C_30  and  C_31
REMARK   10  A    between atoms: C_30  and  C_32
REMARK                            x       y       z     vdW  Elec       q    Type
REMARK                         _______ _______ _______ _____ _____    ______ ____
ROOT
ATOM      1  C   UNL     1       6.024  -3.999  -4.720  0.00  0.00    +0.106 A 
ATOM      2  C   UNL     1       6.905  -2.955  -4.947  0.00  0.00    +0.031 A 
ATOM      3  C   UNL     1       8.245  -3.094  -4.637  0.00  0.00    +0.041 A 
ATOM      4  C   UNL     1       8.714  -4.278  -4.098  0.00  0.00    +0.136 A 
ATOM      5  C   UNL     1       7.828  -5.335  -3.867  0.00  0.00    +0.074 A 
ATOM      6  C   UNL     1       6.475  -5.183  -4.178  0.00  0.00    +0.044 A 
ATOM      7  F   UNL     1      10.024  -4.413  -3.796  0.00  0.00    -0.205 F 
ENDROOT
BRANCH   5   8
ATOM      8  C   UNL     1       8.320  -6.603  -3.292  0.00  0.00    +0.251 C 
ATOM      9  O   UNL     1       9.498  -6.730  -3.018  0.00  0.00    -0.270 OA
ATOM     10  N   UNL     1       7.463  -7.619  -3.070  0.00  0.00    -0.281 N 
ATOM     11  H   UNL     1       6.514  -7.496  -3.225  0.00  0.00    +0.155 HD
BRANCH  10  12
ATOM     12  C   UNL     1       7.943  -8.852  -2.617  0.00  0.00    +0.034 A 
ATOM     13  C   UNL     1       7.348 -10.031  -3.047  0.00  0.00    +0.023 A 
ATOM     14  C   UNL     1       7.825 -11.247  -2.598  0.00  0.00    +0.006 A 
ATOM     15  C   UNL     1       8.893 -11.291  -1.721  0.00  0.00    -0.045 A 
ATOM     16  C   UNL     1       9.487 -10.120  -1.291  0.00  0.00    +0.006 A 
ATOM     17  C   UNL     1       9.019  -8.900  -1.740  0.00  0.00    +0.023 A 
BRANCH  15  18
ATOM     18  C   UNL     1       9.410 -12.620  -1.232  0.00  0.00    +0.013 C 
ATOM     19  C   UNL     1      10.876 -12.778  -1.639  0.00  0.00    +0.012 C 
ATOM     20  C   UNL     1       9.294 -12.683   0.292  0.00  0.00    +0.012 C 
ENDBRANCH  15  18
ENDBRANCH  10  12
ENDBRANCH   5   8
BRANCH   1  21
ATOM     21  S   UNL     1       4.318  -3.809  -5.119  0.00  0.00    +0.061 S 
ATOM     22  O   UNL     1       3.799  -5.118  -5.314  0.00  0.00    -0.153 OA
ATOM     23  O   UNL     1       4.244  -2.803  -6.120  0.00  0.00    -0.153 OA
BRANCH  21  29
ATOM     24  C   UNL     1       0.796  -1.793  -1.272  0.00  0.00    +0.403 C 
ATOM     25  O   UNL     1       0.336  -2.546  -0.437  0.00  0.00    -0.226 OA
ATOM     26  N   UNL     1       1.408  -2.291  -2.365  0.00  0.00    -0.265 N 
ATOM     27  C   UNL     1       1.974  -1.392  -3.381  0.00  0.00    +0.128 C 
ATOM     28  C   UNL     1       3.453  -1.746  -3.579  0.00  0.00    +0.128 C 
ATOM     29  N   UNL     1       3.566  -3.197  -3.776  0.00  0.00    -0.174 NA
ATOM     30  C   UNL     1       3.000  -4.097  -2.761  0.00  0.00    +0.128 C 
ATOM     31  C   UNL     1       1.526  -3.743  -2.560  0.00  0.00    +0.128 C 
BRANCH  24  32
ATOM     32  O   UNL     1       0.694  -0.461  -1.106  0.00  0.00    -0.451 OA
BRANCH  32  34
ATOM     33  C   UNL     1       0.015   1.527   0.089  0.00  0.00    +0.048 C 
ATOM     34  C   UNL     1       0.034  -0.003   0.075  0.00  0.00    +0.230 C 
ENDBRANCH  32  34
ENDBRANCH  24  32
ENDBRANCH  21  29
ENDBRANCH   1  21
TORSDOF 7
