REMARK  Name = ZINC24608867
REMARK  5 active torsions:
REMARK  status: ('A' for Active; 'I' for Inactive)
REMARK    1  A    between atoms: C_1  and  C_2
REMARK    2  A    between atoms: C_7  and  C_30
REMARK    3  A    between atoms: N_12  and  C_16
REMARK    4  A    between atoms: C_16  and  N_17
REMARK    5  A    between atoms: C_21  and  C_23
REMARK                            x       y       z     vdW  Elec       q    Type
REMARK                         _______ _______ _______ _____ _____    ______ ____
ROOT
ATOM      1  C   UNL     1       1.484   2.400  -2.427  0.00  0.00    +0.010 C 
ATOM      2  C   UNL     1       2.361   2.313  -1.176  0.00  0.00    +0.019 C 
ATOM      3  C   UNL     1       3.127   0.989  -1.181  0.00  0.00    +0.006 C 
ATOM      4  C   UNL     1       3.988   0.894   0.080  0.00  0.00    +0.001 C 
ATOM      5  C   UNL     1       3.091   0.949   1.318  0.00  0.00    +0.006 C 
ATOM      6  C   UNL     1       2.324   2.274   1.332  0.00  0.00    +0.019 C 
ATOM      7  C   UNL     1       1.481   2.388   0.067  0.00  0.00    +0.118 C 
ATOM      8  C   UNL     1       0.687   3.674   0.076  0.00  0.00    +0.245 C 
ATOM      9  O   UNL     1       1.123   4.805   0.100  0.00  0.00    -0.273 OA
ATOM     10  N   UNL     1      -0.608   3.298   0.051  0.00  0.00    -0.241 N 
ATOM     11  C   UNL     1      -0.734   1.966   0.023  0.00  0.00    +0.308 C 
ATOM     12  O   UNL     1      -1.804   1.389  -0.007  0.00  0.00    -0.252 OA
ATOM     13  N   UNL     1       0.456   1.337   0.036  0.00  0.00    -0.284 N 
ATOM     14  C   UNL     1       3.317   3.437   1.390  0.00  0.00    +0.010 C 
ATOM     15  H   UNL     1       0.755   0.278   0.027  0.00  0.00    +0.151 HD
ENDROOT
BRANCH  10  16
ATOM     16  C   UNL     1      -1.737   4.232   0.049  0.00  0.00    +0.043 C 
BRANCH  16  17
ATOM     17  N   UNL     1      -2.094   4.566  -1.336  0.00  0.00    +0.395 N 
ATOM     18  C   UNL     1      -1.222   5.637  -1.864  0.00  0.00    -0.076 C 
ATOM     19  C   UNL     1      -2.131   6.452  -2.819  0.00  0.00    -0.020 C 
ATOM     20  C   UNL     1      -3.486   6.419  -2.065  0.00  0.00    -0.012 C 
ATOM     21  C   UNL     1      -3.496   5.014  -1.427  0.00  0.00    -0.036 C 
ATOM     22  H   UNL     1      -1.960   3.649  -1.929  0.00  0.00    -0.079 HD
BRANCH  21  23
ATOM     23  C   UNL     1      -4.103   5.080  -0.049  0.00  0.00    -0.061 A 
ATOM     24  C   UNL     1      -5.178   4.272   0.271  0.00  0.00    +0.005 A 
ATOM     25  C   UNL     1      -5.732   4.328   1.536  0.00  0.00    +0.038 A 
ATOM     26  C   UNL     1      -5.218   5.202   2.479  0.00  0.00    +0.123 A 
ATOM     27  C   UNL     1      -4.145   6.015   2.155  0.00  0.00    +0.038 A 
ATOM     28  C   UNL     1      -3.589   5.953   0.891  0.00  0.00    +0.005 A 
ATOM     29  F   UNL     1      -5.763   5.262   3.713  0.00  0.00    -0.205 F 
ENDBRANCH  21  23
ENDBRANCH  16  17
ENDBRANCH  10  16
TORSDOF 3
