REMARK  Name = ZINC04795223
REMARK  9 active torsions:
REMARK  status: ('A' for Active; 'I' for Inactive)
REMARK    1  A    between atoms: C_1  and  C_2
REMARK    2  A    between atoms: C_2  and  C_3
REMARK    3  A    between atoms: C_2  and  C_4
REMARK    4  A    between atoms: C_4  and  N_5
REMARK    5  A    between atoms: C_6  and  N_14
REMARK    6  A    between atoms: C_8  and  C_12
REMARK    7  A    between atoms: C_8  and  C_13
REMARK    8  A    between atoms: N_14  and  O_28
REMARK    9  A    between atoms: N_17  and  C_18
REMARK                            x       y       z     vdW  Elec       q    Type
REMARK                         _______ _______ _______ _____ _____    ______ ____
ROOT
ATOM      1  N   UNL     1      -3.385  -1.116   0.237  0.00  0.00    -0.145 N 
ATOM      2  C   UNL     1      -2.720  -0.595   1.287  0.00  0.00    +0.331 C 
ATOM      3  O   UNL     1      -2.034  -1.313   1.989  0.00  0.00    -0.250 OA
ATOM      4  N   UNL     1      -2.815   0.722   1.559  0.00  0.00    -0.267 N 
ATOM      5  H   UNL     1      -3.417   1.281   1.044  0.00  0.00    +0.156 HD
ENDROOT
BRANCH   4   6
ATOM      6  C   UNL     1      -2.047   1.280   2.582  0.00  0.00    +0.043 A 
ATOM      7  C   UNL     1      -1.747   0.543   3.708  0.00  0.00    +0.024 A 
ATOM      8  C   UNL     1      -0.978   1.089   4.732  0.00  0.00    +0.002 A 
ATOM      9  C   UNL     1      -0.505   2.364   4.653  0.00  0.00    +0.008 A 
ATOM     10  C   UNL     1      -0.793   3.150   3.525  0.00  0.00    -0.016 A 
ATOM     11  C   UNL     1      -1.575   2.606   2.476  0.00  0.00    +0.003 A 
ATOM     12  C   UNL     1      -1.860   3.392   1.349  0.00  0.00    +0.010 A 
ATOM     13  C   UNL     1      -1.384   4.666   1.278  0.00  0.00    +0.001 A 
ATOM     14  C   UNL     1      -0.615   5.202   2.309  0.00  0.00    +0.001 A 
ATOM     15  C   UNL     1      -0.318   4.469   3.416  0.00  0.00    +0.008 A 
ENDBRANCH   4   6
BRANCH   1  17
ATOM     16  N   UNL     1      -3.336  -2.782  -1.441  0.00  0.00    -0.297 N 
ATOM     17  C   UNL     1      -3.344  -2.559  -0.014  0.00  0.00    +0.209 C 
ATOM     18  C   UNL     1      -4.544  -3.219   0.697  0.00  0.00    +0.054 C 
ATOM     19  S   UNL     1      -5.399  -4.000  -0.724  0.00  0.00    -0.093 S 
ATOM     20  C   UNL     1      -4.298  -3.501  -2.032  0.00  0.00    +0.111 C 
ATOM     21  S   UNL     1      -4.442  -3.862  -3.699  0.00  0.00    -0.028 S 
ATOM     22  C   UNL     1      -4.077  -4.270   1.706  0.00  0.00    +0.026 C 
ATOM     23  C   UNL     1      -5.433  -2.170   1.368  0.00  0.00    +0.026 C 
BRANCH  16  24
ATOM     24  C   UNL     1      -2.259  -2.215  -2.255  0.00  0.00    +0.111 C 
BRANCH  24  26
ATOM     25  C   UNL     1      -1.401  -4.475  -2.885  0.00  0.00    +0.009 C 
ATOM     26  C   UNL     1      -1.046  -3.146  -2.216  0.00  0.00    +0.000 C 
ATOM     27  C   UNL     1       0.121  -2.495  -2.963  0.00  0.00    +0.009 C 
ENDBRANCH  24  26
ENDBRANCH  16  24
ENDBRANCH   1  17
BRANCH   1  28
ATOM     28  O   UNL     1      -4.123  -0.268  -0.625  0.00  0.00    -0.290 OA
ATOM     29  H   UNL     1      -4.515  -0.723  -1.383  0.00  0.00    +0.242 HD
ENDBRANCH   1  28
TORSDOF 5
