REMARK  Name = ZINC35693750
REMARK  11 active torsions:
REMARK  status: ('A' for Active; 'I' for Inactive)
REMARK    1  A    between atoms: C_1  and  C_2
REMARK    2  A    between atoms: C_2  and  O_3
REMARK    3  A    between atoms: O_3  and  C_4
REMARK    4  A    between atoms: C_4  and  C_6
REMARK    5  A    between atoms: N_9  and  C_12
REMARK    6  A    between atoms: C_14  and  C_15
REMARK    7  A    between atoms: C_20  and  C_36
REMARK    8  A    between atoms: C_21  and  C_32
REMARK    9  A    between atoms: C_22  and  C_25
REMARK   10  A    between atoms: C_32  and  O_34
REMARK   11  A    between atoms: O_34  and  C_35
REMARK                            x       y       z     vdW  Elec       q    Type
REMARK                         _______ _______ _______ _____ _____    ______ ____
ROOT
ATOM      1  C   UNL     1       5.320  -6.580  -4.034  0.00  0.00    +0.048 C 
ATOM      2  C   UNL     1       4.971  -7.885  -4.007  0.00  0.00    +0.072 C 
ATOM      3  S   UNL     1       6.521  -8.689  -4.362  0.00  0.00    -0.060 S 
ATOM      4  C   UNL     1       7.488  -7.326  -4.517  0.00  0.00    +0.166 C 
ATOM      5  N   UNL     1       8.771  -7.192  -4.783  0.00  0.00    -0.230 NA
ATOM      6  C   UNL     1       9.406  -6.035  -4.876  0.00  0.00    +0.053 C 
ATOM      7  C   UNL     1       8.726  -4.846  -4.690  0.00  0.00    +0.083 C 
ATOM      8  C   UNL     1       7.248  -4.920  -4.381  0.00  0.00    +0.151 C 
ATOM      9  N   UNL     1       6.639  -6.275  -4.307  0.00  0.00    -0.267 N 
ATOM     10  C   UNL     1      10.881  -6.013  -5.185  0.00  0.00    +0.066 C 
ENDROOT
BRANCH   8  11
ATOM     11  C   UNL     1       6.512  -4.145  -5.443  0.00  0.00    -0.004 A 
ATOM     12  C   UNL     1       5.956  -2.916  -5.142  0.00  0.00    +0.007 A 
ATOM     13  C   UNL     1       5.282  -2.204  -6.117  0.00  0.00    +0.000 A 
ATOM     14  C   UNL     1       5.163  -2.722  -7.393  0.00  0.00    +0.001 A 
ATOM     15  C   UNL     1       5.718  -3.951  -7.696  0.00  0.00    +0.020 A 
ATOM     16  C   UNL     1       6.398  -4.661  -6.722  0.00  0.00    +0.046 A 
ATOM     17 CL   UNL     1       7.102  -6.201  -7.103  0.00  0.00    -0.083 Cl
ENDBRANCH   8  11
BRANCH   1  20
ATOM     18  C   UNL     1       3.084  -5.845  -3.390  0.00  0.00    +0.241 C 
ATOM     19  O   UNL     1       2.781  -7.131  -3.088  0.00  0.00    -0.271 OA
ATOM     20  C   UNL     1       4.330  -5.522  -3.788  0.00  0.00    +0.091 C 
BRANCH  18  24
ATOM     21  C   UNL     1      -0.290  -3.489  -3.869  0.00  0.00    +0.101 C 
ATOM     22  C   UNL     1      -0.322  -4.832  -3.137  0.00  0.00    +0.033 C 
ATOM     23  C   UNL     1       0.986  -5.017  -2.361  0.00  0.00    +0.109 C 
ATOM     24  N   UNL     1       2.113  -4.863  -3.290  0.00  0.00    -0.298 N 
ATOM     25  C   UNL     1       2.191  -3.647  -4.110  0.00  0.00    +0.109 C 
ATOM     26  C   UNL     1       0.870  -3.477  -4.867  0.00  0.00    +0.033 C 
BRANCH  21  27
ATOM     27  C   UNL     1      -1.589  -3.288  -4.607  0.00  0.00    +0.310 C 
ATOM     28  O   UNL     1      -1.587  -3.150  -5.807  0.00  0.00    -0.251 OA
BRANCH  27  29
ATOM     29  O   UNL     1      -2.748  -3.263  -3.931  0.00  0.00    -0.465 OA
BRANCH  29  31
ATOM     30  C   UNL     1      -5.151  -3.069  -3.758  0.00  0.00    +0.048 C 
ATOM     31  C   UNL     1      -3.940  -3.068  -4.694  0.00  0.00    +0.229 C 
ENDBRANCH  29  31
ENDBRANCH  27  29
ENDBRANCH  21  27
ENDBRANCH  18  24
ENDBRANCH   1  20
BRANCH   7  32
ATOM     32  C   UNL     1       9.385  -3.614  -4.785  0.00  0.00    +0.339 C 
ATOM     33  O   UNL     1      10.591  -3.579  -4.955  0.00  0.00    -0.245 OA
BRANCH  32  34
ATOM     34  O   UNL     1       8.683  -2.464  -4.688  0.00  0.00    -0.465 OA
ATOM     35  C   UNL     1       9.399  -1.246  -4.904  0.00  0.00    +0.280 C 
ENDBRANCH  32  34
ENDBRANCH   7  32
TORSDOF 8
