REMARK  Name = ZINC39792765
REMARK  5 active torsions:
REMARK  status: ('A' for Active; 'I' for Inactive)
REMARK    1  A    between atoms: C_4  and  C_7
REMARK    2  A    between atoms: C_9  and  C_17
REMARK    3  A    between atoms: N_18  and  N_19
REMARK    4  A    between atoms: N_19  and  S_20
REMARK    5  A    between atoms: S_20  and  C_23
REMARK                            x       y       z     vdW  Elec       q    Type
REMARK                         _______ _______ _______ _____ _____    ______ ____
ROOT
ATOM      1  C   UNL     1       3.711  -0.707  -0.038  0.00  0.00    +0.142 C 
ATOM      2  C   UNL     1       4.019  -1.195  -1.436  0.00  0.00    +0.008 C 
ATOM      3  C   UNL     1       4.096  -2.661  -1.331  0.00  0.00    +0.005 A 
ATOM      4  C   UNL     1       4.351  -3.643  -2.295  0.00  0.00    +0.010 A 
ATOM      5  C   UNL     1       4.368  -4.972  -1.934  0.00  0.00    +0.001 A 
ATOM      6  C   UNL     1       4.133  -5.339  -0.618  0.00  0.00    +0.002 A 
ATOM      7  C   UNL     1       3.881  -4.382   0.343  0.00  0.00    +0.026 A 
ATOM      8  C   UNL     1       3.858  -3.032   0.001  0.00  0.00    +0.044 A 
ATOM      9  N   UNL     1       3.629  -1.912   0.794  0.00  0.00    -0.373 N 
ATOM     10  H   UNL     1       3.444  -1.925   1.746  0.00  0.00    +0.161 HD
ENDROOT
BRANCH   1  14
ATOM     11  C   UNL     1      -0.017   1.378   0.010  0.00  0.00    +0.000 A 
ATOM     12  C   UNL     1       1.171   2.086   0.002  0.00  0.00    +0.000 A 
ATOM     13  C   UNL     1       2.377   1.411  -0.013  0.00  0.00    +0.006 A 
ATOM     14  C   UNL     1       2.396   0.029  -0.020  0.00  0.00    -0.021 A 
ATOM     15  C   UNL     1       1.208  -0.679  -0.012  0.00  0.00    +0.006 A 
ATOM     16  C   UNL     1       0.002  -0.004   0.002  0.00  0.00    +0.000 A 
ENDBRANCH   1  14
BRANCH   2  17
ATOM     17  C   UNL     1       4.187  -0.444  -2.546  0.00  0.00    +0.140 C 
ATOM     18  N   UNL     1       4.458  -1.037  -3.726  0.00  0.00    -0.149 NA
BRANCH  18  19
ATOM     19  N   UNL     1       4.612  -0.347  -4.745  0.00  0.00    +0.006 NA
BRANCH  19  20
ATOM     20  S   UNL     1       4.946  -1.075  -6.194  0.00  0.00    +0.108 S 
ATOM     21  O   UNL     1       6.232  -1.666  -6.066  0.00  0.00    -0.147 OA
ATOM     22  O   UNL     1       3.794  -1.829  -6.545  0.00  0.00    -0.147 OA
BRANCH  20  23
ATOM     23  C   UNL     1       5.097   0.203  -7.397  0.00  0.00    +0.112 A 
ATOM     24  C   UNL     1       3.983   0.630  -8.095  0.00  0.00    +0.030 A 
ATOM     25  C   UNL     1       4.101   1.633  -9.039  0.00  0.00    +0.017 A 
ATOM     26  C   UNL     1       5.334   2.210  -9.284  0.00  0.00    +0.018 A 
ATOM     27  C   UNL     1       6.448   1.783  -8.585  0.00  0.00    +0.017 A 
ATOM     28  C   UNL     1       6.329   0.783  -7.639  0.00  0.00    +0.030 A 
ATOM     29 BR   UNL     1       5.496   3.583 -10.575  0.00  0.00    -0.050 Br
ENDBRANCH  20  23
ENDBRANCH  19  20
ENDBRANCH  18  19
ENDBRANCH   2  17
TORSDOF 5
