REMARK  Name = ZINC39864144
REMARK  7 active torsions:
REMARK  status: ('A' for Active; 'I' for Inactive)
REMARK    1  A    between atoms: C_1  and  C_2
REMARK    2  A    between atoms: C_2  and  O_3
REMARK    3  A    between atoms: O_3  and  C_4
REMARK    4  A    between atoms: C_6  and  C_11
REMARK    5  A    between atoms: C_9  and  O_10
REMARK    6  A    between atoms: N_15  and  C_26
REMARK    7  A    between atoms: N_17  and  C_18
REMARK                            x       y       z     vdW  Elec       q    Type
REMARK                         _______ _______ _______ _____ _____    ______ ____
ROOT
ATOM      1  C   UNL     1       0.045  -4.938   0.526  0.00  0.00    +0.028 C 
ATOM      2  C   UNL     1       0.001  -6.279   0.317  0.00  0.00    +0.078 C 
ATOM      3  C   UNL     1      -0.645  -7.331   1.125  0.00  0.00    +0.259 C 
ATOM      4  O   UNL     1      -1.252  -7.066   2.146  0.00  0.00    -0.269 OA
ATOM      5  N   UNL     1      -0.534  -8.574   0.689  0.00  0.00    -0.243 N 
ATOM      6  C   UNL     1       0.157  -8.853  -0.470  0.00  0.00    +0.169 C 
ATOM      7  N   UNL     1       0.361 -10.020  -1.040  0.00  0.00    -0.222 NA
ATOM      8  S   UNL     1       0.701  -7.242  -1.015  0.00  0.00    -0.049 S 
ENDROOT
BRANCH   7   9
ATOM      9  C   UNL     1      -0.013 -11.169  -0.397  0.00  0.00    +0.103 A 
ATOM     10  C   UNL     1      -1.216 -11.807  -0.721  0.00  0.00    +0.032 A 
ATOM     11  C   UNL     1      -1.547 -12.967  -0.042  0.00  0.00    +0.022 A 
ATOM     12  C   UNL     1      -0.687 -13.455   0.926  0.00  0.00    +0.112 A 
ATOM     13  N   UNL     1       0.441 -12.833   1.212  0.00  0.00    -0.241 NA
ATOM     14  C   UNL     1       0.804 -11.730   0.590  0.00  0.00    +0.154 A 
ATOM     15 CL   UNL     1       2.305 -10.961   1.004  0.00  0.00    -0.060 Cl
ENDBRANCH   7   9
BRANCH   1  18
ATOM     16  C   UNL     1       1.493  -1.910  -1.148  0.00  0.00    +0.162 A 
ATOM     17  C   UNL     1       0.697  -2.703  -0.345  0.00  0.00    +0.057 A 
ATOM     18  C   UNL     1       0.888  -4.090  -0.326  0.00  0.00    -0.020 A 
ATOM     19  C   UNL     1       1.886  -4.665  -1.122  0.00  0.00    +0.012 A 
ATOM     20  C   UNL     1       2.676  -3.866  -1.920  0.00  0.00    +0.050 A 
ATOM     21  C   UNL     1       2.481  -2.492  -1.942  0.00  0.00    +0.158 A 
BRANCH  21  22
ATOM     22  O   UNL     1       3.259  -1.710  -2.735  0.00  0.00    -0.503 OA
ATOM     23  H   UNL     1       4.066  -1.395  -2.306  0.00  0.00    +0.292 HD
ENDBRANCH  21  22
BRANCH  16  24
ATOM     24  O   UNL     1       1.310  -0.563  -1.169  0.00  0.00    -0.489 OA
BRANCH  24  26
ATOM     25  C   UNL     1       0.224   1.486  -0.489  0.00  0.00    +0.048 C 
ATOM     26  C   UNL     1       0.280  -0.035  -0.332  0.00  0.00    +0.226 C 
ENDBRANCH  24  26
ENDBRANCH  16  24
ENDBRANCH   1  18
BRANCH   5  27
ATOM     27  C   UNL     1      -1.152  -9.666   1.445  0.00  0.00    +0.084 C 
ATOM     28  C   UNL     1      -2.670  -9.475   1.469  0.00  0.00    +0.023 C 
ATOM     29  C   UNL     1      -3.315 -10.615   2.259  0.00  0.00    +0.002 C 
ATOM     30  C   UNL     1      -2.779 -10.611   3.692  0.00  0.00    +0.000 C 
ATOM     31  C   UNL     1      -1.261 -10.802   3.668  0.00  0.00    +0.002 C 
ATOM     32  C   UNL     1      -0.615  -9.661   2.878  0.00  0.00    +0.023 C 
ENDBRANCH   5  27
TORSDOF 6
