REMARK  Name = ZINC33306527
REMARK  11 active torsions:
REMARK  status: ('A' for Active; 'I' for Inactive)
REMARK    1  A    between atoms: C_1  and  C_2
REMARK    2  A    between atoms: C_2  and  C_3
REMARK    3  A    between atoms: N_5  and  C_6
REMARK    4  A    between atoms: C_7  and  C_30
REMARK    5  A    between atoms: C_10  and  C_11
REMARK    6  A    between atoms: C_12  and  C_13
REMARK    7  A    between atoms: C_16  and  S_18
REMARK    8  A    between atoms: S_18  and  N_21
REMARK    9  A    between atoms: N_21  and  C_22
REMARK   10  A    between atoms: C_24  and  C_29
REMARK   11  A    between atoms: C_27  and  C_28
REMARK                            x       y       z     vdW  Elec       q    Type
REMARK                         _______ _______ _______ _____ _____    ______ ____
ROOT
ATOM      1  C   UNL     1       0.844   4.782  -1.923  0.00  0.00    +0.014 A 
ATOM      2  C   UNL     1      -0.448   4.530  -2.360  0.00  0.00    +0.017 A 
ATOM      3  C   UNL     1      -0.732   3.287  -2.873  0.00  0.00    +0.037 A 
ATOM      4  C   UNL     1       0.249   2.348  -2.926  0.00  0.00    +0.146 A 
ATOM      5  S   UNL     1       1.649   3.221  -2.245  0.00  0.00    -0.069 S 
ENDROOT
BRANCH   4   6
ATOM      6  S   UNL     1       0.163   0.692  -3.522  0.00  0.00    +0.079 S 
ATOM      7  O   UNL     1       1.211  -0.024  -2.884  0.00  0.00    -0.149 OA
ATOM      8  O   UNL     1      -1.198   0.296  -3.427  0.00  0.00    -0.149 OA
BRANCH   6   9
ATOM      9  N   UNL     1       0.532   0.733  -5.136  0.00  0.00    -0.216 N 
ATOM     10  H   UNL     1      -0.203   0.387  -5.877  0.00  0.00    +0.174 HD
BRANCH   9  11
ATOM     11  C   UNL     1       1.777   1.207  -5.556  0.00  0.00    +0.051 A 
ATOM     12  C   UNL     1       2.908   0.972  -4.784  0.00  0.00    +0.028 A 
ATOM     13  C   UNL     1       4.138   1.438  -5.205  0.00  0.00    -0.049 A 
ATOM     14  C   UNL     1       4.243   2.147  -6.387  0.00  0.00    +0.004 A 
ATOM     15  C   UNL     1       3.119   2.387  -7.155  0.00  0.00    +0.005 A 
ATOM     16  C   UNL     1       1.886   1.919  -6.743  0.00  0.00    -0.028 A 
ATOM     17  C   UNL     1       0.661   2.182  -7.581  0.00  0.00    +0.046 C 
ATOM     18  C   UNL     1       5.366   1.180  -4.370  0.00  0.00    +0.044 C 
ENDBRANCH   9  11
ENDBRANCH   6   9
ENDBRANCH   4   6
BRANCH   1  20
ATOM     19  C   UNL     1       2.703   6.050  -0.982  0.00  0.00    +0.052 C 
ATOM     20  C   UNL     1       1.401   6.006  -1.349  0.00  0.00    +0.019 C 
BRANCH  19  25
ATOM     21  C   UNL     1       4.564   7.462   0.010  0.00  0.00    +0.103 A 
ATOM     22  C   UNL     1       4.669   8.778   0.492  0.00  0.00    +0.102 A 
ATOM     23  N   UNL     1       3.505   9.354   0.376  0.00  0.00    -0.081 NA
ATOM     24  O   UNL     1       2.597   8.430  -0.195  0.00  0.00    -0.353 OA
ATOM     25  C   UNL     1       3.260   7.273  -0.409  0.00  0.00    +0.182 A 
ATOM     26  C   UNL     1       5.916   9.415   1.050  0.00  0.00    +0.071 C 
BRANCH  21  29
ATOM     27  C   UNL     1       6.870   6.912  -0.223  0.00  0.00    +0.217 C 
ATOM     28  O   UNL     1       7.116   8.082  -0.427  0.00  0.00    -0.275 OA
ATOM     29  N   UNL     1       5.596   6.513  -0.040  0.00  0.00    -0.281 N 
ATOM     30  H   UNL     1       5.365   5.444   0.071  0.00  0.00    +0.155 HD
BRANCH  27  32
ATOM     31  C   UNL     1       9.325   6.613  -0.409  0.00  0.00    +0.013 C 
ATOM     32  C   UNL     1       7.990   5.904  -0.173  0.00  0.00    +0.093 C 
ENDBRANCH  27  32
ENDBRANCH  21  29
ENDBRANCH  19  25
ENDBRANCH   1  20
TORSDOF 7
