REMARK  Name = ZINC31056638
REMARK  9 active torsions:
REMARK  status: ('A' for Active; 'I' for Inactive)
REMARK    1  A    between atoms: C_4  and  C_8
REMARK    2  A    between atoms: C_8  and  S_9
REMARK    3  A    between atoms: S_9  and  C_10
REMARK    4  A    between atoms: C_10  and  C_11
REMARK    5  A    between atoms: C_11  and  N_12
REMARK    6  A    between atoms: C_13  and  C_15
REMARK    7  A    between atoms: N_20  and  C_22
REMARK    8  A    between atoms: C_22  and  C_23
REMARK    9  A    between atoms: C_25  and  C_28
REMARK                            x       y       z     vdW  Elec       q    Type
REMARK                         _______ _______ _______ _____ _____    ______ ____
ROOT
ATOM      1  C   UNL     1      -3.416   3.310  -2.850  0.00  0.00    +0.058 C 
ATOM      2  C   UNL     1      -2.389   4.152  -3.612  0.00  0.00    +0.009 C 
ATOM      3  C   UNL     1      -1.017   3.478  -3.518  0.00  0.00    -0.018 C 
ATOM      4  C   UNL     1      -0.633   3.316  -2.046  0.00  0.00    -0.078 C 
ATOM      5  N   UNL     1      -1.646   2.503  -1.361  0.00  0.00    +0.386 N 
ATOM      6  C   UNL     1      -2.962   3.153  -1.397  0.00  0.00    -0.065 C 
ATOM      7  H   UNL     1      -1.729   1.547  -1.900  0.00  0.00    -0.081 HD
ENDROOT
BRANCH   1   9
ATOM      8  N   UNL     1      -5.355   4.242  -4.070  0.00  0.00    -0.314 N 
ATOM      9  C   UNL     1      -4.757   3.997  -2.888  0.00  0.00    +0.214 C 
ATOM     10  O   UNL     1      -5.297   4.328  -1.854  0.00  0.00    -0.276 OA
ATOM     11  H   UNL     1      -4.865   3.942  -5.008  0.00  0.00    +0.149 HD
BRANCH   8  12
ATOM     12  C   UNL     1      -6.659   4.910  -4.106  0.00  0.00    +0.115 C 
BRANCH  12  13
ATOM     13  C   UNL     1      -7.111   5.067  -5.559  0.00  0.00    +0.088 C 
BRANCH  13  14
ATOM     14  S   UNL     1      -8.725   5.893  -5.604  0.00  0.00    -0.154 S 
BRANCH  14  15
ATOM     15  C   UNL     1      -9.114   6.001  -7.373  0.00  0.00    +0.108 C 
BRANCH  15  19
ATOM     16  C   UNL     1     -12.900   7.918  -7.885  0.00  0.00    +0.004 A 
ATOM     17  C   UNL     1     -11.742   8.673  -7.858  0.00  0.00    +0.039 A 
ATOM     18  C   UNL     1     -10.515   8.053  -7.692  0.00  0.00    +0.129 A 
ATOM     19  C   UNL     1     -10.449   6.677  -7.554  0.00  0.00    +0.016 A 
ATOM     20  C   UNL     1     -11.608   5.923  -7.587  0.00  0.00    +0.048 A 
ATOM     21  C   UNL     1     -12.834   6.545  -7.747  0.00  0.00    +0.020 A 
ATOM     22 CL   UNL     1     -11.525   4.197  -7.420  0.00  0.00    -0.083 Cl
ATOM     23  F   UNL     1      -9.383   8.790  -7.665  0.00  0.00    -0.205 F 
ENDBRANCH  15  19
ENDBRANCH  14  15
ENDBRANCH  13  14
ENDBRANCH  12  13
ENDBRANCH   8  12
ENDBRANCH   1   9
BRANCH   5  24
ATOM     24  C   UNL     1      -1.241   2.210   0.020  0.00  0.00    +0.022 C 
BRANCH  24  25
ATOM     25  C   UNL     1      -0.016   1.333   0.009  0.00  0.00    +0.211 A 
ATOM     26  N   UNL     1       1.229   1.737  -0.000  0.00  0.00    -0.192 NA
ATOM     27  C   UNL     1       1.978   0.608  -0.014  0.00  0.00    +0.209 A 
ATOM     28  N   UNL     1       1.147  -0.405  -0.011  0.00  0.00    -0.056 NA
ATOM     29  O   UNL     1       0.002  -0.004   0.002  0.00  0.00    -0.340 OA
BRANCH  27  30
ATOM     30  C   UNL     1       3.453   0.534  -0.028  0.00  0.00    +0.060 A 
ATOM     31  C   UNL     1       4.261  -0.572  -0.041  0.00  0.00    +0.019 A 
ATOM     32  C   UNL     1       5.626  -0.395  -0.053  0.00  0.00    +0.008 A 
ATOM     33  C   UNL     1       6.129   0.867  -0.052  0.00  0.00    +0.046 A 
ATOM     34  S   UNL     1       4.646   1.861  -0.041  0.00  0.00    -0.093 S 
ENDBRANCH  27  30
ENDBRANCH  24  25
ENDBRANCH   5  24
TORSDOF 9
