REMARK  Name = ZINC13025576
REMARK  16 active torsions:
REMARK  status: ('A' for Active; 'I' for Inactive)
REMARK    1  A    between atoms: C_1  and  C_2
REMARK    2  A    between atoms: C_4  and  C_14
REMARK    3  A    between atoms: C_5  and  C_13
REMARK    4  A    between atoms: N_6  and  C_7
REMARK    5  A    between atoms: C_7  and  C_8
REMARK    6  A    between atoms: C_8  and  C_9
REMARK    7  A    between atoms: C_9  and  O_11
REMARK    8  A    between atoms: O_11  and  C_12
REMARK    9  A    between atoms: C_14  and  C_16
REMARK   10  A    between atoms: C_16  and  S_17
REMARK   11  A    between atoms: S_17  and  C_18
REMARK   12  A    between atoms: N_28  and  C_29
REMARK   13  A    between atoms: C_29  and  C_31
REMARK   14  A    between atoms: C_29  and  C_34
REMARK   15  A    between atoms: C_31  and  C_32
REMARK   16  A    between atoms: C_31  and  C_33
REMARK                            x       y       z     vdW  Elec       q    Type
REMARK                         _______ _______ _______ _____ _____    ______ ____
ROOT
ATOM      1  C   UNL     1       6.832  -1.656  -0.071  0.00  0.00    +0.173 A 
ATOM      2  N   UNL     1       6.013  -2.679  -0.069  0.00  0.00    -0.223 NA
ATOM      3  C   UNL     1       6.467  -3.948  -0.081  0.00  0.00    +0.079 A 
ATOM      4  C   UNL     1       5.594  -5.039  -0.078  0.00  0.00    +0.028 A 
ATOM      5  C   UNL     1       6.098  -6.309  -0.090  0.00  0.00    +0.002 A 
ATOM      6  C   UNL     1       7.468  -6.534  -0.104  0.00  0.00    +0.001 A 
ATOM      7  C   UNL     1       8.348  -5.487  -0.107  0.00  0.00    +0.015 A 
ATOM      8  C   UNL     1       7.862  -4.181  -0.095  0.00  0.00    +0.065 A 
ATOM      9  C   UNL     1       8.759  -3.018  -0.097  0.00  0.00    +0.263 A 
ATOM     10  O   UNL     1       9.969  -3.154  -0.109  0.00  0.00    -0.267 OA
ATOM     11  N   UNL     1       8.191  -1.790  -0.090  0.00  0.00    -0.273 N 
ENDROOT
BRANCH   1  12
ATOM     12  S   UNL     1       6.148  -0.032  -0.056  0.00  0.00    -0.080 S 
BRANCH  12  13
ATOM     13  C   UNL     1       4.383  -0.435  -0.042  0.00  0.00    +0.157 C 
BRANCH  13  14
ATOM     14  C   UNL     1       3.577   0.839  -0.027  0.00  0.00    +0.175 C 
ATOM     15  O   UNL     1       4.141   1.913  -0.026  0.00  0.00    -0.291 OA
BRANCH  14  19
ATOM     16  C   UNL     1      -1.214  -0.894   0.008  0.00  0.00    +0.063 C 
ATOM     17  C   UNL     1       0.002  -0.004   0.002  0.00  0.00    +0.017 A 
ATOM     18  C   UNL     1       1.277  -0.428  -0.012  0.00  0.00    +0.034 A 
ATOM     19  C   UNL     1       2.114   0.779  -0.014  0.00  0.00    +0.039 A 
ATOM     20  C   UNL     1       1.237   1.848   0.000  0.00  0.00    +0.026 A 
ATOM     21  N   UNL     1      -0.016   1.361   0.009  0.00  0.00    -0.347 N 
ATOM     22  C   UNL     1       1.619   3.305   0.004  0.00  0.00    +0.064 C 
BRANCH  21  23
ATOM     23  C   UNL     1      -1.231   2.180   0.020  0.00  0.00    +0.133 C 
BRANCH  23  24
ATOM     24  C   UNL     1      -1.646   2.458   1.466  0.00  0.00    +0.142 C 
BRANCH  24  25
ATOM     25  C   UNL     1      -2.896   3.300   1.477  0.00  0.00    +0.309 C 
ATOM     26  O   UNL     1      -3.402   3.643   0.435  0.00  0.00    -0.251 OA
BRANCH  25  27
ATOM     27  O   UNL     1      -3.446   3.670   2.644  0.00  0.00    -0.468 OA
ATOM     28  C   UNL     1      -4.649   4.481   2.578  0.00  0.00    +0.280 C 
ENDBRANCH  25  27
ENDBRANCH  24  25
ENDBRANCH  23  24
ENDBRANCH  21  23
ENDBRANCH  14  19
ENDBRANCH  13  14
ENDBRANCH  12  13
ENDBRANCH   1  12
BRANCH  11  29
ATOM     29  C   UNL     1       9.039  -0.595  -0.097  0.00  0.00    +0.208 C 
BRANCH  29  30
ATOM     30  C   UNL     1       9.905  -0.592  -1.358  0.00  0.00    +0.017 C 
ATOM     31  C   UNL     1       9.005  -0.586  -2.595  0.00  0.00    +0.010 C 
ATOM     32  C   UNL     1      10.792   0.655  -1.365  0.00  0.00    +0.010 C 
ENDBRANCH  29  30
BRANCH  29  33
ATOM     33  C   UNL     1       9.926  -0.602   1.121  0.00  0.00    +0.379 C 
ATOM     34  O   UNL     1       9.856  -1.511   1.914  0.00  0.00    -0.244 OA
ATOM     35  O   UNL     1      10.793   0.402   1.326  0.00  0.00    -0.244 OA
ENDBRANCH  29  33
ENDBRANCH  11  29
TORSDOF 11
