REMARK  Name = ZINC14641597
REMARK  8 active torsions:
REMARK  status: ('A' for Active; 'I' for Inactive)
REMARK    1  A    between atoms: C_1  and  N_2
REMARK    2  A    between atoms: N_2  and  C_3
REMARK    3  A    between atoms: N_2  and  C_17
REMARK    4  A    between atoms: C_3  and  C_4
REMARK    5  A    between atoms: N_6  and  C_7
REMARK    6  A    between atoms: C_12  and  C_13
REMARK    7  A    between atoms: C_17  and  C_18
REMARK    8  A    between atoms: C_23  and  C_26
REMARK                            x       y       z     vdW  Elec       q    Type
REMARK                         _______ _______ _______ _____ _____    ______ ____
ROOT
ATOM      1  C   UNL     1      -0.012   1.479   0.006  0.00  0.00    -0.095 C 
ATOM      2  N   UNL     1      -0.002   0.010  -0.006  0.00  0.00    +0.389 N 
ATOM      3  H   UNL     1       0.481  -0.330   0.812  0.00  0.00    -0.081 HD
ENDROOT
BRANCH   2   4
ATOM      4  C   UNL     1       0.686  -0.465  -1.214  0.00  0.00    +0.019 C 
BRANCH   4   5
ATOM      5  C   UNL     1       2.136  -0.057  -1.159  0.00  0.00    +0.201 C 
ATOM      6  O   UNL     1       2.554   0.568  -0.208  0.00  0.00    -0.278 OA
ATOM      7  N   UNL     1       2.967  -0.387  -2.168  0.00  0.00    -0.287 N 
ATOM      8  H   UNL     1       2.653  -0.954  -2.889  0.00  0.00    +0.155 HD
BRANCH   7   9
ATOM      9  C   UNL     1       4.283   0.090  -2.174  0.00  0.00    +0.045 A 
ATOM     10  C   UNL     1       4.603   1.258  -1.494  0.00  0.00    +0.024 A 
ATOM     11  C   UNL     1       5.903   1.725  -1.502  0.00  0.00    +0.002 A 
ATOM     12  C   UNL     1       6.884   1.032  -2.187  0.00  0.00    +0.001 A 
ATOM     13  C   UNL     1       6.568  -0.131  -2.865  0.00  0.00    +0.014 A 
ATOM     14  C   UNL     1       5.272  -0.607  -2.855  0.00  0.00    +0.076 A 
BRANCH  14  15
ATOM     15  C   UNL     1       4.930  -1.878  -3.589  0.00  0.00    +0.419 C 
ATOM     16  F   UNL     1       6.082  -2.393  -4.193  0.00  0.00    -0.166 F 
ATOM     17  F   UNL     1       4.418  -2.815  -2.685  0.00  0.00    -0.166 F 
ATOM     18  F   UNL     1       3.971  -1.606  -4.571  0.00  0.00    -0.166 F 
ENDBRANCH  14  15
ENDBRANCH   7   9
ENDBRANCH   4   5
ENDBRANCH   2   4
BRANCH   2  19
ATOM     19  C   UNL     1      -1.384  -0.489  -0.002  0.00  0.00    +0.019 C 
BRANCH  19  20
ATOM     20  C   UNL     1      -2.052  -0.106   1.293  0.00  0.00    +0.202 C 
ATOM     21  O   UNL     1      -1.438   0.521   2.130  0.00  0.00    -0.277 OA
ATOM     22  N   UNL     1      -3.332  -0.460   1.522  0.00  0.00    -0.266 N 
ATOM     23  C   UNL     1      -3.949  -0.106   2.716  0.00  0.00    +0.165 A 
ATOM     24  N   UNL     1      -5.177  -0.359   3.129  0.00  0.00    -0.225 NA
ATOM     25  C   UNL     1      -5.604   0.058   4.311  0.00  0.00    +0.080 A 
ATOM     26  C   UNL     1      -4.758   0.763   5.120  0.00  0.00    +0.076 A 
ATOM     27  S   UNL     1      -3.286   0.804   4.104  0.00  0.00    -0.060 S 
ATOM     28  H   UNL     1      -3.824  -0.962   0.852  0.00  0.00    +0.157 HD
BRANCH  25  29
ATOM     29  C   UNL     1      -6.989  -0.237   4.753  0.00  0.00    +0.004 A 
ATOM     30  C   UNL     1      -7.436   0.209   5.996  0.00  0.00    +0.013 A 
ATOM     31  C   UNL     1      -8.725  -0.067   6.404  0.00  0.00    +0.042 A 
ATOM     32  C   UNL     1      -9.575  -0.787   5.581  0.00  0.00    +0.158 A 
ATOM     33  C   UNL     1      -9.136  -1.234   4.343  0.00  0.00    +0.159 A 
ATOM     34  C   UNL     1      -7.848  -0.957   3.925  0.00  0.00    +0.051 A 
ATOM     35  F   UNL     1      -9.969  -1.937   3.545  0.00  0.00    -0.202 F 
ATOM     36  F   UNL     1     -10.836  -1.056   5.986  0.00  0.00    -0.202 F 
ENDBRANCH  25  29
ENDBRANCH  19  20
ENDBRANCH   2  19
TORSDOF 7
