REMARK  Name = ZINC06217543
REMARK  11 active torsions:
REMARK  status: ('A' for Active; 'I' for Inactive)
REMARK    1  A    between atoms: C_1  and  C_2
REMARK    2  A    between atoms: C_6  and  N_9
REMARK    3  A    between atoms: C_7  and  C_8
REMARK    4  A    between atoms: N_12  and  C_13
REMARK    5  A    between atoms: C_13  and  C_14
REMARK    6  A    between atoms: C_17  and  N_22
REMARK    7  A    between atoms: C_19  and  C_20
REMARK    8  A    between atoms: C_19  and  C_21
REMARK    9  A    between atoms: N_25  and  C_26
REMARK   10  A    between atoms: C_30  and  C_33
REMARK   11  A    between atoms: C_31  and  C_32
REMARK                            x       y       z     vdW  Elec       q    Type
REMARK                         _______ _______ _______ _____ _____    ______ ____
ROOT
ATOM      1  C   UNL     1       0.557   2.948   0.763  0.00  0.00    +0.015 C 
ATOM      2  C   UNL     1       1.118   1.958  -0.271  0.00  0.00    +0.028 C 
ATOM      3  C   UNL     1      -0.274   1.305  -0.284  0.00  0.00    +0.081 C 
ATOM      4  C   UNL     1      -0.460   1.858   1.139  0.00  0.00    -0.012 C 
ATOM      5  C   UNL     1      -1.866   2.398   1.407  0.00  0.00    +0.013 C 
ATOM      6  C   UNL     1       0.033   0.911   2.235  0.00  0.00    +0.013 C 
ENDROOT
BRANCH   3   7
ATOM      7  N   UNL     1      -0.234  -0.159  -0.344  0.00  0.00    -0.296 N 
ATOM      8  C   UNL     1      -0.520  -0.794  -1.498  0.00  0.00    +0.304 C 
ATOM      9  O   UNL     1      -0.810  -0.152  -2.489  0.00  0.00    -0.253 OA
ATOM     10  N   UNL     1      -0.483  -2.140  -1.553  0.00  0.00    -0.269 N 
ATOM     11  H   UNL     1      -0.003  -0.670   0.447  0.00  0.00    +0.151 HD
ATOM     12  H   UNL     1      -0.173  -2.648  -0.787  0.00  0.00    +0.156 HD
BRANCH  10  13
ATOM     13  C   UNL     1      -0.894  -2.804  -2.714  0.00  0.00    +0.038 A 
ATOM     14  C   UNL     1      -1.787  -2.195  -3.585  0.00  0.00    +0.023 A 
ATOM     15  C   UNL     1      -2.190  -2.853  -4.731  0.00  0.00    +0.002 A 
ATOM     16  C   UNL     1      -1.705  -4.117  -5.011  0.00  0.00    +0.004 A 
ATOM     17  C   UNL     1      -0.815  -4.726  -4.146  0.00  0.00    -0.046 A 
ATOM     18  C   UNL     1      -0.404  -4.071  -3.001  0.00  0.00    -0.026 A 
ATOM     19  C   UNL     1       0.571  -4.733  -2.062  0.00  0.00    +0.046 C 
ATOM     20  C   UNL     1      -0.288  -6.104  -4.455  0.00  0.00    +0.044 C 
ENDBRANCH  10  13
ENDBRANCH   3   7
BRANCH   1  21
ATOM     21  C   UNL     1       1.540   3.283   1.887  0.00  0.00    +0.110 C 
BRANCH  21  25
ATOM     22  N   UNL     1       4.208   5.813   1.882  0.00  0.00    -0.269 N 
ATOM     23  C   UNL     1       3.387   4.822   2.283  0.00  0.00    +0.304 C 
ATOM     24  O   UNL     1       3.507   4.346   3.395  0.00  0.00    -0.253 OA
ATOM     25  N   UNL     1       2.433   4.360   1.451  0.00  0.00    -0.299 N 
ATOM     26  H   UNL     1       4.069   6.240   1.022  0.00  0.00    +0.156 HD
ATOM     27  H   UNL     1       2.337   4.740   0.564  0.00  0.00    +0.150 HD
BRANCH  22  33
ATOM     28  C   UNL     1       8.800   7.506   2.353  0.00  0.00    +0.044 C 
ATOM     29  C   UNL     1       7.498   7.051   2.961  0.00  0.00    -0.046 A 
ATOM     30  C   UNL     1       7.342   7.044   4.335  0.00  0.00    +0.004 A 
ATOM     31  C   UNL     1       6.149   6.628   4.897  0.00  0.00    +0.002 A 
ATOM     32  C   UNL     1       5.106   6.224   4.086  0.00  0.00    +0.023 A 
ATOM     33  C   UNL     1       5.261   6.226   2.706  0.00  0.00    +0.038 A 
ATOM     34  C   UNL     1       6.461   6.644   2.145  0.00  0.00    -0.026 A 
ATOM     35  C   UNL     1       6.631   6.653   0.648  0.00  0.00    +0.046 C 
ENDBRANCH  22  33
ENDBRANCH  21  25
ENDBRANCH   1  21
TORSDOF 5
