REMARK  Name = ZINC39301769
REMARK  11 active torsions:
REMARK  status: ('A' for Active; 'I' for Inactive)
REMARK    1  A    between atoms: C_1  and  C_2
REMARK    2  A    between atoms: C_3  and  C_18
REMARK    3  A    between atoms: C_4  and  C_17
REMARK    4  A    between atoms: N_5  and  C_7
REMARK    5  A    between atoms: C_10  and  C_13
REMARK    6  A    between atoms: C_18  and  C_19
REMARK    7  A    between atoms: C_19  and  C_20
REMARK    8  A    between atoms: N_22  and  C_23
REMARK    9  A    between atoms: C_23  and  C_24
REMARK   10  A    between atoms: N_27  and  C_30
REMARK   11  A    between atoms: C_30  and  C_31
REMARK                            x       y       z     vdW  Elec       q    Type
REMARK                         _______ _______ _______ _____ _____    ______ ____
ROOT
ATOM      1  C   UNL     1       1.039  -0.010  -3.159  0.00  0.00    +0.100 C 
ENDROOT
BRANCH   1   2
ATOM      2  C   UNL     1       0.847   0.454  -4.580  0.00  0.00    +0.213 C 
ATOM      3  O   UNL     1      -0.266   0.498  -5.059  0.00  0.00    -0.276 OA
ATOM      4  N   UNL     1       1.913   0.820  -5.320  0.00  0.00    -0.315 N 
ATOM      5  H   UNL     1       2.804   0.784  -4.937  0.00  0.00    +0.149 HD
BRANCH   4   6
ATOM      6  C   UNL     1       1.727   1.270  -6.701  0.00  0.00    +0.107 C 
BRANCH   6   7
ATOM      7  C   UNL     1       3.085   1.623  -7.310  0.00  0.00    +0.003 C 
ATOM      8  C   UNL     1       3.678   2.830  -6.577  0.00  0.00    -0.014 C 
ATOM      9  C   UNL     1       4.997   3.227  -7.241  0.00  0.00    -0.078 C 
ATOM     10  N   UNL     1       4.756   3.576  -8.646  0.00  0.00    +0.382 N 
ATOM     11  C   UNL     1       4.255   2.404  -9.373  0.00  0.00    -0.078 C 
ATOM     12  C   UNL     1       2.907   1.975  -8.790  0.00  0.00    -0.014 C 
ATOM     13  H   UNL     1       4.073   4.318  -8.695  0.00  0.00    -0.081 HD
BRANCH  10  14
ATOM     14  C   UNL     1       6.012   4.031  -9.259  0.00  0.00    -0.042 C 
BRANCH  14  15
ATOM     15  C   UNL     1       5.742   4.506 -10.663  0.00  0.00    -0.057 A 
ATOM     16  C   UNL     1       5.810   3.626 -11.727  0.00  0.00    +0.009 A 
ATOM     17  C   UNL     1       5.562   4.085 -12.977  0.00  0.00    +0.045 A 
ATOM     18  S   UNL     1       5.220   5.811 -12.675  0.00  0.00    -0.105 S 
ATOM     19  C   UNL     1       5.425   5.802 -10.902  0.00  0.00    +0.047 A 
ENDBRANCH  14  15
ENDBRANCH  10  14
ENDBRANCH   6   7
ENDBRANCH   4   6
ENDBRANCH   1   2
BRANCH   1  20
ATOM     20  C   UNL     1      -0.319  -0.363  -2.550  0.00  0.00    +0.048 C 
BRANCH  20  23
ATOM     21  C   UNL     1      -0.340   1.478   0.029  0.00  0.00    +0.068 C 
ATOM     22  C   UNL     1      -0.137  -0.015   0.010  0.00  0.00    +0.064 A 
ATOM     23  C   UNL     1      -0.127  -0.827  -1.129  0.00  0.00    -0.003 A 
ATOM     24  C   UNL     1       0.084  -2.102  -0.730  0.00  0.00    +0.045 A 
ATOM     25  N   UNL     1       0.204  -2.097   0.617  0.00  0.00    -0.236 N 
ATOM     26  N   UNL     1       0.066  -0.774   1.056  0.00  0.00    -0.171 NA
ATOM     27  C   UNL     1       0.170  -3.312  -1.625  0.00  0.00    +0.066 C 
BRANCH  25  28
ATOM     28  C   UNL     1       0.430  -3.217   1.429  0.00  0.00    +0.066 A 
ATOM     29  C   UNL     1       1.348  -4.184   1.041  0.00  0.00    +0.028 A 
ATOM     30  C   UNL     1       1.568  -5.286   1.844  0.00  0.00    +0.014 A 
ATOM     31  C   UNL     1       0.876  -5.427   3.033  0.00  0.00    +0.055 A 
ATOM     32  C   UNL     1      -0.039  -4.466   3.421  0.00  0.00    +0.014 A 
ATOM     33  C   UNL     1      -0.259  -3.359   2.626  0.00  0.00    +0.028 A 
BRANCH  31  34
ATOM     34  C   UNL     1       1.119  -6.631   3.906  0.00  0.00    +0.417 C 
ATOM     35  F   UNL     1       2.150  -6.351   4.810  0.00  0.00    -0.166 F 
ATOM     36  F   UNL     1      -0.049  -6.939   4.611  0.00  0.00    -0.166 F 
ATOM     37  F   UNL     1       1.483  -7.721   3.107  0.00  0.00    -0.166 F 
ENDBRANCH  31  34
ENDBRANCH  25  28
ENDBRANCH  20  23
ENDBRANCH   1  20
TORSDOF 9
