REMARK  Name = ZINC51143930
REMARK  5 active torsions:
REMARK  status: ('A' for Active; 'I' for Inactive)
REMARK    1  A    between atoms: C_1  and  C_2
REMARK    2  A    between atoms: C_2  and  C_3
REMARK    3  A    between atoms: C_10  and  C_12
REMARK    4  A    between atoms: C_14  and  N_19
REMARK    5  A    between atoms: N_19  and  N_20
REMARK                            x       y       z     vdW  Elec       q    Type
REMARK                         _______ _______ _______ _____ _____    ______ ____
ROOT
ATOM      1  C   UNL     1       3.600   1.581  -3.032  0.00  0.00    +0.043 A 
ATOM      2  C   UNL     1       3.542   2.161  -1.764  0.00  0.00    +0.057 A 
ATOM      3  C   UNL     1       3.539   3.547  -1.657  0.00  0.00    +0.134 A 
ATOM      4  N   UNL     1       3.591   4.309  -2.737  0.00  0.00    -0.220 NA
ATOM      5  C   UNL     1       3.647   3.795  -3.952  0.00  0.00    +0.132 A 
ATOM      6  C   UNL     1       3.659   2.427  -4.145  0.00  0.00    +0.053 A 
ATOM      7 CL   UNL     1       3.712   4.854  -5.326  0.00  0.00    -0.062 Cl
ENDROOT
BRANCH   1  14
ATOM      8  C   UNL     1       0.298  -0.427  -2.083  0.00  0.00    +0.006 C 
ATOM      9  C   UNL     1       0.206  -1.952  -2.161  0.00  0.00    +0.006 C 
ATOM     10  C   UNL     1       1.197  -2.473  -3.205  0.00  0.00    +0.019 C 
ATOM     11  C   UNL     1       2.621  -2.095  -2.784  0.00  0.00    +0.108 C 
ATOM     12  N   UNL     1       2.680  -0.643  -2.567  0.00  0.00    -0.297 N 
ATOM     13  C   UNL     1       1.712  -0.025  -1.651  0.00  0.00    +0.111 C 
ATOM     14  C   UNL     1       3.606   0.108  -3.195  0.00  0.00    +0.247 C 
ATOM     15  O   UNL     1       4.445  -0.422  -3.896  0.00  0.00    -0.270 OA
BRANCH   8  17
ATOM     16  C   UNL     1      -0.710   1.625  -1.075  0.00  0.00    +0.004 C 
ATOM     17  C   UNL     1      -0.716   0.095  -1.064  0.00  0.00    +0.002 C 
ENDBRANCH   8  17
ENDBRANCH   1  14
BRANCH   3  18
ATOM     18  N   UNL     1       3.482   4.139  -0.400  0.00  0.00    -0.267 N 
ATOM     19  H   UNL     1       3.443   3.586   0.396  0.00  0.00    +0.167 HD
BRANCH  18  20
ATOM     20  N   UNL     1       3.478   5.500  -0.286  0.00  0.00    -0.255 NA
ATOM     21  H   UNL     1       2.722   5.906  -0.816  0.00  0.00    +0.140 HD
ATOM     22  H   UNL     1       3.433   5.782   0.682  0.00  0.00    +0.140 HD
ENDBRANCH  18  20
ENDBRANCH   3  18
TORSDOF 4
