REMARK  Name = ZINC03010976
REMARK  12 active torsions:
REMARK  status: ('A' for Active; 'I' for Inactive)
REMARK    1  A    between atoms: C_1  and  O_2
REMARK    2  A    between atoms: O_2  and  C_3
REMARK    3  A    between atoms: C_6  and  O_37
REMARK    4  A    between atoms: C_7  and  N_9
REMARK    5  A    between atoms: C_10  and  C_12
REMARK    6  A    between atoms: C_17  and  C_33
REMARK    7  A    between atoms: C_20  and  C_23
REMARK    8  A    between atoms: C_26  and  O_31
REMARK    9  A    between atoms: C_27  and  O_29
REMARK   10  A    between atoms: O_29  and  C_30
REMARK   11  A    between atoms: O_31  and  C_32
REMARK   12  A    between atoms: O_37  and  C_38
REMARK                            x       y       z     vdW  Elec       q    Type
REMARK                         _______ _______ _______ _____ _____    ______ ____
ROOT
ATOM      1  C   UNL     1      -1.473  -6.259  -0.208  0.00  0.00    +0.149 A 
ATOM      2  C   UNL     1      -0.369  -7.134  -0.324  0.00  0.00    +0.078 A 
ATOM      3  C   UNL     1      -0.851  -8.390  -0.401  0.00  0.00    +0.119 A 
ATOM      4  N   UNL     1      -2.214  -8.327  -0.340  0.00  0.00    -0.238 N 
ATOM      5  N   UNL     1      -2.576  -6.987  -0.212  0.00  0.00    -0.164 NA
ATOM      6  C   UNL     1      -3.086  -9.504  -0.399  0.00  0.00    +0.215 C 
ATOM      7  C   UNL     1      -2.302 -10.672  -1.008  0.00  0.00    +0.063 C 
ATOM      8  C   UNL     1      -0.954 -10.824  -0.294  0.00  0.00    +0.104 C 
ATOM      9  N   UNL     1      -0.161  -9.600  -0.522  0.00  0.00    -0.322 N 
ATOM     10  H   UNL     1       0.783  -9.633  -0.744  0.00  0.00    +0.148 HD
ENDROOT
BRANCH   8  11
ATOM     11  C   UNL     1      -0.220 -12.018  -0.848  0.00  0.00    -0.024 A 
ATOM     12  C   UNL     1       0.471 -11.910  -2.041  0.00  0.00    +0.009 A 
ATOM     13  C   UNL     1       1.146 -13.002  -2.554  0.00  0.00    +0.050 A 
ATOM     14  C   UNL     1       1.132 -14.208  -1.871  0.00  0.00    +0.162 A 
ATOM     15  C   UNL     1       0.437 -14.316  -0.670  0.00  0.00    +0.162 A 
ATOM     16  C   UNL     1      -0.234 -13.216  -0.160  0.00  0.00    +0.054 A 
BRANCH  15  17
ATOM     17  O   UNL     1       0.420 -15.498   0.004  0.00  0.00    -0.491 OA
ATOM     18  C   UNL     1      -0.313 -15.535   1.230  0.00  0.00    +0.277 C 
ENDBRANCH  15  17
BRANCH  14  19
ATOM     19  O   UNL     1       1.795 -15.284  -2.374  0.00  0.00    -0.491 OA
ATOM     20  C   UNL     1       2.486 -15.100  -3.611  0.00  0.00    +0.277 C 
ENDBRANCH  14  19
ENDBRANCH   8  11
BRANCH   1  22
ATOM     21  N   UNL     1      -2.539  -4.068   0.015  0.00  0.00    -0.277 N 
ATOM     22  C   UNL     1      -1.405  -4.788  -0.096  0.00  0.00    +0.268 C 
ATOM     23  O   UNL     1      -0.326  -4.227  -0.103  0.00  0.00    -0.268 OA
ATOM     24  H   UNL     1      -3.393  -4.519   0.102  0.00  0.00    +0.155 HD
BRANCH  21  29
ATOM     25  C   UNL     1      -1.367  -0.635  -0.613  0.00  0.00    +0.122 A 
ATOM     26  C   UNL     1      -2.376   0.102  -0.011  0.00  0.00    +0.049 A 
ATOM     27  C   UNL     1      -3.438  -0.542   0.597  0.00  0.00    +0.051 A 
ATOM     28  C   UNL     1      -3.495  -1.926   0.608  0.00  0.00    +0.141 A 
ATOM     29  C   UNL     1      -2.483  -2.669   0.005  0.00  0.00    +0.079 A 
ATOM     30  C   UNL     1      -1.422  -2.020  -0.609  0.00  0.00    +0.072 A 
BRANCH  25  32
ATOM     31  C   UNL     1      -0.331   1.431  -1.176  0.00  0.00    +0.277 C 
ATOM     32  O   UNL     1      -0.324   0.002  -1.210  0.00  0.00    -0.495 OA
ENDBRANCH  25  32
BRANCH  28  33
ATOM     33  O   UNL     1      -4.540  -2.559   1.207  0.00  0.00    -0.493 OA
ATOM     34  C   UNL     1      -5.542  -1.734   1.806  0.00  0.00    +0.277 C 
ENDBRANCH  28  33
ENDBRANCH  21  29
ENDBRANCH   1  22
BRANCH   6  35
ATOM     35  C   UNL     1      -4.306  -9.194  -1.269  0.00  0.00    +0.412 C 
ATOM     36  F   UNL     1      -3.886  -8.861  -2.561  0.00  0.00    -0.168 F 
ATOM     37  F   UNL     1      -5.137 -10.319  -1.324  0.00  0.00    -0.168 F 
ATOM     38  F   UNL     1      -5.012  -8.120  -0.716  0.00  0.00    -0.168 F 
ENDBRANCH   6  35
TORSDOF 8
