REMARK  Name = ZINC13033726
REMARK  6 active torsions:
REMARK  status: ('A' for Active; 'I' for Inactive)
REMARK    1  A    between atoms: C_12  and  C_13
REMARK    2  A    between atoms: C_13  and  N_69
REMARK    3  A    between atoms: C_14  and  C_15
REMARK    4  A    between atoms: C_14  and  N_69
REMARK    5  A    between atoms: N_19  and  C_20
REMARK    6  A    between atoms: C_26  and  N_69
REMARK                            x       y       z     vdW  Elec       q    Type
REMARK                         _______ _______ _______ _____ _____    ______ ____
ROOT
ATOM      1  N   UNL     1      -1.693   2.533   1.378  0.00  0.00    +0.389 N 
ATOM      2  H   UNL     1      -1.710   1.657   1.912  0.00  0.00    -0.080 HD
ENDROOT
BRANCH   1   3
ATOM      3  C   UNL     1      -0.737   3.464   2.014  0.00  0.00    -0.068 C 
ATOM      4  C   UNL     1      -0.476   4.668   1.106  0.00  0.00    -0.015 C 
ATOM      5  C   UNL     1       0.519   5.612   1.784  0.00  0.00    -0.002 C 
ATOM      6  C   UNL     1       1.833   4.871   2.037  0.00  0.00    -0.000 C 
ATOM      7  C   UNL     1       1.573   3.667   2.945  0.00  0.00    -0.002 C 
ATOM      8  C   UNL     1       0.578   2.723   2.267  0.00  0.00    -0.015 C 
ENDBRANCH   1   3
BRANCH   1   9
ATOM      9  C   UNL     1      -3.048   3.123   1.379  0.00  0.00    -0.037 C 
BRANCH   9  21
ATOM     10  C   UNL     1      -3.397   4.358   3.501  0.00  0.00    +0.017 A 
ATOM     11  C   UNL     1      -3.891   4.407   4.876  0.00  0.00    +0.002 A 
ATOM     12  C   UNL     1      -3.772   5.571   5.646  0.00  0.00    +0.059 A 
ATOM     13  C   UNL     1      -4.245   5.586   6.941  0.00  0.00    +0.163 A 
ATOM     14  C   UNL     1      -4.840   4.445   7.487  0.00  0.00    +0.164 A 
ATOM     15  C   UNL     1      -4.961   3.290   6.734  0.00  0.00    +0.075 A 
ATOM     16  C   UNL     1      -4.490   3.257   5.428  0.00  0.00    +0.053 A 
ATOM     17  N   UNL     1      -4.601   2.114   4.663  0.00  0.00    -0.322 N 
ATOM     18  H   UNL     1      -5.013   1.323   5.044  0.00  0.00    +0.169 HD
ATOM     19  C   UNL     1      -4.148   2.081   3.398  0.00  0.00    +0.251 A 
ATOM     20  O   UNL     1      -4.264   1.054   2.752  0.00  0.00    -0.268 OA
ATOM     21  C   UNL     1      -3.542   3.204   2.800  0.00  0.00    +0.001 A 
ATOM     22  O   UNL     1      -5.312   4.454   8.763  0.00  0.00    -0.485 OA
ATOM     23  C   UNL     1      -4.843   5.502   9.617  0.00  0.00    +0.270 C 
ATOM     24  C   UNL     1      -4.937   6.827   8.848  0.00  0.00    +0.270 C 
ATOM     25  O   UNL     1      -4.120   6.725   7.678  0.00  0.00    -0.485 OA
ENDBRANCH   9  21
ENDBRANCH   1   9
BRANCH   1  26
ATOM     26  C   UNL     1      -1.269   2.243  -0.008  0.00  0.00    +0.001 C 
BRANCH  26  27
ATOM     27  C   UNL     1      -2.024   1.036  -0.502  0.00  0.00    +0.135 A 
ATOM     28  N   UNL     1      -3.177   1.035  -1.125  0.00  0.00    -0.115 NA
ATOM     29  N   UNL     1      -3.488  -0.188  -1.386  0.00  0.00    -0.023 NA
ATOM     30  N   UNL     1      -2.563  -0.967  -0.945  0.00  0.00    -0.044 NA
ATOM     31  N   UNL     1      -1.643  -0.251  -0.394  0.00  0.00    -0.228 N 
BRANCH  31  32
ATOM     32  C   UNL     1      -0.414  -0.744   0.233  0.00  0.00    +0.111 C 
ATOM     33  C   UNL     1       0.472  -1.400  -0.829  0.00  0.00    +0.027 C 
ATOM     34  C   UNL     1       1.755  -1.915  -0.175  0.00  0.00    +0.002 C 
ATOM     35  C   UNL     1       1.402  -2.944   0.901  0.00  0.00    +0.000 C 
ATOM     36  C   UNL     1       0.517  -2.289   1.962  0.00  0.00    +0.002 C 
ATOM     37  C   UNL     1      -0.767  -1.773   1.308  0.00  0.00    +0.027 C 
ENDBRANCH  31  32
ENDBRANCH  26  27
ENDBRANCH   1  26
TORSDOF 6
