REMARK  Name = ZINC02401548
REMARK  6 active torsions:
REMARK  status: ('A' for Active; 'I' for Inactive)
REMARK    1  A    between atoms: C_6  and  C_7
REMARK    2  A    between atoms: C_7  and  C_8
REMARK    3  A    between atoms: N_12  and  C_28
REMARK    4  A    between atoms: C_14  and  C_15
REMARK    5  A    between atoms: C_14  and  C_17
REMARK    6  A    between atoms: N_19  and  C_20
REMARK                            x       y       z     vdW  Elec       q    Type
REMARK                         _______ _______ _______ _____ _____    ______ ____
ROOT
ATOM      1  C   UNL     1      -3.366   1.334   1.389  0.00  0.00    +0.143 C 
ATOM      2  C   UNL     1      -4.643   0.512   1.316  0.00  0.00    +0.238 C 
ATOM      3  O   UNL     1      -5.638   0.914   0.752  0.00  0.00    -0.274 OA
ATOM      4  N   UNL     1      -4.599  -0.670   1.908  0.00  0.00    -0.232 N 
ATOM      5  C   UNL     1      -3.476  -1.133   2.549  0.00  0.00    +0.098 C 
ATOM      6  C   UNL     1      -3.300  -2.352   3.206  0.00  0.00    +0.142 C 
ATOM      7  S   UNL     1      -2.293   0.189   2.343  0.00  0.00    -0.095 S 
ENDROOT
BRANCH   4   8
ATOM      8  C   UNL     1      -5.742  -1.481   1.880  0.00  0.00    +0.042 A 
ATOM      9  C   UNL     1      -5.826  -2.534   0.979  0.00  0.00    +0.027 A 
ATOM     10  C   UNL     1      -6.951  -3.334   0.956  0.00  0.00    +0.040 A 
ATOM     11  C   UNL     1      -8.000  -3.081   1.824  0.00  0.00    +0.124 A 
ATOM     12  C   UNL     1      -7.921  -2.028   2.720  0.00  0.00    +0.040 A 
ATOM     13  C   UNL     1      -6.795  -1.228   2.749  0.00  0.00    +0.027 A 
ATOM     14  F   UNL     1      -9.102  -3.862   1.796  0.00  0.00    -0.205 F 
ENDBRANCH   4   8
BRANCH   6  15
ATOM     15  C   UNL     1      -4.441  -3.244   3.409  0.00  0.00    +0.261 C 
ATOM     16  O   UNL     1      -4.644  -4.159   2.631  0.00  0.00    -0.269 OA
ATOM     17  N   UNL     1      -5.267  -3.055   4.457  0.00  0.00    -0.281 N 
ATOM     18  H   UNL     1      -5.067  -2.371   5.115  0.00  0.00    +0.155 HD
BRANCH  17  19
ATOM     19  C   UNL     1      -6.415  -3.845   4.594  0.00  0.00    +0.034 A 
ATOM     20  C   UNL     1      -6.404  -5.167   4.171  0.00  0.00    +0.026 A 
ATOM     21  C   UNL     1      -7.536  -5.945   4.311  0.00  0.00    +0.040 A 
ATOM     22  C   UNL     1      -8.684  -5.405   4.866  0.00  0.00    +0.124 A 
ATOM     23  C   UNL     1      -8.699  -4.085   5.285  0.00  0.00    +0.040 A 
ATOM     24  C   UNL     1      -7.567  -3.305   5.150  0.00  0.00    +0.026 A 
ATOM     25  F   UNL     1      -9.792  -6.167   4.998  0.00  0.00    -0.205 F 
ENDBRANCH  17  19
ENDBRANCH   6  15
BRANCH   6  26
ATOM     26  C   UNL     1      -2.003  -2.728   3.683  0.00  0.00    +0.107 C 
ATOM     27  N   UNL     1      -0.974  -3.026   4.061  0.00  0.00    -0.191 NA
ENDBRANCH   6  26
BRANCH   1  28
ATOM     28  C   UNL     1      -2.795   1.596  -0.006  0.00  0.00    +0.059 C 
BRANCH  28  34
ATOM     29  C   UNL     1      -0.338   1.984   0.268  0.00  0.00    +0.006 A 
ATOM     30  C   UNL     1       0.755   2.824   0.363  0.00  0.00    +0.038 A 
ATOM     31  C   UNL     1       0.581   4.196   0.296  0.00  0.00    +0.123 A 
ATOM     32  C   UNL     1      -0.688   4.725   0.134  0.00  0.00    +0.038 A 
ATOM     33  C   UNL     1      -1.780   3.883   0.040  0.00  0.00    +0.006 A 
ATOM     34  C   UNL     1      -1.604   2.513   0.102  0.00  0.00    -0.046 A 
ATOM     35  F   UNL     1       1.649   5.019   0.387  0.00  0.00    -0.205 F 
ENDBRANCH  28  34
ENDBRANCH   1  28
TORSDOF 6
