REMARK  Name = ZINC01375158
REMARK  12 active torsions:
REMARK  status: ('A' for Active; 'I' for Inactive)
REMARK    1  A    between atoms: C_1  and  C_2
REMARK    2  A    between atoms: C_2  and  C_3
REMARK    3  A    between atoms: C_3  and  C_5
REMARK    4  A    between atoms: C_3  and  N_16
REMARK    5  A    between atoms: N_9  and  C_10
REMARK    6  A    between atoms: C_10  and  C_11
REMARK    7  A    between atoms: N_16  and  C_17
REMARK    8  A    between atoms: N_16  and  C_27
REMARK    9  A    between atoms: C_17  and  C_18
REMARK   10  A    between atoms: C_27  and  C_28
REMARK   11  A    between atoms: C_32  and  C_41
REMARK   12  A    between atoms: C_33  and  C_40
REMARK                            x       y       z     vdW  Elec       q    Type
REMARK                         _______ _______ _______ _____ _____    ______ ____
ROOT
ATOM      1  N   UNL     1      -0.291  -0.358  -2.760  0.00  0.00    -0.284 NA
ENDROOT
BRANCH   1   2
ATOM      2  C   UNL     1       0.443  -1.268  -1.870  0.00  0.00    +0.127 C 
BRANCH   2   3
ATOM      3  C   UNL     1       0.251  -2.688  -2.334  0.00  0.00    +0.169 A 
ATOM      4  N   UNL     1      -0.876  -3.245  -2.706  0.00  0.00    -0.112 NA
ATOM      5  N   UNL     1      -0.628  -4.466  -3.032  0.00  0.00    -0.023 NA
ATOM      6  N   UNL     1       0.628  -4.704  -2.878  0.00  0.00    -0.043 NA
ATOM      7  N   UNL     1       1.205  -3.631  -2.454  0.00  0.00    -0.220 N 
BRANCH   7   8
ATOM      8  C   UNL     1       2.630  -3.469  -2.156  0.00  0.00    +0.221 C 
BRANCH   8   9
ATOM      9  C   UNL     1       2.885  -3.821  -0.713  0.00  0.00    +0.126 A 
ATOM     10  C   UNL     1       3.200  -5.042  -0.245  0.00  0.00    +0.046 A 
ATOM     11  C   UNL     1       3.349  -4.918   1.156  0.00  0.00    +0.041 A 
ATOM     12  C   UNL     1       3.116  -3.628   1.460  0.00  0.00    +0.195 A 
ATOM     13  O   UNL     1       2.841  -2.967   0.323  0.00  0.00    -0.466 OA
ENDBRANCH   8   9
ENDBRANCH   7   8
ENDBRANCH   2   3
BRANCH   2  15
ATOM     14  C   UNL     1       0.162   0.305   0.051  0.00  0.00    +0.006 C 
ATOM     15  C   UNL     1      -0.086  -1.122  -0.442  0.00  0.00    +0.023 C 
ENDBRANCH   2  15
ENDBRANCH   1   2
BRANCH   1  16
ATOM     16  C   UNL     1      -1.720  -0.331  -2.422  0.00  0.00    +0.120 C 
BRANCH  16  17
ATOM     17  C   UNL     1      -2.497   0.259  -3.571  0.00  0.00    -0.030 A 
ATOM     18  C   UNL     1      -2.830   1.601  -3.561  0.00  0.00    +0.009 A 
ATOM     19  C   UNL     1      -3.542   2.147  -4.613  0.00  0.00    +0.050 A 
ATOM     20  C   UNL     1      -3.924   1.349  -5.679  0.00  0.00    +0.166 A 
ATOM     21  C   UNL     1      -3.589  -0.003  -5.689  0.00  0.00    +0.167 A 
ATOM     22  C   UNL     1      -2.870  -0.542  -4.634  0.00  0.00    +0.054 A 
ATOM     23  O   UNL     1      -4.074  -0.564  -6.834  0.00  0.00    -0.453 OA
ATOM     24  C   UNL     1      -5.059   0.362  -7.330  0.00  0.00    +0.466 C 
ATOM     25  O   UNL     1      -4.619   1.634  -6.819  0.00  0.00    -0.453 OA
ENDBRANCH  16  17
ENDBRANCH   1  16
BRANCH   1  26
ATOM     26  C   UNL     1       0.284   0.993  -2.722  0.00  0.00    +0.126 C 
BRANCH  26  27
ATOM     27  C   UNL     1       1.547   1.025  -3.544  0.00  0.00    +0.031 A 
ATOM     28  C   UNL     1       1.494   1.386  -4.849  0.00  0.00    +0.020 A 
ATOM     29  C   UNL     1       2.739   1.407  -5.620  0.00  0.00    -0.001 A 
ATOM     30  C   UNL     1       2.748   1.772  -6.971  0.00  0.00    +0.013 A 
ATOM     31  C   UNL     1       3.926   1.782  -7.662  0.00  0.00    -0.047 A 
ATOM     32  C   UNL     1       5.115   1.433  -7.035  0.00  0.00    -0.046 A 
ATOM     33  C   UNL     1       5.130   1.070  -5.706  0.00  0.00    +0.030 A 
ATOM     34  C   UNL     1       3.943   1.053  -4.982  0.00  0.00    +0.049 A 
ATOM     35  N   UNL     1       3.929   0.695  -3.651  0.00  0.00    -0.322 N 
ATOM     36  H   UNL     1       4.759   0.452  -3.212  0.00  0.00    +0.169 HD
ATOM     37  C   UNL     1       2.781   0.684  -2.950  0.00  0.00    +0.254 A 
ATOM     38  O   UNL     1       2.807   0.367  -1.773  0.00  0.00    -0.268 OA
ATOM     39  C   UNL     1       6.403   1.450  -7.818  0.00  0.00    +0.044 C 
ATOM     40  C   UNL     1       3.935   2.174  -9.116  0.00  0.00    +0.044 C 
ENDBRANCH  26  27
ENDBRANCH   1  26
TORSDOF 9
