REMARK  Name = ZINC44429132
REMARK  5 active torsions:
REMARK  status: ('A' for Active; 'I' for Inactive)
REMARK    1  A    between atoms: C_7  and  C_11
REMARK    2  A    between atoms: C_11  and  C_12
REMARK    3  A    between atoms: C_14  and  C_17
REMARK    4  A    between atoms: N_22  and  C_24
REMARK    5  A    between atoms: C_24  and  C_25
REMARK                            x       y       z     vdW  Elec       q    Type
REMARK                         _______ _______ _______ _____ _____    ______ ____
ROOT
ATOM      1  C   UNL     1       0.242  -3.584  -1.434  0.00  0.00    +0.232 A 
ATOM      2  N   UNL     1       0.848  -4.399  -2.252  0.00  0.00    -0.195 NA
ATOM      3  C   UNL     1       0.203  -4.436  -3.424  0.00  0.00    +0.177 A 
ATOM      4  N   UNL     1      -0.826  -3.641  -3.364  0.00  0.00    -0.061 NA
ATOM      5  O   UNL     1      -0.824  -3.074  -2.062  0.00  0.00    -0.338 OA
ENDROOT
BRANCH   3   6
ATOM      6  C   UNL     1       0.603  -5.263  -4.619  0.00  0.00    +0.086 C 
ATOM      7  C   UNL     1       0.781  -4.375  -5.872  0.00  0.00    +0.109 C 
ATOM      8  C   UNL     1       0.253  -5.225  -7.007  0.00  0.00    +0.217 C 
ATOM      9  O   UNL     1       0.462  -5.020  -8.184  0.00  0.00    -0.276 OA
ATOM     10  N   UNL     1      -0.483  -6.239  -6.521  0.00  0.00    -0.296 N 
ATOM     11  C   UNL     1      -0.547  -6.198  -5.054  0.00  0.00    +0.120 C 
BRANCH  10  12
ATOM     12  C   UNL     1      -1.136  -7.257  -7.348  0.00  0.00    +0.143 C 
BRANCH  12  13
ATOM     13  C   UNL     1      -0.194  -8.415  -7.556  0.00  0.00    -0.029 A 
ATOM     14  C   UNL     1       0.670  -8.417  -8.634  0.00  0.00    +0.008 A 
ATOM     15  C   UNL     1       1.535  -9.478  -8.826  0.00  0.00    +0.040 A 
ATOM     16  C   UNL     1       1.535 -10.540  -7.938  0.00  0.00    +0.142 A 
ATOM     17  C   UNL     1       0.668 -10.538  -6.857  0.00  0.00    +0.076 A 
ATOM     18  C   UNL     1      -0.192  -9.472  -6.665  0.00  0.00    +0.028 A 
ATOM     19 CL   UNL     1       0.666 -11.868  -5.742  0.00  0.00    -0.081 Cl
ATOM     20  F   UNL     1       2.379 -11.578  -8.125  0.00  0.00    -0.204 F 
ENDBRANCH  12  13
ENDBRANCH  10  12
ENDBRANCH   3   6
BRANCH   1  21
ATOM     21  C   UNL     1       0.666  -3.275  -0.021  0.00  0.00    +0.136 C 
BRANCH  21  28
ATOM     22  C   UNL     1      -0.017   1.362   0.009  0.00  0.00    +0.001 A 
ATOM     23  C   UNL     1       1.170   2.083   0.002  0.00  0.00    +0.002 A 
ATOM     24  C   UNL     1       2.386   1.436  -0.013  0.00  0.00    +0.026 A 
ATOM     25  C   UNL     1       2.428   0.046  -0.021  0.00  0.00    +0.047 A 
ATOM     26  C   UNL     1       1.223  -0.681  -0.013  0.00  0.00    +0.003 A 
ATOM     27  C   UNL     1       0.002  -0.004   0.002  0.00  0.00    +0.010 A 
ATOM     28  C   UNL     1       1.604  -2.095  -0.025  0.00  0.00    -0.013 A 
ATOM     29  C   UNL     1       2.945  -2.141  -0.038  0.00  0.00    +0.087 A 
ATOM     30  N   UNL     1       3.455  -0.871  -0.036  0.00  0.00    -0.360 N 
ATOM     31  H   UNL     1       4.399  -0.650  -0.044  0.00  0.00    +0.165 HD
ENDBRANCH  21  28
ENDBRANCH   1  21
TORSDOF 5
