REMARK  Name = ZINC09850600
REMARK  10 active torsions:
REMARK  status: ('A' for Active; 'I' for Inactive)
REMARK    1  A    between atoms: C_1  and  C_2
REMARK    2  A    between atoms: C_5  and  C_8
REMARK    3  A    between atoms: C_8  and  N_9
REMARK    4  A    between atoms: C_10  and  C_12
REMARK    5  A    between atoms: C_16  and  C_26
REMARK    6  A    between atoms: C_19  and  O_21
REMARK    7  A    between atoms: O_21  and  C_22
REMARK    8  A    between atoms: C_22  and  C_23
REMARK    9  A    between atoms: C_22  and  C_24
REMARK   10  A    between atoms: C_22  and  C_25
REMARK                            x       y       z     vdW  Elec       q    Type
REMARK                         _______ _______ _______ _____ _____    ______ ____
ROOT
ATOM      1  C   UNL     1       2.990   3.859  -0.020  0.00  0.00    +0.176 C 
ATOM      2  C   UNL     1       3.747   3.289  -1.257  0.00  0.00    +0.103 C 
ATOM      3  S   UNL     1       5.099   4.548  -1.350  0.00  0.00    -0.131 S 
ATOM      4  C   UNL     1       4.138   5.969  -0.677  0.00  0.00    +0.168 C 
ATOM      5  N   UNL     1       2.972   5.319  -0.051  0.00  0.00    -0.239 N 
ATOM      6  C   UNL     1       1.948   6.030   0.463  0.00  0.00    +0.405 C 
ATOM      7  O   UNL     1       1.056   5.465   1.062  0.00  0.00    -0.226 OA
ENDROOT
BRANCH   4   8
ATOM      8  C   UNL     1       4.948   6.721   0.349  0.00  0.00    -0.017 A 
ATOM      9  C   UNL     1       4.899   6.345   1.678  0.00  0.00    +0.008 A 
ATOM     10  C   UNL     1       5.645   7.029   2.619  0.00  0.00    +0.020 A 
ATOM     11  C   UNL     1       6.433   8.099   2.231  0.00  0.00    +0.041 A 
ATOM     12  C   UNL     1       6.477   8.478   0.901  0.00  0.00    +0.020 A 
ATOM     13  C   UNL     1       5.735   7.789  -0.039  0.00  0.00    +0.008 A 
ATOM     14 CL   UNL     1       7.365   8.964   3.412  0.00  0.00    -0.084 Cl
ENDBRANCH   4   8
BRANCH   1  16
ATOM     15  N   UNL     1       1.237   2.293   0.748  0.00  0.00    -0.310 N 
ATOM     16  C   UNL     1       1.574   3.345  -0.025  0.00  0.00    +0.235 C 
ATOM     17  O   UNL     1       0.738   3.877  -0.723  0.00  0.00    -0.274 OA
ATOM     18  H   UNL     1       1.906   1.867   1.306  0.00  0.00    +0.149 HD
BRANCH  15  19
ATOM     19  C   UNL     1      -0.140   1.792   0.743  0.00  0.00    +0.139 C 
BRANCH  19  24
ATOM     20  C   UNL     1      -0.568  -2.702   4.351  0.00  0.00    +0.044 C 
ATOM     21  C   UNL     1      -0.457  -1.530   3.410  0.00  0.00    -0.050 A 
ATOM     22  C   UNL     1      -0.679  -0.247   3.874  0.00  0.00    +0.003 A 
ATOM     23  C   UNL     1      -0.576   0.828   3.012  0.00  0.00    +0.005 A 
ATOM     24  C   UNL     1      -0.252   0.621   1.684  0.00  0.00    -0.030 A 
ATOM     25  C   UNL     1      -0.035  -0.663   1.218  0.00  0.00    +0.005 A 
ATOM     26  C   UNL     1      -0.132  -1.737   2.082  0.00  0.00    +0.003 A 
ENDBRANCH  19  24
ENDBRANCH  15  19
ENDBRANCH   1  16
BRANCH   6  27
ATOM     27  O   UNL     1       1.915   7.368   0.311  0.00  0.00    -0.444 OA
BRANCH  27  28
ATOM     28  C   UNL     1       0.783   8.069   0.890  0.00  0.00    +0.107 C 
ATOM     29  C   UNL     1       0.750   7.825   2.400  0.00  0.00    +0.055 C 
ATOM     30  C   UNL     1       0.919   9.568   0.618  0.00  0.00    +0.055 C 
ATOM     31  C   UNL     1      -0.512   7.552   0.261  0.00  0.00    +0.055 C 
ENDBRANCH  27  28
ENDBRANCH   6  27
TORSDOF 6
