REMARK  Name = ZINC03258128
REMARK  13 active torsions:
REMARK  status: ('A' for Active; 'I' for Inactive)
REMARK    1  A    between atoms: C_1  and  C_2
REMARK    2  A    between atoms: C_2  and  O_3
REMARK    3  A    between atoms: O_3  and  C_4
REMARK    4  A    between atoms: C_4  and  C_6
REMARK    5  A    between atoms: C_7  and  C_41
REMARK    6  A    between atoms: C_8  and  C_13
REMARK    7  A    between atoms: C_11  and  C_12
REMARK    8  A    between atoms: C_13  and  C_15
REMARK    9  A    between atoms: C_15  and  C_39
REMARK   10  A    between atoms: N_17  and  C_32
REMARK   11  A    between atoms: C_21  and  C_22
REMARK   12  A    between atoms: C_25  and  N_28
REMARK   13  A    between atoms: C_35  and  C_38
REMARK                            x       y       z     vdW  Elec       q    Type
REMARK                         _______ _______ _______ _____ _____    ______ ____
ROOT
ATOM      1  C   UNL     1       0.836   1.836  -2.184  0.00  0.00    +0.131 C 
ATOM      2  C   UNL     1       1.168   3.046  -1.567  0.00  0.00    +0.110 A 
ATOM      3  N   UNL     1       0.327   4.043  -1.136  0.00  0.00    -0.269 N 
ATOM      4  C   UNL     1       0.808   5.134  -0.566  0.00  0.00    +0.270 A 
ATOM      5  O   UNL     1       0.076   6.026  -0.178  0.00  0.00    -0.266 OA
ATOM      6  C   UNL     1       2.275   5.221  -0.420  0.00  0.00    +0.079 A 
ATOM      7  C   UNL     1       3.031   6.211   0.120  0.00  0.00    +0.028 C 
ATOM      8  S   UNL     1       2.786   3.667  -1.139  0.00  0.00    -0.064 S 
ENDROOT
BRANCH   3   9
ATOM      9  C   UNL     1      -1.056   3.901  -1.302  0.00  0.00    +0.051 A 
ATOM     10  C   UNL     1      -1.697   4.526  -2.364  0.00  0.00    +0.026 A 
ATOM     11  C   UNL     1      -3.060   4.379  -2.529  0.00  0.00    +0.005 A 
ATOM     12  C   UNL     1      -3.789   3.621  -1.631  0.00  0.00    -0.050 A 
ATOM     13  C   UNL     1      -3.155   3.003  -0.569  0.00  0.00    +0.005 A 
ATOM     14  C   UNL     1      -1.791   3.140  -0.403  0.00  0.00    +0.026 A 
ATOM     15  C   UNL     1      -5.278   3.468  -1.810  0.00  0.00    +0.044 C 
ENDBRANCH   3   9
BRANCH   7  16
ATOM     16  C   UNL     1       4.495   6.161   0.009  0.00  0.00    -0.024 A 
ATOM     17  C   UNL     1       5.292   6.946   0.851  0.00  0.00    +0.010 A 
ATOM     18  C   UNL     1       6.665   6.889   0.744  0.00  0.00    +0.033 A 
ATOM     19  C   UNL     1       7.256   6.067  -0.201  0.00  0.00    +0.126 A 
ATOM     20  C   UNL     1       6.475   5.292  -1.040  0.00  0.00    +0.033 A 
ATOM     21  C   UNL     1       5.101   5.333  -0.943  0.00  0.00    +0.010 A 
BRANCH  19  22
ATOM     22  N   UNL     1       8.731   6.017  -0.312  0.00  0.00    +0.056 N 
ATOM     23  O   UNL     1       9.255   5.295  -1.142  0.00  0.00    -0.126 OA
ATOM     24  O   UNL     1       9.421   6.698   0.425  0.00  0.00    -0.126 OA
ENDBRANCH  19  22
ENDBRANCH   7  16
BRANCH   1  25
ATOM     25  C   UNL     1      -0.552   1.558  -2.551  0.00  0.00    +0.222 C 
ATOM     26  O   UNL     1      -1.089   2.201  -3.437  0.00  0.00    -0.284 OA
BRANCH  25  29
ATOM     27  C   UNL     1      -2.890  -0.939  -1.237  0.00  0.00    +0.083 A 
ATOM     28  C   UNL     1      -2.567   0.095  -2.146  0.00  0.00    -0.008 A 
ATOM     29  C   UNL     1      -1.299   0.501  -1.854  0.00  0.00    +0.092 A 
ATOM     30  N   UNL     1      -0.839  -0.245  -0.792  0.00  0.00    -0.355 N 
ATOM     31  H   UNL     1       0.035  -0.157  -0.381  0.00  0.00    +0.166 HD
ATOM     32  C   UNL     1      -1.792  -1.114  -0.415  0.00  0.00    +0.028 A 
ATOM     33  C   UNL     1      -1.682  -2.109   0.711  0.00  0.00    +0.064 C 
ATOM     34  C   UNL     1      -3.456   0.643  -3.233  0.00  0.00    +0.047 C 
BRANCH  27  35
ATOM     35  C   UNL     1      -4.158  -1.685  -1.173  0.00  0.00    +0.341 C 
ATOM     36  O   UNL     1      -5.068  -1.278  -0.478  0.00  0.00    -0.245 OA
BRANCH  35  37
ATOM     37  O   UNL     1      -4.309  -2.819  -1.886  0.00  0.00    -0.461 OA
BRANCH  37  39
ATOM     38  C   UNL     1      -5.569  -4.758  -2.649  0.00  0.00    +0.048 C 
ATOM     39  C   UNL     1      -5.585  -3.502  -1.776  0.00  0.00    +0.229 C 
ENDBRANCH  37  39
ENDBRANCH  35  37
ENDBRANCH  27  35
ENDBRANCH  25  29
ENDBRANCH   1  25
BRANCH   1  40
ATOM     40  C   UNL     1       1.856   0.869  -2.458  0.00  0.00    +0.106 C 
ATOM     41  N   UNL     1       2.665   0.101  -2.675  0.00  0.00    -0.191 NA
ENDBRANCH   1  40
TORSDOF 9
