REMARK  Name = ZINC01978443
REMARK  10 active torsions:
REMARK  status: ('A' for Active; 'I' for Inactive)
REMARK    1  A    between atoms: C_1  and  C_2
REMARK    2  A    between atoms: C_2  and  C_3
REMARK    3  A    between atoms: C_2  and  C_4
REMARK    4  A    between atoms: C_2  and  C_5
REMARK    5  A    between atoms: C_8  and  C_11
REMARK    6  A    between atoms: C_12  and  O_22
REMARK    7  A    between atoms: O_22  and  C_23
REMARK    8  A    between atoms: C_23  and  C_24
REMARK    9  A    between atoms: N_26  and  C_27
REMARK   10  A    between atoms: C_28  and  C_36
REMARK                            x       y       z     vdW  Elec       q    Type
REMARK                         _______ _______ _______ _____ _____    ______ ____
ROOT
ATOM      1  C   UNL     1       2.343   5.205   0.001  0.00  0.00    +0.181 A 
ATOM      2  C   UNL     1       1.217   5.949   0.194  0.00  0.00    +0.211 A 
ATOM      3  C   UNL     1      -0.048   5.306   0.211  0.00  0.00    +0.235 A 
ATOM      4  O   UNL     1      -1.078   5.938   0.380  0.00  0.00    -0.283 OA
ATOM      5  C   UNL     1      -0.068   3.844   0.015  0.00  0.00    +0.068 A 
ATOM      6  C   UNL     1      -1.266   3.130   0.016  0.00  0.00    +0.015 A 
ATOM      7  C   UNL     1      -1.244   1.766  -0.176  0.00  0.00    +0.001 A 
ATOM      8  C   UNL     1      -0.038   1.104  -0.359  0.00  0.00    +0.004 A 
ATOM      9  C   UNL     1       1.153   1.799  -0.362  0.00  0.00    +0.047 A 
ATOM     10  C   UNL     1       1.152   3.176  -0.176  0.00  0.00    +0.140 A 
ATOM     11  O   UNL     1       2.307   3.874  -0.175  0.00  0.00    -0.451 OA
ENDROOT
BRANCH   1  15
ATOM     12  C   UNL     1       6.106   7.169  -0.040  0.00  0.00    -0.042 A 
ATOM     13  C   UNL     1       5.932   6.032   0.728  0.00  0.00    +0.005 A 
ATOM     14  C   UNL     1       4.712   5.388   0.747  0.00  0.00    +0.012 A 
ATOM     15  C   UNL     1       3.651   5.888  -0.013  0.00  0.00    +0.021 A 
ATOM     16  C   UNL     1       3.836   7.034  -0.790  0.00  0.00    +0.012 A 
ATOM     17  C   UNL     1       5.060   7.670  -0.795  0.00  0.00    +0.005 A 
BRANCH  12  19
ATOM     18  C   UNL     1       8.514   6.902  -0.569  0.00  0.00    +0.015 C 
ATOM     19  C   UNL     1       7.443   7.866  -0.055  0.00  0.00    -0.013 C 
ATOM     20  C   UNL     1       7.371   9.086  -0.975  0.00  0.00    +0.015 C 
ATOM     21  C   UNL     1       7.799   8.317   1.363  0.00  0.00    +0.015 C 
ENDBRANCH  12  19
ENDBRANCH   1  15
BRANCH   2  22
ATOM     22  O   UNL     1       1.305   7.295   0.370  0.00  0.00    -0.476 OA
BRANCH  22  23
ATOM     23  C   UNL     1       1.335   7.773   1.716  0.00  0.00    +0.325 C 
BRANCH  23  24
ATOM     24  C   UNL     1       1.434   9.277   1.713  0.00  0.00    +0.255 C 
ATOM     25  O   UNL     1       1.475   9.880   0.661  0.00  0.00    -0.272 OA
ATOM     26  N   UNL     1       1.477   9.951   2.879  0.00  0.00    -0.276 N 
ATOM     27  H   UNL     1       1.444   9.469   3.720  0.00  0.00    +0.155 HD
BRANCH  26  28
ATOM     28  C   UNL     1       1.568  11.336   2.876  0.00  0.00    +0.090 A 
ATOM     29  C   UNL     1       1.617  12.199   3.961  0.00  0.00    +0.084 A 
ATOM     30  C   UNL     1       1.717  13.621   3.685  0.00  0.00    -0.018 A 
ATOM     31  C   UNL     1       1.740  13.953   2.375  0.00  0.00    -0.004 A 
ATOM     32  S   UNL     1       1.640  12.408   1.516  0.00  0.00    -0.077 S 
ATOM     33  C   UNL     1       1.830  15.330   1.793  0.00  0.00    +0.043 C 
ATOM     34  C   UNL     1       1.516  16.345   2.902  0.00  0.00    +0.005 C 
ATOM     35  C   UNL     1       2.329  15.982   4.147  0.00  0.00    +0.005 C 
ATOM     36  C   UNL     1       1.786  14.693   4.766  0.00  0.00    +0.037 C 
BRANCH  29  37
ATOM     37  C   UNL     1       1.576  11.705   5.304  0.00  0.00    +0.102 C 
ATOM     38  N   UNL     1       1.544  11.313   6.370  0.00  0.00    -0.191 NA
ENDBRANCH  29  37
ENDBRANCH  26  28
ENDBRANCH  23  24
ENDBRANCH  22  23
ENDBRANCH   2  22
TORSDOF 7
