REMARK  Name = ZINC33139445
REMARK  8 active torsions:
REMARK  status: ('A' for Active; 'I' for Inactive)
REMARK    1  A    between atoms: C_1  and  C_2
REMARK    2  A    between atoms: N_10  and  C_11
REMARK    3  A    between atoms: C_11  and  C_12
REMARK    4  A    between atoms: N_14  and  C_15
REMARK    5  A    between atoms: C_20  and  C_21
REMARK    6  A    between atoms: N_27  and  C_30
REMARK    7  A    between atoms: C_30  and  C_31
REMARK    8  A    between atoms: C_33  and  C_36
REMARK                            x       y       z     vdW  Elec       q    Type
REMARK                         _______ _______ _______ _____ _____    ______ ____
ROOT
ATOM      1  C   UNL     1       9.290   5.025   3.394  0.00  0.00    +0.044 C 
ATOM      2  C   UNL     1       8.368   4.305   2.444  0.00  0.00    -0.050 A 
ATOM      3  C   UNL     1       7.414   3.428   2.941  0.00  0.00    +0.005 A 
ATOM      4  C   UNL     1       6.562   2.761   2.089  0.00  0.00    +0.027 A 
ATOM      5  C   UNL     1       6.655   2.966   0.714  0.00  0.00    +0.052 A 
ATOM      6  C   UNL     1       7.624   3.855   0.217  0.00  0.00    +0.026 A 
ATOM      7  C   UNL     1       8.476   4.521   1.099  0.00  0.00    +0.015 A 
ATOM      8  C   UNL     1       7.476   3.858  -1.244  0.00  0.00    +0.103 A 
ATOM      9  C   UNL     1       6.441   2.974  -1.538  0.00  0.00    +0.134 A 
ATOM     10  N   UNL     1       5.955   2.451  -0.355  0.00  0.00    -0.325 N 
ATOM     11  C   UNL     1       6.082   2.790  -2.894  0.00  0.00    +0.279 A 
ATOM     12  O   UNL     1       5.180   2.031  -3.203  0.00  0.00    -0.265 OA
ATOM     13  N   UNL     1       6.766   3.472  -3.838  0.00  0.00    -0.288 N 
ATOM     14  C   UNL     1       7.769   4.316  -3.486  0.00  0.00    +0.203 A 
ATOM     15  N   UNL     1       8.109   4.500  -2.242  0.00  0.00    -0.235 NA
ENDROOT
BRANCH  10  16
ATOM     16  C   UNL     1       4.858   1.485  -0.253  0.00  0.00    +0.218 C 
BRANCH  16  17
ATOM     17  C   UNL     1       3.550   2.222  -0.122  0.00  0.00    +0.237 C 
ATOM     18  O   UNL     1       3.535   3.435  -0.115  0.00  0.00    -0.274 OA
ATOM     19  N   UNL     1       2.397   1.533  -0.013  0.00  0.00    -0.284 N 
ATOM     20  H   UNL     1       2.417   0.437   0.072  0.00  0.00    +0.155 HD
BRANCH  19  21
ATOM     21  C   UNL     1       1.174   2.213  -0.008  0.00  0.00    +0.045 A 
ATOM     22  C   UNL     1       1.069   3.462  -0.608  0.00  0.00    +0.024 A 
ATOM     23  C   UNL     1      -0.139   4.130  -0.602  0.00  0.00    +0.002 A 
ATOM     24  C   UNL     1      -1.245   3.557   0.000  0.00  0.00    +0.001 A 
ATOM     25  C   UNL     1      -1.145   2.312   0.594  0.00  0.00    +0.014 A 
ATOM     26  C   UNL     1       0.062   1.641   0.596  0.00  0.00    +0.076 A 
BRANCH  26  27
ATOM     27  C   UNL     1       0.171   0.287   1.248  0.00  0.00    +0.419 C 
ATOM     28  F   UNL     1      -1.070  -0.074   1.783  0.00  0.00    -0.166 F 
ATOM     29  F   UNL     1       0.561  -0.659   0.295  0.00  0.00    -0.166 F 
ATOM     30  F   UNL     1       1.123   0.338   2.272  0.00  0.00    -0.166 F 
ENDBRANCH  26  27
ENDBRANCH  19  21
ENDBRANCH  16  17
ENDBRANCH  10  16
BRANCH  13  31
ATOM     31  C   UNL     1       6.423   3.300  -5.252  0.00  0.00    +0.225 C 
BRANCH  31  32
ATOM     32  C   UNL     1       7.237   2.173  -5.833  0.00  0.00    +0.247 A 
ATOM     33  N   UNL     1       6.903   0.906  -5.867  0.00  0.00    -0.195 NA
ATOM     34  C   UNL     1       7.927   0.278  -6.474  0.00  0.00    +0.169 A 
ATOM     35  N   UNL     1       8.814   1.179  -6.771  0.00  0.00    -0.062 NA
ATOM     36  O   UNL     1       8.435   2.276  -6.417  0.00  0.00    -0.336 OA
ATOM     37  C   UNL     1       8.026  -1.199  -6.756  0.00  0.00    +0.091 C 
ENDBRANCH  31  32
ENDBRANCH  13  31
TORSDOF 6
