REMARK  Name = ZINC63802781
REMARK  7 active torsions:
REMARK  status: ('A' for Active; 'I' for Inactive)
REMARK    1  A    between atoms: C_1  and  C_2
REMARK    2  A    between atoms: C_6  and  C_8
REMARK    3  A    between atoms: C_6  and  N_25
REMARK    4  A    between atoms: C_8  and  N_9
REMARK    5  A    between atoms: C_10  and  C_12
REMARK    6  A    between atoms: N_25  and  C_26
REMARK    7  A    between atoms: N_25  and  C_27
REMARK                            x       y       z     vdW  Elec       q    Type
REMARK                         _______ _______ _______ _____ _____    ______ ____
ROOT
ATOM      1  N   UNL     1       3.005  -2.111   2.094  0.00  0.00    -0.313 N 
ATOM      2  C   UNL     1       3.967  -2.474   2.966  0.00  0.00    +0.244 C 
ATOM      3  O   UNL     1       3.681  -3.123   3.952  0.00  0.00    -0.270 OA
ATOM      4  H   UNL     1       3.234  -1.593   1.307  0.00  0.00    +0.149 HD
ENDROOT
BRANCH   2   5
ATOM      5  C   UNL     1       5.374  -2.079   2.722  0.00  0.00    +0.039 A 
ATOM      6  C   UNL     1       5.697  -1.324   1.584  0.00  0.00    +0.014 A 
ATOM      7  C   UNL     1       6.983  -0.949   1.337  0.00  0.00    +0.016 A 
ATOM      8  C   UNL     1       8.001  -1.319   2.227  0.00  0.00    +0.065 A 
ATOM      9  C   UNL     1       7.689  -2.083   3.382  0.00  0.00    +0.080 A 
ATOM     10  C   UNL     1       6.358  -2.455   3.622  0.00  0.00    +0.041 A 
ATOM     11  N   UNL     1       8.674  -2.429   4.223  0.00  0.00    -0.223 NA
ATOM     12  C   UNL     1       9.925  -2.065   3.986  0.00  0.00    +0.180 A 
ATOM     13  N   UNL     1      10.272  -1.342   2.909  0.00  0.00    -0.301 N 
ATOM     14  H   UNL     1      11.202  -1.098   2.775  0.00  0.00    +0.171 HD
ATOM     15  C   UNL     1       9.345  -0.951   2.008  0.00  0.00    +0.260 A 
ATOM     16  O   UNL     1       9.694  -0.227   0.930  0.00  0.00    -0.267 OA
ATOM     17  S   UNL     1      11.144  -2.533   5.093  0.00  0.00    -0.011 S 
ENDBRANCH   2   5
BRANCH   1  18
ATOM     18  C   UNL     1       1.614  -2.501   2.335  0.00  0.00    +0.092 C 
BRANCH  18  24
ATOM     19  C   UNL     1       0.003   1.414  -0.319  0.00  0.00    +0.007 C 
ATOM     20  C   UNL     1      -0.056  -0.108  -0.177  0.00  0.00    -0.015 C 
ATOM     21  C   UNL     1       0.468  -0.761  -1.457  0.00  0.00    +0.003 C 
ATOM     22  C   UNL     1       0.409  -2.283  -1.315  0.00  0.00    -0.001 C 
ATOM     23  C   UNL     1       1.273  -2.719  -0.130  0.00  0.00    -0.010 C 
ATOM     24  C   UNL     1       0.749  -2.066   1.151  0.00  0.00    -0.050 C 
ATOM     25  C   UNL     1       0.808  -0.544   1.008  0.00  0.00    -0.007 C 
BRANCH  24  26
ATOM     26  N   UNL     1      -0.641  -2.483   1.379  0.00  0.00    +0.381 N 
ATOM     27  C   UNL     1      -0.701  -3.946   1.491  0.00  0.00    -0.096 C 
ATOM     28  C   UNL     1      -1.136  -1.876   2.622  0.00  0.00    -0.096 C 
ATOM     29  H   UNL     1      -1.214  -2.180   0.606  0.00  0.00    -0.082 HD
ENDBRANCH  24  26
ENDBRANCH  18  24
ENDBRANCH   1  18
TORSDOF 4
