REMARK  Name = ZINC55843582
REMARK  8 active torsions:
REMARK  status: ('A' for Active; 'I' for Inactive)
REMARK    1  A    between atoms: C_1  and  C_2
REMARK    2  A    between atoms: C_2  and  C_3
REMARK    3  A    between atoms: C_2  and  O_4
REMARK    4  A    between atoms: O_4  and  C_5
REMARK    5  A    between atoms: C_10  and  N_11
REMARK    6  A    between atoms: N_11  and  C_12
REMARK    7  A    between atoms: C_12  and  C_13
REMARK    8  A    between atoms: N_18  and  C_19
REMARK                            x       y       z     vdW  Elec       q    Type
REMARK                         _______ _______ _______ _____ _____    ______ ____
ROOT
ATOM      1  C   UNL     1      -5.941  -1.871   1.266  0.00  0.00    +0.237 C 
ATOM      2  O   UNL     1      -5.207  -1.719   2.218  0.00  0.00    -0.274 OA
ATOM      3  N   UNL     1      -7.222  -2.244   1.455  0.00  0.00    -0.239 N 
ATOM      4  C   UNL     1      -7.687  -2.448   2.703  0.00  0.00    +0.306 C 
ATOM      5  O   UNL     1      -6.951  -2.295   3.658  0.00  0.00    -0.252 OA
ATOM      6  N   UNL     1      -8.968  -2.821   2.892  0.00  0.00    -0.295 N 
ATOM      7  H   UNL     1      -7.809  -2.366   0.692  0.00  0.00    +0.159 HD
ATOM      8  H   UNL     1      -9.556  -2.942   2.130  0.00  0.00    +0.151 HD
ENDROOT
BRANCH   6   9
ATOM      9  C   UNL     1      -9.474  -3.042   4.249  0.00  0.00    +0.097 C 
ATOM     10  C   UNL     1      -9.940  -1.703   4.845  0.00  0.00    +0.046 C 
ATOM     11  C   UNL     1     -10.751  -2.005   6.138  0.00  0.00    +0.168 C 
ATOM     12  S   UNL     1     -11.716  -3.477   5.596  0.00  0.00    -0.029 S 
ATOM     13  O   UNL     1     -12.968  -3.045   5.081  0.00  0.00    -0.174 OA
ATOM     14  O   UNL     1     -11.683  -4.456   6.625  0.00  0.00    -0.174 OA
ATOM     15  C   UNL     1     -10.658  -4.037   4.200  0.00  0.00    +0.188 C 
ENDBRANCH   6   9
BRANCH   1  16
ATOM     16  C   UNL     1      -5.420  -1.644  -0.130  0.00  0.00    +0.198 C 
BRANCH  16  17
ATOM     17  N   UNL     1      -4.011  -1.249  -0.068  0.00  0.00    -0.333 N 
ATOM     18  H   UNL     1      -3.566  -1.173   0.791  0.00  0.00    +0.147 HD
BRANCH  17  24
ATOM     19  C   UNL     1      -1.966  -0.607  -1.190  0.00  0.00    +0.142 A 
ATOM     20  C   UNL     1      -1.271  -0.349  -2.361  0.00  0.00    +0.047 A 
ATOM     21  C   UNL     1      -1.910  -0.459  -3.582  0.00  0.00    +0.004 A 
ATOM     22  C   UNL     1      -3.242  -0.826  -3.639  0.00  0.00    +0.002 A 
ATOM     23  C   UNL     1      -3.942  -1.085  -2.476  0.00  0.00    +0.026 A 
ATOM     24  C   UNL     1      -3.306  -0.982  -1.247  0.00  0.00    +0.070 A 
BRANCH  19  25
ATOM     25  O   UNL     1      -1.339  -0.499   0.012  0.00  0.00    -0.488 OA
BRANCH  25  27
ATOM     26  C   UNL     1       0.299   1.273  -0.132  0.00  0.00    +0.051 C 
ATOM     27  C   UNL     1       0.066  -0.234  -0.010  0.00  0.00    +0.167 C 
ATOM     28  C   UNL     1       0.701  -0.746   1.284  0.00  0.00    +0.051 C 
ENDBRANCH  25  27
ENDBRANCH  19  25
ENDBRANCH  17  24
ENDBRANCH  16  17
ENDBRANCH   1  16
TORSDOF 6
