REMARK  Name = ZINC12676876
REMARK  9 active torsions:
REMARK  status: ('A' for Active; 'I' for Inactive)
REMARK    1  A    between atoms: C_1  and  C_2
REMARK    2  A    between atoms: C_2  and  N_3
REMARK    3  A    between atoms: N_3  and  C_4
REMARK    4  A    between atoms: C_4  and  C_5
REMARK    5  A    between atoms: N_7  and  C_8
REMARK    6  A    between atoms: C_18  and  C_20
REMARK    7  A    between atoms: C_20  and  C_21
REMARK    8  A    between atoms: C_21  and  C_23
REMARK    9  A    between atoms: C_21  and  N_30
REMARK                            x       y       z     vdW  Elec       q    Type
REMARK                         _______ _______ _______ _____ _____    ______ ____
ROOT
ATOM      1  N   UNL     1       4.709  -4.181   0.233  0.00  0.00    -0.293 N 
ATOM      2  C   UNL     1       4.631  -4.924  -0.889  0.00  0.00    +0.218 C 
ATOM      3  O   UNL     1       4.770  -4.401  -1.974  0.00  0.00    -0.276 OA
ENDROOT
BRANCH   1   5
ATOM      4  C   UNL     1       3.062  -4.788   1.936  0.00  0.00    +0.024 C 
ATOM      5  C   UNL     1       4.541  -4.813   1.544  0.00  0.00    +0.105 C 
ENDBRANCH   1   5
BRANCH   1   6
ATOM      6  C   UNL     1       4.962  -2.741   0.141  0.00  0.00    +0.203 C 
BRANCH   6   7
ATOM      7  C   UNL     1       3.650  -2.005   0.047  0.00  0.00    +0.235 C 
ATOM      8  O   UNL     1       2.607  -2.623   0.056  0.00  0.00    -0.274 OA
ATOM      9  N   UNL     1       3.637  -0.661  -0.046  0.00  0.00    -0.284 N 
ATOM     10  H   UNL     1       4.471  -0.171  -0.121  0.00  0.00    +0.155 HD
BRANCH   9  11
ATOM     11  C   UNL     1       2.418   0.030  -0.036  0.00  0.00    +0.037 A 
ATOM     12  C   UNL     1       2.329   1.274   0.574  0.00  0.00    +0.027 A 
ATOM     13  C   UNL     1       1.127   1.954   0.586  0.00  0.00    +0.051 A 
ATOM     14  C   UNL     1       0.006   1.399  -0.013  0.00  0.00    +0.162 A 
ATOM     15  C   UNL     1       0.093   0.155  -0.628  0.00  0.00    +0.164 A 
ATOM     16  C   UNL     1       1.299  -0.528  -0.637  0.00  0.00    +0.072 A 
ATOM     17  O   UNL     1      -0.995  -0.402  -1.228  0.00  0.00    -0.485 OA
ATOM     18  C   UNL     1      -2.272   0.138  -0.875  0.00  0.00    +0.270 C 
ATOM     19  C   UNL     1      -2.176   1.669  -0.920  0.00  0.00    +0.270 C 
ATOM     20  O   UNL     1      -1.172   2.081   0.015  0.00  0.00    -0.485 OA
ENDBRANCH   9  11
ENDBRANCH   6   7
ENDBRANCH   1   6
BRANCH   2  21
ATOM     21  C   UNL     1       4.370  -6.405  -0.795  0.00  0.00    +0.123 C 
BRANCH  21  22
ATOM     22  C   UNL     1       4.330  -7.006  -2.201  0.00  0.00    +0.113 C 
BRANCH  22  23
ATOM     23  C   UNL     1       4.192  -8.504  -2.104  0.00  0.00    -0.027 A 
ATOM     24  C   UNL     1       4.539  -9.155  -0.934  0.00  0.00    +0.007 A 
ATOM     25  C   UNL     1       4.407 -10.528  -0.843  0.00  0.00    +0.020 A 
ATOM     26  C   UNL     1       3.939 -11.252  -1.925  0.00  0.00    +0.041 A 
ATOM     27  C   UNL     1       3.598 -10.600  -3.096  0.00  0.00    +0.020 A 
ATOM     28  C   UNL     1       3.724  -9.227  -3.185  0.00  0.00    +0.007 A 
ATOM     29 CL   UNL     1       3.782 -12.977  -1.813  0.00  0.00    -0.084 Cl
ENDBRANCH  22  23
BRANCH  22  30
ATOM     30  N   UNL     1       3.186  -6.458  -2.934  0.00  0.00    -0.292 N 
ATOM     31  C   UNL     1       1.931  -6.725  -2.522  0.00  0.00    +0.298 C 
ATOM     32  O   UNL     1       1.748  -7.345  -1.492  0.00  0.00    -0.253 OA
ATOM     33  N   UNL     1       0.878  -6.305  -3.251  0.00  0.00    -0.313 N 
ATOM     34  H   UNL     1       3.332  -5.902  -3.715  0.00  0.00    +0.151 HD
ATOM     35  H   UNL     1       1.024  -5.810  -4.073  0.00  0.00    +0.146 HD
ATOM     36  H   UNL     1      -0.025  -6.498  -2.955  0.00  0.00    +0.146 HD
ENDBRANCH  22  30
ENDBRANCH  21  22
ENDBRANCH   2  21
TORSDOF 8
