REMARK  Name = ZINC33331660
REMARK  6 active torsions:
REMARK  status: ('A' for Active; 'I' for Inactive)
REMARK    1  A    between atoms: C_1  and  C_2
REMARK    2  A    between atoms: C_5  and  N_8
REMARK    3  A    between atoms: C_9  and  C_11
REMARK    4  A    between atoms: C_11  and  C_34
REMARK    5  A    between atoms: N_23  and  C_24
REMARK    6  A    between atoms: C_24  and  C_25
REMARK                            x       y       z     vdW  Elec       q    Type
REMARK                         _______ _______ _______ _____ _____    ______ ____
ROOT
ATOM      1  C   UNL     1       1.464  -0.607   1.942  0.00  0.00    +0.129 C 
ATOM      2  C   UNL     1       1.917  -0.613   3.406  0.00  0.00    +0.157 C 
ATOM      3  N   UNL     1       0.850  -1.185   4.232  0.00  0.00    -0.333 N 
ATOM      4  C   UNL     1       0.950  -1.876   5.425  0.00  0.00    +0.057 A 
ATOM      5  C   UNL     1       1.945  -2.332   6.302  0.00  0.00    +0.034 A 
ATOM      6  C   UNL     1       1.607  -2.999   7.425  0.00  0.00    +0.048 A 
ATOM      7  S   UNL     1      -0.175  -3.042   7.332  0.00  0.00    -0.095 S 
ATOM      8  C   UNL     1      -0.370  -2.167   5.801  0.00  0.00    +0.038 A 
ATOM      9  C   UNL     1      -1.246  -1.665   4.847  0.00  0.00    +0.048 A 
ATOM     10  C   UNL     1      -0.491  -1.075   3.878  0.00  0.00    +0.106 A 
ATOM     11  C   UNL     1      -0.885  -0.390   2.641  0.00  0.00    +0.264 C 
ATOM     12  O   UNL     1      -2.047  -0.114   2.401  0.00  0.00    -0.268 OA
ATOM     13  N   UNL     1       0.113  -0.082   1.780  0.00  0.00    -0.276 N 
ATOM     14  C   UNL     1       1.506  -2.038   1.401  0.00  0.00    +0.043 C 
ENDROOT
BRANCH   1  16
ATOM     15  N   UNL     1       3.182   1.163   1.760  0.00  0.00    -0.311 N 
ATOM     16  C   UNL     1       2.416   0.242   1.141  0.00  0.00    +0.238 C 
ATOM     17  O   UNL     1       2.494   0.098  -0.061  0.00  0.00    -0.273 OA
ATOM     18  H   UNL     1       3.052   1.353   2.835  0.00  0.00    +0.149 HD
BRANCH  15  23
ATOM     19  C   UNL     1       6.909   1.659   4.355  0.00  0.00    +0.007 C 
ATOM     20  C   UNL     1       6.352   2.002   2.972  0.00  0.00    -0.014 C 
ATOM     21  C   UNL     1       5.092   2.857   3.128  0.00  0.00    +0.005 C 
ATOM     22  C   UNL     1       4.535   3.200   1.745  0.00  0.00    +0.022 C 
ATOM     23  C   UNL     1       4.188   1.910   1.000  0.00  0.00    +0.073 C 
ATOM     24  C   UNL     1       5.447   1.056   0.844  0.00  0.00    +0.022 C 
ATOM     25  C   UNL     1       6.005   0.712   2.227  0.00  0.00    +0.005 C 
ENDBRANCH  15  23
ENDBRANCH   1  16
BRANCH  13  26
ATOM     26  C   UNL     1      -0.173   0.802   0.648  0.00  0.00    +0.144 C 
BRANCH  26  27
ATOM     27  C   UNL     1       0.063   2.233   1.055  0.00  0.00    -0.026 A 
ATOM     28  C   UNL     1       1.259   2.852   0.740  0.00  0.00    +0.009 A 
ATOM     29  C   UNL     1       1.481   4.165   1.112  0.00  0.00    +0.050 A 
ATOM     30  C   UNL     1       0.504   4.864   1.802  0.00  0.00    +0.166 A 
ATOM     31  C   UNL     1      -0.700   4.241   2.119  0.00  0.00    +0.167 A 
ATOM     32  C   UNL     1      -0.918   2.927   1.738  0.00  0.00    +0.054 A 
ATOM     33  O   UNL     1      -1.488   5.131   2.791  0.00  0.00    -0.453 OA
ATOM     34  C   UNL     1      -0.918   6.426   2.524  0.00  0.00    +0.466 C 
ATOM     35  O   UNL     1       0.471   6.144   2.275  0.00  0.00    -0.453 OA
ENDBRANCH  26  27
ENDBRANCH  13  26
TORSDOF 4
