REMARK  Name = ZINC09665706
REMARK  11 active torsions:
REMARK  status: ('A' for Active; 'I' for Inactive)
REMARK    1  A    between atoms: C_1  and  C_2
REMARK    2  A    between atoms: C_5  and  C_32
REMARK    3  A    between atoms: C_5  and  C_33
REMARK    4  A    between atoms: N_11  and  C_15
REMARK    5  A    between atoms: C_15  and  N_65
REMARK    6  A    between atoms: C_16  and  C_17
REMARK    7  A    between atoms: C_16  and  N_65
REMARK    8  A    between atoms: C_20  and  C_22
REMARK    9  A    between atoms: C_29  and  C_30
REMARK   10  A    between atoms: C_29  and  C_31
REMARK   11  A    between atoms: C_29  and  N_65
REMARK                            x       y       z     vdW  Elec       q    Type
REMARK                         _______ _______ _______ _____ _____    ______ ____
ROOT
ATOM      1  N   UNL     1       1.625   6.209   1.359  0.00  0.00    +0.398 N 
ATOM      2  H   UNL     1       0.802   6.503   1.897  0.00  0.00    -0.078 HD
ENDROOT
BRANCH   1   3
ATOM      3  C   UNL     1       2.226   5.025   2.009  0.00  0.00    -0.072 C 
ATOM      4  C   UNL     1       1.108   4.049   2.382  0.00  0.00    -0.013 C 
ATOM      5  C   UNL     1       3.210   4.335   1.063  0.00  0.00    -0.013 C 
ENDBRANCH   1   3
BRANCH   1   6
ATOM      6  C   UNL     1       2.601   7.318   1.329  0.00  0.00    +0.044 C 
BRANCH   6  16
ATOM      7  C   UNL     1       0.254   8.991   7.805  0.00  0.00    +0.007 C 
ATOM      8  C   UNL     1       1.364   9.343   6.813  0.00  0.00    -0.011 C 
ATOM      9  C   UNL     1       1.623  10.850   6.851  0.00  0.00    +0.009 C 
ATOM     10  C   UNL     1       2.739  11.203   5.866  0.00  0.00    -0.032 C 
ATOM     11  C   UNL     1       2.315  10.803   4.451  0.00  0.00    +0.041 C 
ATOM     12  C   UNL     1       2.031   9.306   4.408  0.00  0.00    +0.113 C 
ATOM     13  C   UNL     1       0.934   8.936   5.401  0.00  0.00    +0.038 C 
ATOM     14  C   UNL     1       1.646   8.885   3.009  0.00  0.00    +0.245 C 
ATOM     15  O   UNL     1       0.693   9.268   2.363  0.00  0.00    -0.273 OA
ATOM     16  N   UNL     1       2.583   7.992   2.630  0.00  0.00    -0.241 N 
ATOM     17  C   UNL     1       3.499   7.803   3.588  0.00  0.00    +0.308 C 
ATOM     18  O   UNL     1       4.445   7.047   3.479  0.00  0.00    -0.252 OA
ATOM     19  N   UNL     1       3.254   8.542   4.686  0.00  0.00    -0.285 N 
ATOM     20  C   UNL     1       4.014  10.449   6.249  0.00  0.00    +0.011 C 
ATOM     21  C   UNL     1       3.004  12.709   5.913  0.00  0.00    +0.011 C 
ATOM     22  H   UNL     1       3.782   8.566   5.500  0.00  0.00    +0.151 HD
ENDBRANCH   6  16
ENDBRANCH   1   6
BRANCH   1  23
ATOM     23  C   UNL     1       1.204   5.870  -0.017  0.00  0.00    +0.023 C 
BRANCH  23  24
ATOM     24  C   UNL     1      -0.104   5.125   0.049  0.00  0.00    +0.202 A 
ATOM     25  N   UNL     1      -1.269   5.637   0.335  0.00  0.00    -0.114 NA
ATOM     26  N   UNL     1      -2.166   4.716   0.296  0.00  0.00    -0.107 NA
ATOM     27  C   UNL     1      -1.598   3.572  -0.010  0.00  0.00    +0.248 A 
ATOM     28  O   UNL     1      -0.282   3.811  -0.175  0.00  0.00    -0.422 OA
BRANCH  27  29
ATOM     29  C   UNL     1      -2.277   2.267  -0.152  0.00  0.00    +0.039 A 
ATOM     30  C   UNL     1      -1.544   1.130  -0.495  0.00  0.00    +0.014 A 
ATOM     31  C   UNL     1      -2.182  -0.087  -0.621  0.00  0.00    +0.021 A 
ATOM     32  C   UNL     1      -3.549  -0.179  -0.419  0.00  0.00    +0.041 A 
ATOM     33  C   UNL     1      -4.283   0.947  -0.084  0.00  0.00    +0.021 A 
ATOM     34  C   UNL     1      -3.655   2.168   0.051  0.00  0.00    +0.014 A 
ATOM     35 CL   UNL     1      -4.346  -1.712  -0.585  0.00  0.00    -0.084 Cl
ENDBRANCH  27  29
ENDBRANCH  23  24
ENDBRANCH   1  23
TORSDOF 6
