REMARK  Name = ZINC15859449
REMARK  6 active torsions:
REMARK  status: ('A' for Active; 'I' for Inactive)
REMARK    1  A    between atoms: C_1  and  C_2
REMARK    2  A    between atoms: C_7  and  C_9
REMARK    3  A    between atoms: C_7  and  C_15
REMARK    4  A    between atoms: C_7  and  N_60
REMARK    5  A    between atoms: C_16  and  N_24
REMARK    6  A    between atoms: C_25  and  C_27
REMARK                            x       y       z     vdW  Elec       q    Type
REMARK                         _______ _______ _______ _____ _____    ______ ____
ROOT
ATOM      1  C   UNL     1      -1.531   4.563   1.073  0.00  0.00    +0.118 A 
ATOM      2  C   UNL     1      -2.291   4.147   0.044  0.00  0.00    +0.082 A 
ATOM      3  C   UNL     1      -1.377   3.982  -1.096  0.00  0.00    +0.042 A 
ATOM      4  C   UNL     1      -1.537   3.589  -2.424  0.00  0.00    +0.013 A 
ATOM      5  C   UNL     1      -0.450   3.535  -3.251  0.00  0.00    +0.001 A 
ATOM      6  C   UNL     1       0.809   3.880  -2.780  0.00  0.00    +0.004 A 
ATOM      7  C   UNL     1       0.986   4.276  -1.472  0.00  0.00    +0.047 A 
ATOM      8  C   UNL     1      -0.105   4.332  -0.613  0.00  0.00    +0.137 A 
ATOM      9  O   UNL     1      -0.246   4.671   0.684  0.00  0.00    -0.459 OA
ENDROOT
BRANCH   2  10
ATOM     10  N   UNL     1      -3.676   3.916   0.056  0.00  0.00    -0.278 N 
ATOM     11  C   UNL     1      -4.150   2.671   0.256  0.00  0.00    +0.248 C 
ATOM     12  O   UNL     1      -3.385   1.763   0.517  0.00  0.00    -0.270 OA
ATOM     13  H   UNL     1      -4.292   4.654  -0.080  0.00  0.00    +0.155 HD
BRANCH  11  14
ATOM     14  C   UNL     1      -5.602   2.408   0.158  0.00  0.00    +0.037 A 
ATOM     15  C   UNL     1      -6.484   3.449  -0.136  0.00  0.00    +0.013 A 
ATOM     16  C   UNL     1      -7.837   3.195  -0.232  0.00  0.00    +0.001 A 
ATOM     17  C   UNL     1      -8.321   1.915  -0.026  0.00  0.00    +0.000 A 
ATOM     18  C   UNL     1      -7.452   0.881   0.271  0.00  0.00    +0.001 A 
ATOM     19  C   UNL     1      -6.096   1.119   0.364  0.00  0.00    +0.013 A 
ENDBRANCH  11  14
ENDBRANCH   2  10
BRANCH   1  20
ATOM     20  C   UNL     1      -2.043   4.864   2.458  0.00  0.00    +0.032 C 
BRANCH  20  27
ATOM     21  C   UNL     1       0.691   2.014   6.590  0.00  0.00    +0.007 C 
ATOM     22  C   UNL     1      -0.384   2.521   5.626  0.00  0.00    -0.018 C 
ATOM     23  C   UNL     1      -0.581   4.026   5.826  0.00  0.00    -0.015 C 
ATOM     24  C   UNL     1      -1.613   4.538   4.818  0.00  0.00    -0.077 C 
ATOM     25  C   UNL     1      -0.993   2.822   3.224  0.00  0.00    -0.077 C 
ATOM     26  C   UNL     1       0.057   2.259   4.184  0.00  0.00    -0.015 C 
ATOM     27  N   UNL     1      -1.118   4.277   3.450  0.00  0.00    +0.389 N 
ATOM     28  H   UNL     1      -0.194   4.712   3.342  0.00  0.00    -0.080 HD
ENDBRANCH  20  27
BRANCH  20  29
ATOM     29  C   UNL     1      -2.093   6.357   2.662  0.00  0.00    -0.054 A 
ATOM     30  C   UNL     1      -0.940   7.050   2.980  0.00  0.00    +0.002 A 
ATOM     31  C   UNL     1      -0.985   8.419   3.163  0.00  0.00    +0.000 A 
ATOM     32  C   UNL     1      -2.184   9.094   3.035  0.00  0.00    +0.000 A 
ATOM     33  C   UNL     1      -3.338   8.401   2.722  0.00  0.00    +0.000 A 
ATOM     34  C   UNL     1      -3.292   7.032   2.535  0.00  0.00    +0.002 A 
ENDBRANCH  20  29
ENDBRANCH   1  20
TORSDOF 5
