REMARK  Name = ZINC39301805
REMARK  10 active torsions:
REMARK  status: ('A' for Active; 'I' for Inactive)
REMARK    1  A    between atoms: C_1  and  C_2
REMARK    2  A    between atoms: C_3  and  C_16
REMARK    3  A    between atoms: C_4  and  C_15
REMARK    4  A    between atoms: N_5  and  C_7
REMARK    5  A    between atoms: C_16  and  C_17
REMARK    6  A    between atoms: C_17  and  C_18
REMARK    7  A    between atoms: N_20  and  C_21
REMARK    8  A    between atoms: C_21  and  C_22
REMARK    9  A    between atoms: N_25  and  C_28
REMARK   10  A    between atoms: C_28  and  C_29
REMARK                            x       y       z     vdW  Elec       q    Type
REMARK                         _______ _______ _______ _____ _____    ______ ____
ROOT
ATOM      1  C   UNL     1       0.851   0.453  -4.580  0.00  0.00    +0.213 C 
ATOM      2  O   UNL     1      -0.263   0.498  -5.059  0.00  0.00    -0.276 OA
ATOM      3  N   UNL     1       1.917   0.818  -5.318  0.00  0.00    -0.315 N 
ATOM      4  H   UNL     1       2.808   0.782  -4.935  0.00  0.00    +0.149 HD
ENDROOT
BRANCH   1   5
ATOM      5  C   UNL     1       1.041  -0.011  -3.159  0.00  0.00    +0.100 C 
BRANCH   5   6
ATOM      6  C   UNL     1      -0.318  -0.363  -2.550  0.00  0.00    +0.048 C 
BRANCH   6   9
ATOM      7  C   UNL     1      -0.339   1.479   0.029  0.00  0.00    +0.068 C 
ATOM      8  C   UNL     1      -0.137  -0.015   0.010  0.00  0.00    +0.064 A 
ATOM      9  C   UNL     1      -0.127  -0.827  -1.129  0.00  0.00    -0.003 A 
ATOM     10  C   UNL     1       0.083  -2.102  -0.730  0.00  0.00    +0.045 A 
ATOM     11  N   UNL     1       0.203  -2.097   0.617  0.00  0.00    -0.236 N 
ATOM     12  N   UNL     1       0.066  -0.774   1.056  0.00  0.00    -0.171 NA
ATOM     13  C   UNL     1       0.168  -3.312  -1.625  0.00  0.00    +0.066 C 
BRANCH  11  14
ATOM     14  C   UNL     1       0.428  -3.217   1.429  0.00  0.00    +0.068 A 
ATOM     15  C   UNL     1       1.345  -4.184   1.042  0.00  0.00    +0.048 A 
ATOM     16  C   UNL     1       1.566  -5.288   1.844  0.00  0.00    +0.044 A 
ATOM     17  C   UNL     1       0.873  -5.429   3.034  0.00  0.00    +0.040 A 
ATOM     18  C   UNL     1      -0.042  -4.467   3.422  0.00  0.00    +0.044 A 
ATOM     19  C   UNL     1      -0.262  -3.358   2.626  0.00  0.00    +0.048 A 
ATOM     20 CL   UNL     1      -0.910  -4.647   4.915  0.00  0.00    -0.083 Cl
ATOM     21 CL   UNL     1       2.712  -6.498   1.360  0.00  0.00    -0.083 Cl
ENDBRANCH  11  14
ENDBRANCH   6   9
ENDBRANCH   5   6
ENDBRANCH   1   5
BRANCH   3  22
ATOM     22  C   UNL     1       1.732   1.269  -6.700  0.00  0.00    +0.107 C 
BRANCH  22  23
ATOM     23  C   UNL     1       3.091   1.621  -7.308  0.00  0.00    +0.003 C 
ATOM     24  C   UNL     1       3.684   2.827  -6.574  0.00  0.00    -0.014 C 
ATOM     25  C   UNL     1       5.005   3.223  -7.238  0.00  0.00    -0.078 C 
ATOM     26  N   UNL     1       4.764   3.573  -8.643  0.00  0.00    +0.382 N 
ATOM     27  C   UNL     1       4.263   2.400  -9.370  0.00  0.00    -0.078 C 
ATOM     28  C   UNL     1       2.914   1.973  -8.788  0.00  0.00    -0.014 C 
ATOM     29  H   UNL     1       4.082   4.314  -8.692  0.00  0.00    -0.081 HD
BRANCH  26  30
ATOM     30  C   UNL     1       6.021   4.026  -9.255  0.00  0.00    -0.042 C 
BRANCH  30  31
ATOM     31  C   UNL     1       5.752   4.502 -10.660  0.00  0.00    -0.057 A 
ATOM     32  C   UNL     1       5.820   3.621 -11.723  0.00  0.00    +0.009 A 
ATOM     33  C   UNL     1       5.573   4.081 -12.974  0.00  0.00    +0.045 A 
ATOM     34  S   UNL     1       5.232   5.808 -12.672  0.00  0.00    -0.105 S 
ATOM     35  C   UNL     1       5.436   5.798 -10.898  0.00  0.00    +0.047 A 
ENDBRANCH  30  31
ENDBRANCH  26  30
ENDBRANCH  22  23
ENDBRANCH   3  22
TORSDOF 8
