REMARK  Name = ZINC40718954
REMARK  8 active torsions:
REMARK  status: ('A' for Active; 'I' for Inactive)
REMARK    1  A    between atoms: C_1  and  C_2
REMARK    2  A    between atoms: C_25  and  C_40
REMARK    3  A    between atoms: C_28  and  O_39
REMARK    4  A    between atoms: C_31  and  C_38
REMARK    5  A    between atoms: C_32  and  C_33
REMARK    6  A    between atoms: C_32  and  O_37
REMARK    7  A    between atoms: C_33  and  C_35
REMARK    8  A    between atoms: C_35  and  O_36
REMARK                            x       y       z     vdW  Elec       q    Type
REMARK                         _______ _______ _______ _____ _____    ______ ____
ROOT
ATOM      1  C   UNL     1      -0.201   1.611   0.084  0.00  0.00    +0.011 C 
ATOM      2  C   UNL     1      -0.147   0.085  -0.015  0.00  0.00    +0.026 C 
ATOM      3  C   UNL     1      -1.584  -0.504   0.070  0.00  0.00    +0.011 C 
ATOM      4  C   UNL     1      -1.670  -0.989   1.521  0.00  0.00    +0.002 C 
ATOM      5  C   UNL     1      -2.723  -2.011   1.859  0.00  0.00    -0.001 C 
ATOM      6  C   UNL     1      -4.106  -1.616   1.392  0.00  0.00    +0.008 C 
ATOM      7  C   UNL     1      -4.963  -1.034   2.505  0.00  0.00    +0.031 C 
ATOM      8  C   UNL     1      -4.079  -0.303   3.489  0.00  0.00    -0.061 C 
ATOM      9  C   UNL     1      -4.286   0.998   3.682  0.00  0.00    +0.028 C 
ATOM     10  C   UNL     1      -3.426   1.695   4.649  0.00  0.00    +0.072 A 
ATOM     11  C   UNL     1      -2.265   1.091   5.116  0.00  0.00    -0.001 A 
ATOM     12  C   UNL     1      -1.687   1.946   6.034  0.00  0.00    +0.139 A 
ATOM     13  N   UNL     1      -2.419   3.035   6.112  0.00  0.00    -0.173 NA
ATOM     14  N   UNL     1      -3.506   2.913   5.227  0.00  0.00    -0.214 N 
ATOM     15  C   UNL     1      -4.485   3.880   4.987  0.00  0.00    +0.155 A 
ATOM     16  C   UNL     1      -4.765   4.832   5.960  0.00  0.00    +0.048 A 
ATOM     17  C   UNL     1      -5.737   5.785   5.710  0.00  0.00    +0.005 A 
ATOM     18  C   UNL     1      -6.398   5.751   4.490  0.00  0.00    +0.020 A 
ATOM     19  C   UNL     1      -6.068   4.776   3.569  0.00  0.00    +0.113 A 
ATOM     20  N   UNL     1      -5.133   3.885   3.834  0.00  0.00    -0.236 NA
ATOM     21  C   UNL     1      -1.813  -0.252   4.599  0.00  0.00    +0.050 C 
ATOM     22  C   UNL     1      -3.021  -1.098   4.212  0.00  0.00    -0.001 C 
ATOM     23  C   UNL     1      -2.623  -2.299   3.360  0.00  0.00    +0.031 C 
ATOM     24  C   UNL     1      -1.236  -2.826   3.702  0.00  0.00    +0.119 C 
ATOM     25  C   UNL     1      -0.075  -1.982   3.180  0.00  0.00    +0.041 C 
ATOM     26  C   UNL     1      -0.269  -1.609   1.734  0.00  0.00    +0.009 C 
ATOM     27  C   UNL     1       0.640  -0.500   1.187  0.00  0.00    +0.134 C 
ATOM     28  C   UNL     1      -0.062  -2.846   0.854  0.00  0.00    +0.015 C 
ATOM     29  C   UNL     1      -3.670  -1.617   5.510  0.00  0.00    +0.016 C 
ENDROOT
BRANCH  27  30
ATOM     30  C   UNL     1       1.946  -1.086   0.725  0.00  0.00    +0.190 C 
ATOM     31  O   UNL     1       2.069  -1.461  -0.416  0.00  0.00    -0.292 OA
BRANCH  30  32
ATOM     32  C   UNL     1       3.100  -1.205   1.686  0.00  0.00    +0.233 C 
BRANCH  32  33
ATOM     33  O   UNL     1       4.220  -1.788   1.016  0.00  0.00    -0.387 OA
ATOM     34  H   UNL     1       5.002  -1.895   1.576  0.00  0.00    +0.210 HD
ENDBRANCH  32  33
ENDBRANCH  30  32
ENDBRANCH  27  30
BRANCH  27  35
ATOM     35  O   UNL     1       0.855   0.502   2.179  0.00  0.00    -0.380 OA
ATOM     36  H   UNL     1       1.378   1.255   1.871  0.00  0.00    +0.211 HD
ENDBRANCH  27  35
BRANCH  24  37
ATOM     37  O   UNL     1      -1.099  -3.014   5.115  0.00  0.00    -0.391 OA
ATOM     38  H   UNL     1      -0.234  -3.349   5.386  0.00  0.00    +0.210 HD
ENDBRANCH  24  37
TORSDOF 5
