REMARK  Name = ZINC13498621
REMARK  15 active torsions:
REMARK  status: ('A' for Active; 'I' for Inactive)
REMARK    1  A    between atoms: C_1  and  C_2
REMARK    2  A    between atoms: C_2  and  C_3
REMARK    3  A    between atoms: C_3  and  C_4
REMARK    4  A    between atoms: C_3  and  C_5
REMARK    5  A    between atoms: C_3  and  N_6
REMARK    6  A    between atoms: C_7  and  C_11
REMARK    7  A    between atoms: C_11  and  C_13
REMARK    8  A    between atoms: C_11  and  N_75
REMARK    9  A    between atoms: C_13  and  C_14
REMARK   10  A    between atoms: C_13  and  C_15
REMARK   11  A    between atoms: C_16  and  C_17
REMARK   12  A    between atoms: C_16  and  N_75
REMARK   13  A    between atoms: C_21  and  O_29
REMARK   14  A    between atoms: O_29  and  C_30
REMARK   15  A    between atoms: C_31  and  N_75
REMARK                            x       y       z     vdW  Elec       q    Type
REMARK                         _______ _______ _______ _____ _____    ______ ____
ROOT
ATOM      1  N   UNL     1      -0.897   3.038   3.583  0.00  0.00    +0.391 N 
ATOM      2  H   UNL     1      -0.580   3.049   4.559  0.00  0.00    -0.080 HD
ENDROOT
BRANCH   1   3
ATOM      3  C   UNL     1      -2.322   2.649   3.545  0.00  0.00    -0.067 C 
ATOM      4  C   UNL     1      -2.491   1.318   4.280  0.00  0.00    -0.015 C 
ATOM      5  C   UNL     1      -3.966   0.913   4.269  0.00  0.00    -0.002 C 
ATOM      6  C   UNL     1      -4.443   0.761   2.823  0.00  0.00    -0.000 C 
ATOM      7  C   UNL     1      -4.274   2.093   2.088  0.00  0.00    -0.002 C 
ATOM      8  C   UNL     1      -2.799   2.498   2.099  0.00  0.00    -0.015 C 
ENDBRANCH   1   3
BRANCH   1   9
ATOM      9  C   UNL     1      -0.086   2.061   2.826  0.00  0.00    +0.006 C 
BRANCH   9  11
ATOM     10  N   UNL     1       0.012   1.601   0.320  0.00  0.00    -0.225 N 
ATOM     11  C   UNL     1      -0.027   2.442   1.370  0.00  0.00    +0.139 A 
ATOM     12  N   UNL     1       0.003   3.657   0.879  0.00  0.00    -0.115 NA
ATOM     13  N   UNL     1       0.052   3.567  -0.405  0.00  0.00    -0.023 NA
ATOM     14  N   UNL     1       0.055   2.326  -0.747  0.00  0.00    -0.043 NA
BRANCH  10  15
ATOM     15  C   UNL     1       0.005   0.137   0.377  0.00  0.00    +0.061 C 
ATOM     16  C   UNL     1       1.133  -0.344   1.292  0.00  0.00    +0.036 C 
ATOM     17  C   UNL     1      -1.339  -0.345   0.927  0.00  0.00    +0.036 C 
BRANCH  15  19
ATOM     18  C   UNL     1       0.204  -1.958  -0.970  0.00  0.00    +0.006 C 
ATOM     19  C   UNL     1       0.212  -0.429  -1.030  0.00  0.00    +0.026 C 
ENDBRANCH  15  19
ENDBRANCH  10  15
ENDBRANCH   9  11
BRANCH   9  20
ATOM     20  C   UNL     1       1.329   2.046   3.408  0.00  0.00    -0.024 C 
ATOM     21  C   UNL     1       1.283   1.537   4.850  0.00  0.00    +0.006 C 
ATOM     22  C   UNL     1       1.903   3.465   3.386  0.00  0.00    +0.006 C 
ENDBRANCH   9  20
ENDBRANCH   1   9
BRANCH   1  23
ATOM     23  C   UNL     1      -0.726   4.389   3.007  0.00  0.00    -0.036 C 
BRANCH  23  24
ATOM     24  C   UNL     1      -1.195   5.406   4.015  0.00  0.00    +0.001 A 
ATOM     25  C   UNL     1      -0.305   5.968   4.870  0.00  0.00    +0.017 A 
ATOM     26  C   UNL     1      -0.792   6.954   5.838  0.00  0.00    +0.002 A 
ATOM     27  C   UNL     1       0.079   7.567   6.744  0.00  0.00    +0.055 A 
ATOM     28  C   UNL     1      -0.413   8.492   7.643  0.00  0.00    +0.121 A 
ATOM     29  C   UNL     1      -1.768   8.815   7.649  0.00  0.00    +0.047 A 
ATOM     30  C   UNL     1      -2.635   8.219   6.761  0.00  0.00    +0.030 A 
ATOM     31  C   UNL     1      -2.160   7.283   5.847  0.00  0.00    +0.049 A 
ATOM     32  N   UNL     1      -3.014   6.675   4.949  0.00  0.00    -0.322 N 
ATOM     33  H   UNL     1      -3.957   6.902   4.957  0.00  0.00    +0.169 HD
ATOM     34  C   UNL     1      -2.556   5.775   4.061  0.00  0.00    +0.251 A 
ATOM     35  O   UNL     1      -3.338   5.261   3.279  0.00  0.00    -0.268 OA
BRANCH  28  36
ATOM     36  O   UNL     1       0.429   9.091   8.527  0.00  0.00    -0.495 OA
ATOM     37  C   UNL     1      -0.144  10.038   9.429  0.00  0.00    +0.277 C 
ENDBRANCH  28  36
ENDBRANCH  23  24
ENDBRANCH   1  23
TORSDOF 9
