REMARK  Name = ZINC22987816
REMARK  10 active torsions:
REMARK  status: ('A' for Active; 'I' for Inactive)
REMARK    1  A    between atoms: C_4  and  O_31
REMARK    2  A    between atoms: C_5  and  C_7
REMARK    3  A    between atoms: C_7  and  S_8
REMARK    4  A    between atoms: S_8  and  C_9
REMARK    5  A    between atoms: C_12  and  C_24
REMARK    6  A    between atoms: N_13  and  C_14
REMARK    7  A    between atoms: C_17  and  O_20
REMARK    8  A    between atoms: O_20  and  C_21
REMARK    9  A    between atoms: C_24  and  N_25
REMARK   10  A    between atoms: O_31  and  C_32
REMARK                            x       y       z     vdW  Elec       q    Type
REMARK                         _______ _______ _______ _____ _____    ______ ____
ROOT
ATOM      1  C   UNL     1      -0.017   1.363   0.009  0.00  0.00    +0.196 A 
ATOM      2  N   UNL     1       1.234   1.764  -0.000  0.00  0.00    -0.122 NA
ATOM      3  N   UNL     1       2.019   0.748  -0.013  0.00  0.00    -0.135 NA
ATOM      4  C   UNL     1       1.325  -0.356  -0.013  0.00  0.00    +0.122 A 
ATOM      5  N   UNL     1       0.002  -0.004   0.002  0.00  0.00    -0.276 N 
ENDROOT
BRANCH   5   6
ATOM      6  C   UNL     1      -1.105  -0.867   0.007  0.00  0.00    +0.050 A 
ATOM      7  C   UNL     1      -1.327  -1.705   1.091  0.00  0.00    +0.030 A 
ATOM      8  C   UNL     1      -2.419  -2.550   1.099  0.00  0.00    +0.048 A 
ATOM      9  C   UNL     1      -3.288  -2.570   0.018  0.00  0.00    +0.127 A 
ATOM     10  C   UNL     1      -3.063  -1.737  -1.069  0.00  0.00    +0.048 A 
ATOM     11  C   UNL     1      -1.975  -0.888  -1.074  0.00  0.00    +0.030 A 
BRANCH   9  12
ATOM     12  O   UNL     1      -4.360  -3.406   0.022  0.00  0.00    -0.434 OA
BRANCH  12  13
ATOM     13  C   UNL     1      -4.530  -4.236   1.173  0.00  0.00    +0.541 C 
ATOM     14  F   UNL     1      -3.409  -5.060   1.324  0.00  0.00    -0.166 F 
ATOM     15  F   UNL     1      -4.674  -3.433   2.310  0.00  0.00    -0.166 F 
ENDBRANCH  12  13
ENDBRANCH   9  12
ENDBRANCH   5   6
BRANCH   1  16
ATOM     16  S   UNL     1      -1.447   2.392   0.022  0.00  0.00    -0.081 S 
BRANCH  16  17
ATOM     17  C   UNL     1      -0.661   4.023   0.027  0.00  0.00    +0.116 C 
BRANCH  17  22
ATOM     18  C   UNL     1      -3.190   6.570  -1.143  0.00  0.00    +0.001 A 
ATOM     19  C   UNL     1      -3.674   7.056   0.058  0.00  0.00    +0.004 A 
ATOM     20  C   UNL     1      -3.184   6.563   1.251  0.00  0.00    +0.046 A 
ATOM     21  C   UNL     1      -2.207   5.578   1.244  0.00  0.00    +0.131 A 
ATOM     22  C   UNL     1      -1.724   5.092   0.038  0.00  0.00    +0.005 A 
ATOM     23  C   UNL     1      -2.213   5.593  -1.153  0.00  0.00    +0.008 A 
BRANCH  21  24
ATOM     24  O   UNL     1      -1.723   5.091   2.417  0.00  0.00    -0.434 OA
BRANCH  24  25
ATOM     25  C   UNL     1      -2.267   5.637   3.620  0.00  0.00    +0.541 C 
ATOM     26  F   UNL     1      -2.025   7.015   3.657  0.00  0.00    -0.166 F 
ATOM     27  F   UNL     1      -3.646   5.405   3.656  0.00  0.00    -0.166 F 
ENDBRANCH  24  25
ENDBRANCH  21  24
ENDBRANCH  17  22
ENDBRANCH  16  17
ENDBRANCH   1  16
BRANCH   4  28
ATOM     28  C   UNL     1       1.877  -1.758  -0.026  0.00  0.00    -0.001 C 
BRANCH  28  29
ATOM     29  N   UNL     1       2.043  -2.206  -1.415  0.00  0.00    +0.384 N 
ATOM     30  C   UNL     1       0.744  -2.329  -2.087  0.00  0.00    -0.078 C 
ATOM     31  C   UNL     1       0.962  -2.655  -3.566  0.00  0.00    -0.019 C 
ATOM     32  C   UNL     1       1.746  -3.965  -3.686  0.00  0.00    -0.004 C 
ATOM     33  C   UNL     1       3.074  -3.825  -2.937  0.00  0.00    -0.019 C 
ATOM     34  C   UNL     1       2.795  -3.466  -1.475  0.00  0.00    -0.078 C 
ATOM     35  H   UNL     1       2.626  -1.442  -1.951  0.00  0.00    -0.081 HD
ENDBRANCH  28  29
ENDBRANCH   4  28
TORSDOF 10
