REMARK  Name = ZINC39276902
REMARK  5 active torsions:
REMARK  status: ('A' for Active; 'I' for Inactive)
REMARK    1  A    between atoms: C_1  and  C_2
REMARK    2  A    between atoms: C_2  and  C_3
REMARK    3  A    between atoms: C_2  and  C_4
REMARK    4  A    between atoms: C_2  and  C_5
REMARK    5  A    between atoms: N_19  and  N_20
REMARK                            x       y       z     vdW  Elec       q    Type
REMARK                         _______ _______ _______ _____ _____    ______ ____
ROOT
ATOM      1  C   UNL     1       0.707  -0.490  -1.238  0.00  0.00    -0.041 A 
ATOM      2  C   UNL     1       0.009  -1.295  -2.149  0.00  0.00    +0.006 A 
ATOM      3  C   UNL     1       0.574  -1.772  -3.278  0.00  0.00    +0.026 A 
ATOM      4  C   UNL     1       1.926  -1.471  -3.592  0.00  0.00    +0.043 A 
ATOM      5  N   UNL     1       2.675  -1.789  -4.624  0.00  0.00    -0.372 N 
ATOM      6  C   UNL     1       4.026  -1.298  -4.381  0.00  0.00    +0.153 C 
ATOM      7  C   UNL     1       3.922  -0.435  -3.132  0.00  0.00    -0.033 C 
ATOM      8  C   UNL     1       2.685  -0.612  -2.650  0.00  0.00    -0.000 A 
ATOM      9  C   UNL     1       1.995  -0.134  -1.445  0.00  0.00    +0.014 A 
ATOM     10  C   UNL     1       5.032   0.484  -2.692  0.00  0.00    +0.034 C 
ATOM     11  C   UNL     1       5.385   1.374  -3.895  0.00  0.00    +0.010 C 
ATOM     12  C   UNL     1       5.697   0.520  -5.123  0.00  0.00    +0.055 C 
ATOM     13  C   UNL     1       4.524  -0.381  -5.476  0.00  0.00    +0.067 C 
ATOM     14  N   UNL     1       3.969  -0.358  -6.652  0.00  0.00    -0.155 NA
ATOM     15  H   UNL     1       2.380  -2.269  -5.414  0.00  0.00    +0.161 HD
ENDROOT
BRANCH  14  16
ATOM     16  N   UNL     1       4.420   0.437  -7.563  0.00  0.00    -0.144 NA
ATOM     17  C   UNL     1       3.859   0.460  -8.751  0.00  0.00    +0.157 C 
ATOM     18  C   UNL     1       2.709  -0.343  -9.220  0.00  0.00    +0.029 A 
ATOM     19  C   UNL     1       1.908  -1.306  -8.612  0.00  0.00    +0.027 A 
ATOM     20  C   UNL     1       0.883  -1.894  -9.326  0.00  0.00    +0.019 A 
ATOM     21  C   UNL     1       0.654  -1.526 -10.642  0.00  0.00    +0.017 A 
ATOM     22  C   UNL     1       1.443  -0.572 -11.254  0.00  0.00    +0.025 A 
ATOM     23  C   UNL     1       2.479   0.032 -10.552  0.00  0.00    +0.043 A 
ATOM     24  N   UNL     1       3.405   1.001 -10.924  0.00  0.00    -0.280 N 
ATOM     25  C   UNL     1       4.237   1.300  -9.912  0.00  0.00    +0.269 C 
ATOM     26  O   UNL     1       5.140   2.113  -9.944  0.00  0.00    -0.268 OA
ATOM     27 BR   UNL     1      -0.209  -3.203  -8.507  0.00  0.00    -0.050 Br
ATOM     28  H   UNL     1       3.442   1.412 -11.802  0.00  0.00    +0.155 HD
ENDBRANCH  14  16
BRANCH   1  30
ATOM     29  C   UNL     1      -0.019   1.526   0.010  0.00  0.00    +0.015 C 
ATOM     30  C   UNL     1       0.002  -0.004   0.002  0.00  0.00    -0.013 C 
ATOM     31  C   UNL     1       0.742  -0.511   1.242  0.00  0.00    +0.015 C 
ATOM     32  C   UNL     1      -1.433  -0.534   0.013  0.00  0.00    +0.015 C 
ENDBRANCH   1  30
TORSDOF 2
