REMARK  Name = ZINC36660324
REMARK  10 active torsions:
REMARK  status: ('A' for Active; 'I' for Inactive)
REMARK    1  A    between atoms: C_1  and  C_2
REMARK    2  A    between atoms: C_5  and  S_8
REMARK    3  A    between atoms: S_8  and  N_11
REMARK    4  A    between atoms: C_15  and  C_17
REMARK    5  A    between atoms: N_19  and  C_20
REMARK    6  A    between atoms: C_20  and  C_21
REMARK    7  A    between atoms: C_21  and  N_22
REMARK    8  A    between atoms: N_22  and  C_23
REMARK    9  A    between atoms: N_22  and  C_24
REMARK   10  A    between atoms: C_28  and  C_35
REMARK                            x       y       z     vdW  Elec       q    Type
REMARK                         _______ _______ _______ _____ _____    ______ ____
ROOT
ATOM      1  C   UNL     1       1.817  -6.301   2.048  0.00  0.00    +0.240 C 
ATOM      2  O   UNL     1       0.760  -6.801   1.728  0.00  0.00    -0.273 OA
ATOM      3  N   UNL     1       2.547  -6.846   3.042  0.00  0.00    -0.251 N 
ATOM      4  C   UNL     1       2.139  -8.031   3.631  0.00  0.00    +0.168 A 
ATOM      5  N   UNL     1       1.087  -8.767   3.358  0.00  0.00    -0.224 NA
ATOM      6  C   UNL     1       0.809  -9.912   4.019  0.00  0.00    +0.085 A 
ATOM      7  C   UNL     1      -0.282 -10.790   3.824  0.00  0.00    -0.006 A 
ATOM      8  C   UNL     1      -0.417 -11.920   4.589  0.00  0.00    +0.046 A 
ATOM      9  C   UNL     1       0.506 -12.242   5.575  0.00  0.00    +0.021 A 
ATOM     10  C   UNL     1       1.586 -11.406   5.792  0.00  0.00    +0.019 A 
ATOM     11  C   UNL     1       1.728 -10.272   5.031  0.00  0.00    +0.041 A 
ATOM     12  S   UNL     1       2.915  -8.953   4.951  0.00  0.00    -0.052 S 
ATOM     13 CL   UNL     1      -1.772 -12.971   4.319  0.00  0.00    -0.083 Cl
ATOM     14  C   UNL     1      -1.308 -10.480   2.765  0.00  0.00    +0.047 C 
ENDROOT
BRANCH   1  19
ATOM     15  N   UNL     1       1.180  -4.313   0.791  0.00  0.00    -0.165 NA
ATOM     16  C   UNL     1       1.311  -4.251  -0.676  0.00  0.00    +0.110 C 
ATOM     17  C   UNL     1       2.824  -4.447  -0.948  0.00  0.00    +0.019 C 
ATOM     18  C   UNL     1       3.204  -5.485   0.141  0.00  0.00    +0.031 C 
ATOM     19  C   UNL     1       2.317  -5.072   1.334  0.00  0.00    +0.166 C 
BRANCH  15  20
ATOM     20  S   UNL     1      -0.041  -3.634   1.680  0.00  0.00    +0.062 S 
ATOM     21  O   UNL     1      -0.105  -4.358   2.901  0.00  0.00    -0.153 OA
ATOM     22  O   UNL     1      -1.156  -3.509   0.809  0.00  0.00    -0.153 OA
BRANCH  20  27
ATOM     23  C   UNL     1       1.681   1.974   3.091  0.00  0.00    +0.044 C 
ATOM     24  C   UNL     1       1.251   0.573   2.739  0.00  0.00    -0.050 A 
ATOM     25  C   UNL     1       0.549   0.339   1.571  0.00  0.00    +0.005 A 
ATOM     26  C   UNL     1       0.155  -0.946   1.248  0.00  0.00    +0.029 A 
ATOM     27  C   UNL     1       0.463  -1.997   2.092  0.00  0.00    +0.106 A 
ATOM     28  C   UNL     1       1.166  -1.762   3.259  0.00  0.00    +0.029 A 
ATOM     29  C   UNL     1       1.564  -0.478   3.580  0.00  0.00    +0.005 A 
ENDBRANCH  20  27
ENDBRANCH  15  20
ENDBRANCH   1  19
BRANCH   3  30
ATOM     30  C   UNL     1       3.771  -6.184   3.500  0.00  0.00    +0.097 C 
BRANCH  30  31
ATOM     31  C   UNL     1       3.425  -5.174   4.597  0.00  0.00    -0.060 C 
BRANCH  31  32
ATOM     32  N   UNL     1       4.652  -4.511   5.056  0.00  0.00    +0.377 N 
ATOM     33  C   UNL     1       5.218  -3.714   3.959  0.00  0.00    -0.097 C 
ATOM     34  C   UNL     1       4.338  -3.630   6.189  0.00  0.00    -0.097 C 
ATOM     35  H   UNL     1       5.323  -5.207   5.347  0.00  0.00    -0.083 HD
ENDBRANCH  31  32
ENDBRANCH  30  31
ENDBRANCH   3  30
TORSDOF 6
