REMARK  Name = ZINC08952121
REMARK  12 active torsions:
REMARK  status: ('A' for Active; 'I' for Inactive)
REMARK    1  A    between atoms: C_1  and  C_2
REMARK    2  A    between atoms: C_2  and  C_4
REMARK    3  A    between atoms: C_8  and  C_37
REMARK    4  A    between atoms: C_17  and  C_36
REMARK    5  A    between atoms: C_20  and  O_35
REMARK    6  A    between atoms: C_22  and  C_33
REMARK    7  A    between atoms: C_22  and  C_34
REMARK    8  A    between atoms: C_27  and  C_32
REMARK    9  A    between atoms: C_28  and  C_31
REMARK   10  A    between atoms: C_37  and  O_38
REMARK   11  A    between atoms: O_38  and  C_39
REMARK   12  A    between atoms: C_39  and  C_41
REMARK                            x       y       z     vdW  Elec       q    Type
REMARK                         _______ _______ _______ _____ _____    ______ ____
ROOT
ATOM      1  C   UNL     1      -0.819   1.756  -1.170  0.00  0.00    +0.018 C 
ATOM      2  C   UNL     1      -1.256   1.953  -2.644  0.00  0.00    +0.009 C 
ATOM      3  C   UNL     1      -2.789   2.108  -2.571  0.00  0.00    +0.011 C 
ATOM      4  C   UNL     1      -3.014   2.890  -1.246  0.00  0.00    +0.009 C 
ATOM      5  C   UNL     1      -1.896   2.380  -0.315  0.00  0.00    +0.009 C 
ATOM      6  C   UNL     1      -1.599   3.292   0.829  0.00  0.00    -0.000 C 
ATOM      7  C   UNL     1      -0.466   2.840   1.742  0.00  0.00    +0.005 C 
ATOM      8  C   UNL     1      -0.583   3.596   3.081  0.00  0.00    +0.005 C 
ATOM      9  C   UNL     1      -0.447   5.087   2.775  0.00  0.00    +0.002 C 
ATOM     10  C   UNL     1      -0.214   5.907   4.043  0.00  0.00    -0.025 C 
ATOM     11  C   UNL     1       1.136   5.477   4.647  0.00  0.00    +0.010 C 
ATOM     12  C   UNL     1       1.430   6.325   5.882  0.00  0.00    +0.032 C 
ATOM     13  C   UNL     1       1.560   7.794   5.506  0.00  0.00    +0.120 C 
ATOM     14  C   UNL     1       0.341   8.318   4.747  0.00  0.00    -0.006 C 
ATOM     15  C   UNL     1      -0.106   7.376   3.653  0.00  0.00    +0.003 C 
ATOM     16  C   UNL     1      -1.383   7.831   2.953  0.00  0.00    +0.005 C 
ATOM     17  C   UNL     1      -1.488   7.064   1.624  0.00  0.00    +0.008 C 
ATOM     18  C   UNL     1      -1.592   5.562   1.895  0.00  0.00    -0.023 C 
ATOM     19  C   UNL     1      -1.561   4.786   0.559  0.00  0.00    -0.023 C 
ATOM     20  C   UNL     1      -2.770   5.198  -0.286  0.00  0.00    +0.008 C 
ATOM     21  C   UNL     1      -2.814   4.372  -1.568  0.00  0.00    +0.011 C 
ATOM     22  C   UNL     1      -0.292   5.176  -0.207  0.00  0.00    +0.012 C 
ATOM     23  C   UNL     1      -2.954   5.309   2.559  0.00  0.00    +0.012 C 
ATOM     24  C   UNL     1      -0.778   8.661   5.730  0.00  0.00    +0.014 C 
ATOM     25  C   UNL     1       0.782   9.648   4.086  0.00  0.00    +0.014 C 
ATOM     26  C   UNL     1      -1.294   5.639   5.083  0.00  0.00    +0.012 C 
ENDROOT
BRANCH   1  28
ATOM     27  C   UNL     1       1.466   1.674   0.067  0.00  0.00    +0.039 C 
ATOM     28  C   UNL     1       0.578   2.259  -1.001  0.00  0.00    -0.076 C 
ATOM     29  C   UNL     1       1.031   3.209  -1.782  0.00  0.00    +0.007 C 
ENDBRANCH   1  28
BRANCH  13  30
ATOM     30  O   UNL     1       1.735   8.572   6.697  0.00  0.00    -0.391 OA
ATOM     31  H   UNL     1       2.491   8.302   7.236  0.00  0.00    +0.210 HD
ENDBRANCH  13  30
BRANCH   4  32
ATOM     32  C   UNL     1      -4.407   2.613  -0.664  0.00  0.00    +0.239 C 
BRANCH  32  33
ATOM     33  O   UNL     1      -5.421   3.054  -1.605  0.00  0.00    -0.464 OA
BRANCH  33  34
ATOM     34  C   UNL     1      -6.703   2.882  -1.245  0.00  0.00    +0.304 C 
ATOM     35  O   UNL     1      -6.968   2.379  -0.178  0.00  0.00    -0.251 OA
ATOM     36  C   UNL     1      -7.811   3.316  -2.170  0.00  0.00    +0.136 C 
ENDBRANCH  33  34
ENDBRANCH  32  33
ENDBRANCH   4  32
TORSDOF 5
