REMARK  Name = ZINC13057635
REMARK  10 active torsions:
REMARK  status: ('A' for Active; 'I' for Inactive)
REMARK    1  A    between atoms: C_1  and  C_2
REMARK    2  A    between atoms: C_2  and  C_4
REMARK    3  A    between atoms: C_2  and  N_49
REMARK    4  A    between atoms: N_6  and  C_7
REMARK    5  A    between atoms: C_10  and  S_13
REMARK    6  A    between atoms: S_13  and  N_16
REMARK    7  A    between atoms: C_17  and  N_49
REMARK    8  A    between atoms: C_18  and  C_19
REMARK    9  A    between atoms: C_18  and  N_49
REMARK   10  A    between atoms: N_21  and  C_22
REMARK                            x       y       z     vdW  Elec       q    Type
REMARK                         _______ _______ _______ _____ _____    ______ ____
ROOT
ATOM      1  C   UNL     1       3.521  -6.558  -1.444  0.00  0.00    -0.004 C 
ATOM      2  C   UNL     1       4.290  -6.171  -0.180  0.00  0.00    +0.017 C 
ENDROOT
BRANCH   2   3
ATOM      3  C   UNL     1       5.749  -6.505  -0.357  0.00  0.00    +0.203 C 
ATOM      4  O   UNL     1       6.590  -5.643  -0.214  0.00  0.00    -0.277 OA
ATOM      5  N   UNL     1       6.119  -7.761  -0.676  0.00  0.00    -0.287 N 
ATOM      6  H   UNL     1       5.445  -8.431  -0.867  0.00  0.00    +0.155 HD
BRANCH   5   7
ATOM      7  C   UNL     1       7.476  -8.098  -0.730  0.00  0.00    +0.033 A 
ATOM      8  C   UNL     1       7.927  -9.023  -1.663  0.00  0.00    +0.025 A 
ATOM      9  C   UNL     1       9.268  -9.349  -1.718  0.00  0.00    +0.030 A 
ATOM     10  C   UNL     1      10.159  -8.764  -0.838  0.00  0.00    +0.105 A 
ATOM     11  C   UNL     1       9.713  -7.848   0.096  0.00  0.00    +0.030 A 
ATOM     12  C   UNL     1       8.374  -7.513   0.152  0.00  0.00    +0.025 A 
BRANCH  10  13
ATOM     13  S   UNL     1      11.868  -9.188  -0.906  0.00  0.00    +0.056 S 
ATOM     14  O   UNL     1      12.117  -9.658  -2.224  0.00  0.00    -0.153 OA
ATOM     15  O   UNL     1      12.581  -8.098  -0.339  0.00  0.00    -0.153 OA
BRANCH  13  16
ATOM     16  N   UNL     1      12.094 -10.479   0.106  0.00  0.00    -0.204 NA
ATOM     17  H   UNL     1      12.790 -11.128  -0.082  0.00  0.00    +0.144 HD
ATOM     18  H   UNL     1      11.530 -10.586   0.889  0.00  0.00    +0.144 HD
ENDBRANCH  13  16
ENDBRANCH  10  13
ENDBRANCH   5   7
ENDBRANCH   2   3
BRANCH   2  20
ATOM     19  C   UNL     1       2.771  -4.401   0.469  0.00  0.00    -0.094 C 
ATOM     20  N   UNL     1       4.161  -4.722   0.082  0.00  0.00    +0.391 N 
ATOM     21  H   UNL     1       4.789  -4.465   0.853  0.00  0.00    -0.080 HD
BRANCH  20  22
ATOM     22  C   UNL     1       4.540  -3.955  -1.123  0.00  0.00    +0.020 C 
BRANCH  22  23
ATOM     23  C   UNL     1       4.612  -2.493  -0.766  0.00  0.00    +0.201 C 
ATOM     24  O   UNL     1       4.359  -2.131   0.364  0.00  0.00    -0.278 OA
ATOM     25  N   UNL     1       4.959  -1.587  -1.701  0.00  0.00    -0.285 N 
ATOM     26  H   UNL     1       5.078  -1.863  -2.623  0.00  0.00    +0.155 HD
BRANCH  25  27
ATOM     27  C   UNL     1       5.148  -0.245  -1.342  0.00  0.00    +0.072 A 
ATOM     28  C   UNL     1       5.487   0.083  -0.036  0.00  0.00    +0.029 A 
ATOM     29  C   UNL     1       5.673   1.406   0.318  0.00  0.00    +0.043 A 
ATOM     30  C   UNL     1       5.522   2.405  -0.628  0.00  0.00    +0.161 A 
ATOM     31  C   UNL     1       5.184   2.082  -1.933  0.00  0.00    +0.195 A 
ATOM     32  C   UNL     1       4.997   0.757  -2.292  0.00  0.00    +0.182 A 
ATOM     33  F   UNL     1       4.668   0.441  -3.563  0.00  0.00    -0.200 F 
ATOM     34  F   UNL     1       5.044   3.058  -2.857  0.00  0.00    -0.199 F 
ATOM     35  F   UNL     1       5.705   3.697  -0.279  0.00  0.00    -0.202 F 
ENDBRANCH  25  27
ENDBRANCH  22  23
ENDBRANCH  20  22
ENDBRANCH   2  20
TORSDOF 8
