REMARK  Name = ZINC09387630
REMARK  12 active torsions:
REMARK  status: ('A' for Active; 'I' for Inactive)
REMARK    1  A    between atoms: C_1  and  C_2
REMARK    2  A    between atoms: C_2  and  N_60
REMARK    3  A    between atoms: C_3  and  C_4
REMARK    4  A    between atoms: C_3  and  N_60
REMARK    5  A    between atoms: C_5  and  C_6
REMARK    6  A    between atoms: C_5  and  N_60
REMARK    7  A    between atoms: C_6  and  N_7
REMARK    8  A    between atoms: C_11  and  C_18
REMARK    9  A    between atoms: C_19  and  C_21
REMARK   10  A    between atoms: C_21  and  S_22
REMARK   11  A    between atoms: S_22  and  C_25
REMARK   12  A    between atoms: C_28  and  C_31
REMARK                            x       y       z     vdW  Elec       q    Type
REMARK                         _______ _______ _______ _____ _____    ______ ____
ROOT
ATOM      1  N   UNL     1       0.913  -5.510  -3.541  0.00  0.00    -0.251 N 
ATOM      2  C   UNL     1       0.919  -6.864  -3.832  0.00  0.00    +0.168 A 
ATOM      3  N   UNL     1       0.850  -7.883  -3.008  0.00  0.00    -0.224 NA
ATOM      4  C   UNL     1       0.867  -9.165  -3.435  0.00  0.00    +0.085 A 
ATOM      5  C   UNL     1       0.798 -10.345  -2.658  0.00  0.00    -0.006 A 
ATOM      6  C   UNL     1       0.828 -11.579  -3.255  0.00  0.00    +0.046 A 
ATOM      7  C   UNL     1       0.927 -11.715  -4.633  0.00  0.00    +0.021 A 
ATOM      8  C   UNL     1       0.996 -10.582  -5.422  0.00  0.00    +0.019 A 
ATOM      9  C   UNL     1       0.966  -9.343  -4.833  0.00  0.00    +0.041 A 
ATOM     10  S   UNL     1       1.018  -7.668  -5.425  0.00  0.00    -0.052 S 
ATOM     11 CL   UNL     1       0.742 -13.002  -2.265  0.00  0.00    -0.083 Cl
ATOM     12  C   UNL     1       0.692 -10.245  -1.158  0.00  0.00    +0.047 C 
ATOM     13  C   UNL     1       0.825  -5.095  -2.262  0.00  0.00    +0.243 C 
ATOM     14  O   UNL     1       0.751  -5.908  -1.365  0.00  0.00    -0.273 OA
ENDROOT
BRANCH   1  15
ATOM     15  C   UNL     1       1.001  -4.527  -4.625  0.00  0.00    +0.097 C 
BRANCH  15  16
ATOM     16  C   UNL     1       2.470  -4.200  -4.898  0.00  0.00    -0.059 C 
BRANCH  16  17
ATOM     17  N   UNL     1       2.543  -3.226  -6.007  0.00  0.00    +0.380 N 
ATOM     18  H   UNL     1       1.993  -3.579  -6.798  0.00  0.00    -0.082 HD
BRANCH  17  20
ATOM     19  C   UNL     1       2.813  -1.340  -4.431  0.00  0.00    -0.017 C 
ATOM     20  C   UNL     1       1.984  -1.927  -5.575  0.00  0.00    -0.082 C 
ENDBRANCH  17  20
BRANCH  17  21
ATOM     21  C   UNL     1       3.947  -3.053  -6.436  0.00  0.00    -0.082 C 
ATOM     22  C   UNL     1       3.965  -2.317  -7.777  0.00  0.00    -0.017 C 
ENDBRANCH  17  21
ENDBRANCH  16  17
ENDBRANCH  15  16
ENDBRANCH   1  15
BRANCH  13  23
ATOM     23  C   UNL     1       0.817  -3.622  -1.946  0.00  0.00    +0.267 C 
BRANCH  23  24
ATOM     24  S   UNL     1       0.690  -3.389  -0.151  0.00  0.00    +0.005 S 
ATOM     25  O   UNL     1       1.877  -3.840   0.486  0.00  0.00    -0.169 OA
ATOM     26  O   UNL     1      -0.585  -3.815   0.309  0.00  0.00    -0.169 OA
BRANCH  24  27
ATOM     27  C   UNL     1       0.692  -1.642   0.080  0.00  0.00    +0.089 A 
ATOM     28  C   UNL     1      -0.502  -0.945   0.085  0.00  0.00    +0.027 A 
ATOM     29  C   UNL     1      -0.501   0.425   0.267  0.00  0.00    +0.005 A 
ATOM     30  C   UNL     1       0.694   1.098   0.445  0.00  0.00    -0.050 A 
ATOM     31  C   UNL     1       1.887   0.401   0.439  0.00  0.00    +0.005 A 
ATOM     32  C   UNL     1       1.886  -0.970   0.257  0.00  0.00    +0.027 A 
ATOM     33  C   UNL     1       0.695   2.592   0.643  0.00  0.00    +0.044 C 
ENDBRANCH  24  27
ENDBRANCH  23  24
ENDBRANCH  13  23
TORSDOF 8
