REMARK  Name = ZINC45601535
REMARK  10 active torsions:
REMARK  status: ('A' for Active; 'I' for Inactive)
REMARK    1  A    between atoms: C_1  and  C_2
REMARK    2  A    between atoms: C_3  and  C_12
REMARK    3  A    between atoms: C_5  and  C_7
REMARK    4  A    between atoms: C_12  and  O_14
REMARK    5  A    between atoms: O_14  and  C_15
REMARK    6  A    between atoms: C_15  and  C_16
REMARK    7  A    between atoms: N_18  and  C_19
REMARK    8  A    between atoms: C_22  and  O_28
REMARK    9  A    between atoms: C_24  and  N_25
REMARK   10  A    between atoms: O_28  and  C_29
REMARK                            x       y       z     vdW  Elec       q    Type
REMARK                         _______ _______ _______ _____ _____    ______ ____
ROOT
ATOM      1  C   UNL     1      -0.050  -0.605  -4.919  0.00  0.00    +0.328 C 
ENDROOT
BRANCH   1   2
ATOM      2  C   UNL     1      -0.020  -1.740  -5.910  0.00  0.00    +0.255 C 
ATOM      3  O   UNL     1       0.012  -2.887  -5.517  0.00  0.00    -0.272 OA
ATOM      4  N   UNL     1      -0.028  -1.481  -7.232  0.00  0.00    -0.281 N 
ATOM      5  H   UNL     1      -0.119  -0.568  -7.547  0.00  0.00    +0.155 HD
BRANCH   4   6
ATOM      6  C   UNL     1       0.094  -2.530  -8.153  0.00  0.00    +0.064 A 
ATOM      7  C   UNL     1      -0.479  -3.765  -7.879  0.00  0.00    +0.029 A 
ATOM      8  C   UNL     1      -0.358  -4.798  -8.787  0.00  0.00    +0.047 A 
ATOM      9  C   UNL     1       0.337  -4.603  -9.972  0.00  0.00    +0.122 A 
ATOM     10  C   UNL     1       0.909  -3.370 -10.246  0.00  0.00    +0.080 A 
ATOM     11  C   UNL     1       0.784  -2.334  -9.342  0.00  0.00    +0.151 A 
BRANCH  11  12
ATOM     12  N   UNL     1       1.389  -1.016  -9.637  0.00  0.00    +0.058 N 
ATOM     13  O   UNL     1       1.905  -0.815 -10.712  0.00  0.00    -0.126 OA
ATOM     14  O   UNL     1       1.369  -0.140  -8.804  0.00  0.00    -0.126 OA
ENDBRANCH  11  12
BRANCH   9  15
ATOM     15  O   UNL     1       0.456  -5.622 -10.865  0.00  0.00    -0.495 OA
ATOM     16  C   UNL     1      -0.158  -6.864 -10.517  0.00  0.00    +0.277 C 
ENDBRANCH   9  15
ENDBRANCH   4   6
ENDBRANCH   1   2
BRANCH   1  17
ATOM     17  O   UNL     1      -0.035  -1.131  -3.591  0.00  0.00    -0.451 OA
BRANCH  17  18
ATOM     18  C   UNL     1      -0.058  -0.240  -2.578  0.00  0.00    +0.348 C 
ATOM     19  O   UNL     1      -0.091   0.952  -2.818  0.00  0.00    -0.244 OA
BRANCH  18  22
ATOM     20  C   UNL     1      -0.104   1.529  -0.006  0.00  0.00    +0.067 C 
ATOM     21  C   UNL     1      -0.063   0.023  -0.010  0.00  0.00    +0.060 A 
ATOM     22  C   UNL     1      -0.044  -0.707  -1.193  0.00  0.00    +0.119 A 
ATOM     23  S   UNL     1       0.001  -2.373  -0.551  0.00  0.00    -0.060 S 
ATOM     24  C   UNL     1      -0.008  -1.992   1.088  0.00  0.00    +0.110 A 
ATOM     25  N   UNL     1      -0.038  -0.668   1.099  0.00  0.00    -0.243 NA
BRANCH  24  26
ATOM     26  C   UNL     1       0.018  -2.914   2.239  0.00  0.00    +0.014 A 
ATOM     27  C   UNL     1       0.062  -4.343   2.056  0.00  0.00    +0.018 A 
ATOM     28  C   UNL     1       0.082  -5.076   3.189  0.00  0.00    +0.046 A 
ATOM     29  S   UNL     1       0.041  -3.836   4.465  0.00  0.00    -0.104 S 
ATOM     30  C   UNL     1       0.006  -2.449   3.522  0.00  0.00    +0.055 A 
ENDBRANCH  24  26
ENDBRANCH  18  22
ENDBRANCH  17  18
ENDBRANCH   1  17
TORSDOF 8
