REMARK  Name = ZINC03877801
REMARK  9 active torsions:
REMARK  status: ('A' for Active; 'I' for Inactive)
REMARK    1  A    between atoms: C_1  and  C_2
REMARK    2  A    between atoms: C_5  and  N_8
REMARK    3  A    between atoms: N_18  and  C_19
REMARK    4  A    between atoms: C_19  and  C_21
REMARK    5  A    between atoms: C_19  and  C_31
REMARK    6  A    between atoms: C_22  and  C_23
REMARK    7  A    between atoms: C_31  and  C_32
REMARK    8  A    between atoms: C_31  and  C_33
REMARK    9  A    between atoms: C_31  and  C_34
REMARK                            x       y       z     vdW  Elec       q    Type
REMARK                         _______ _______ _______ _____ _____    ______ ____
ROOT
ATOM      1  N   UNL     1      -3.479   2.175   0.031  0.00  0.00    -0.268 N 
ATOM      2  C   UNL     1      -2.676   3.164  -0.419  0.00  0.00    +0.163 C 
ATOM      3  S   UNL     1      -3.251   4.631  -1.090  0.00  0.00    -0.016 S 
ATOM      4  N   UNL     1      -1.380   2.866  -0.273  0.00  0.00    -0.180 NA
ATOM      5  C   UNL     1      -1.196   1.681   0.262  0.00  0.00    +0.111 C 
ATOM      6  C   UNL     1      -2.573   1.134   0.508  0.00  0.00    +0.094 C 
ATOM      7  C   UNL     1      -2.803   0.805   1.990  0.00  0.00    +0.034 C 
ATOM      8  C   UNL     1      -3.949  -0.231   1.973  0.00  0.00    +0.003 C 
ATOM      9  C   UNL     1      -3.945  -0.869   0.572  0.00  0.00    +0.003 C 
ATOM     10  C   UNL     1      -2.797  -0.201  -0.217  0.00  0.00    +0.034 C 
ATOM     11  N   UNL     1      -0.010   1.080   0.540  0.00  0.00    -0.326 N 
ATOM     12  H   UNL     1       0.003   0.198   0.943  0.00  0.00    +0.148 HD
ENDROOT
BRANCH   1  17
ATOM     13  C   UNL     1      -9.150   2.084   0.057  0.00  0.00    +0.044 C 
ATOM     14  C   UNL     1      -7.644   2.108   0.051  0.00  0.00    -0.050 A 
ATOM     15  C   UNL     1      -6.957   2.619   1.137  0.00  0.00    +0.005 A 
ATOM     16  C   UNL     1      -5.576   2.642   1.134  0.00  0.00    +0.024 A 
ATOM     17  C   UNL     1      -4.877   2.152   0.038  0.00  0.00    +0.036 A 
ATOM     18  C   UNL     1      -5.570   1.645  -1.054  0.00  0.00    +0.024 A 
ATOM     19  C   UNL     1      -6.951   1.619  -1.042  0.00  0.00    +0.005 A 
ENDBRANCH   1  17
BRANCH  11  20
ATOM     20  C   UNL     1       1.248   1.761   0.225  0.00  0.00    +0.100 C 
BRANCH  20  21
ATOM     21  C   UNL     1       1.618   1.500  -1.236  0.00  0.00    -0.016 C 
ATOM     22  C   UNL     1       0.509   2.031  -2.146  0.00  0.00    +0.013 C 
ATOM     23  C   UNL     1       2.932   2.211  -1.564  0.00  0.00    +0.013 C 
ATOM     24  C   UNL     1       1.784  -0.005  -1.458  0.00  0.00    +0.013 C 
ENDBRANCH  20  21
BRANCH  20  25
ATOM     25  C   UNL     1       2.340   1.238   1.122  0.00  0.00    -0.004 C 
ATOM     26  C   UNL     1       2.915   2.042   2.005  0.00  0.00    +0.007 C 
BRANCH  26  27
ATOM     27  C   UNL     1       3.987   1.529   2.884  0.00  0.00    -0.007 A 
ATOM     28  C   UNL     1       4.391   0.197   2.792  0.00  0.00    +0.011 A 
ATOM     29  C   UNL     1       5.394  -0.276   3.611  0.00  0.00    +0.020 A 
ATOM     30  C   UNL     1       5.994   0.566   4.534  0.00  0.00    +0.042 A 
ATOM     31  C   UNL     1       5.594   1.887   4.635  0.00  0.00    +0.040 A 
ATOM     32  C   UNL     1       4.594   2.374   3.816  0.00  0.00    +0.049 A 
ATOM     33 CL   UNL     1       4.094   4.031   3.943  0.00  0.00    -0.083 Cl
ATOM     34 CL   UNL     1       7.251  -0.038   5.567  0.00  0.00    -0.083 Cl
ENDBRANCH  26  27
ENDBRANCH  20  25
ENDBRANCH  11  20
TORSDOF 5
