REMARK  Name = ZINC40314520
REMARK  12 active torsions:
REMARK  status: ('A' for Active; 'I' for Inactive)
REMARK    1  A    between atoms: C_1  and  O_2
REMARK    2  A    between atoms: O_2  and  C_3
REMARK    3  A    between atoms: C_6  and  O_9
REMARK    4  A    between atoms: O_9  and  C_10
REMARK    5  A    between atoms: C_10  and  C_11
REMARK    6  A    between atoms: C_11  and  C_13
REMARK    7  A    between atoms: C_11  and  O_36
REMARK    8  A    between atoms: C_13  and  N_14
REMARK    9  A    between atoms: N_14  and  C_15
REMARK   10  A    between atoms: N_14  and  C_28
REMARK   11  A    between atoms: C_15  and  C_16
REMARK   12  A    between atoms: C_19  and  C_21
REMARK                            x       y       z     vdW  Elec       q    Type
REMARK                         _______ _______ _______ _____ _____    ______ ____
ROOT
ATOM      1  N   UNL     1       3.512  -6.546   6.650  0.00  0.00    +0.389 N 
ATOM      2  H   UNL     1       2.913  -6.673   7.452  0.00  0.00    -0.081 HD
ENDROOT
BRANCH   1   3
ATOM      3  C   UNL     1       4.447  -5.442   6.906  0.00  0.00    -0.045 C 
ATOM      4  C   UNL     1       5.162  -5.669   8.248  0.00  0.00    +0.009 C 
ATOM      5  C   UNL     1       5.898  -4.378   8.679  0.00  0.00    +0.164 C 
ATOM      6  S   UNL     1       4.888  -3.056   7.894  0.00  0.00    -0.033 S 
ATOM      7  O   UNL     1       5.689  -2.364   6.947  0.00  0.00    -0.174 OA
ATOM      8  O   UNL     1       4.215  -2.324   8.909  0.00  0.00    -0.174 OA
ATOM      9  C   UNL     1       3.665  -4.101   6.996  0.00  0.00    +0.151 C 
ENDBRANCH   1   3
BRANCH   1  10
ATOM     10  C   UNL     1       2.692  -6.229   5.472  0.00  0.00    -0.043 C 
BRANCH  10  11
ATOM     11  C   UNL     1       1.231  -6.069   5.896  0.00  0.00    +0.135 C 
BRANCH  11  12
ATOM     12  O   UNL     1       0.730  -7.323   6.364  0.00  0.00    -0.390 OA
ATOM     13  H   UNL     1       0.760  -8.029   5.703  0.00  0.00    +0.210 HD
ENDBRANCH  11  12
BRANCH  11  14
ATOM     14  C   UNL     1       0.400  -5.602   4.699  0.00  0.00    +0.258 C 
BRANCH  14  15
ATOM     15  O   UNL     1      -0.940  -5.341   5.121  0.00  0.00    -0.489 OA
BRANCH  15  19
ATOM     16  C   UNL     1      -3.594  -4.044   2.238  0.00  0.00    +0.120 A 
ATOM     17  C   UNL     1      -4.019  -4.208   3.548  0.00  0.00    +0.049 A 
ATOM     18  C   UNL     1      -3.131  -4.642   4.513  0.00  0.00    +0.049 A 
ATOM     19  C   UNL     1      -1.814  -4.914   4.171  0.00  0.00    +0.121 A 
ATOM     20  C   UNL     1      -1.390  -4.751   2.861  0.00  0.00    +0.049 A 
ATOM     21  C   UNL     1      -2.279  -4.321   1.895  0.00  0.00    +0.049 A 
BRANCH  16  23
ATOM     22  C   UNL     1      -5.807  -3.350   1.712  0.00  0.00    +0.277 C 
ATOM     23  O   UNL     1      -4.468  -3.617   1.288  0.00  0.00    -0.495 OA
ENDBRANCH  16  23
ENDBRANCH  15  19
ENDBRANCH  14  15
ENDBRANCH  11  14
ENDBRANCH  10  11
ENDBRANCH   1  10
BRANCH   1  24
ATOM     24  C   UNL     1       4.268  -7.781   6.402  0.00  0.00    -0.003 C 
BRANCH  24  25
ATOM     25  C   UNL     1       4.992  -8.187   7.660  0.00  0.00    +0.089 A 
ATOM     26  C   UNL     1       4.410  -8.566   8.814  0.00  0.00    +0.043 A 
ATOM     27  C   UNL     1       5.447  -8.857   9.723  0.00  0.00    +0.050 A 
ATOM     28  C   UNL     1       6.617  -8.636   9.066  0.00  0.00    +0.135 A 
ATOM     29  O   UNL     1       6.325  -8.235   7.814  0.00  0.00    -0.462 OA
BRANCH  28  30
ATOM     30  C   UNL     1       7.973  -8.812   9.628  0.00  0.00    +0.019 A 
ATOM     31  C   UNL     1       8.136  -9.246  10.945  0.00  0.00    +0.011 A 
ATOM     32  C   UNL     1       9.404  -9.408  11.463  0.00  0.00    +0.002 A 
ATOM     33  C   UNL     1      10.513  -9.140  10.681  0.00  0.00    +0.020 A 
ATOM     34  C   UNL     1      10.360  -8.708   9.375  0.00  0.00    +0.042 A 
ATOM     35  C   UNL     1       9.095  -8.549   8.842  0.00  0.00    +0.031 A 
ATOM     36 CL   UNL     1      11.758  -8.374   8.402  0.00  0.00    -0.084 Cl
ENDBRANCH  28  30
ENDBRANCH  24  25
ENDBRANCH   1  24
TORSDOF 11
