REMARK  Name = ZINC20516414
REMARK  6 active torsions:
REMARK  status: ('A' for Active; 'I' for Inactive)
REMARK    1  A    between atoms: C_1  and  C_2
REMARK    2  A    between atoms: C_2  and  C_3
REMARK    3  A    between atoms: C_6  and  S_9
REMARK    4  A    between atoms: S_9  and  C_12
REMARK    5  A    between atoms: N_24  and  C_25
REMARK    6  A    between atoms: C_25  and  C_26
REMARK                            x       y       z     vdW  Elec       q    Type
REMARK                         _______ _______ _______ _____ _____    ______ ____
ROOT
ATOM      1  C   UNL     1      -1.940   2.416   6.358  0.00  0.00    +0.249 A 
ATOM      2  C   UNL     1      -2.168   1.209   6.999  0.00  0.00    +0.204 A 
ATOM      3  N   UNL     1      -3.050   0.219   6.777  0.00  0.00    -0.209 NA
ATOM      4  C   UNL     1      -3.057  -0.856   7.546  0.00  0.00    +0.137 A 
ATOM      5  C   UNL     1      -2.137  -0.969   8.593  0.00  0.00    +0.077 A 
ATOM      6  C   UNL     1      -1.197   0.032   8.857  0.00  0.00    +0.087 A 
ATOM      7  N   UNL     1      -1.247   1.140   8.006  0.00  0.00    -0.192 N 
ATOM      8  N   UNL     1      -0.495   2.318   7.945  0.00  0.00    -0.057 NA
ATOM      9  N   UNL     1      -0.935   3.032   6.968  0.00  0.00    -0.108 NA
ATOM     10  C   UNL     1      -0.339  -0.208   9.932  0.00  0.00    +0.036 A 
ATOM     11  C   UNL     1      -0.445  -1.351  10.646  0.00  0.00    +0.048 A 
ATOM     12  S   UNL     1      -1.795  -2.190   9.834  0.00  0.00    -0.092 S 
ATOM     13  N   UNL     1      -3.972  -1.868   7.315  0.00  0.00    -0.324 N 
ATOM     14  H   UNL     1      -3.977  -2.762   7.955  0.00  0.00    +0.148 HD
ENDROOT
BRANCH   1  15
ATOM     15  S   UNL     1      -2.837   3.032   4.972  0.00  0.00    +0.047 S 
ATOM     16  O   UNL     1      -2.695   4.446   4.992  0.00  0.00    -0.163 OA
ATOM     17  O   UNL     1      -4.106   2.393   4.994  0.00  0.00    -0.163 OA
BRANCH  15  21
ATOM     18  C   UNL     1      -0.718   1.572   1.248  0.00  0.00    -0.048 A 
ATOM     19  C   UNL     1      -0.360   2.779   1.819  0.00  0.00    +0.005 A 
ATOM     20  C   UNL     1      -1.010   3.227   2.954  0.00  0.00    +0.028 A 
ATOM     21  C   UNL     1      -2.012   2.463   3.523  0.00  0.00    +0.095 A 
ATOM     22  C   UNL     1      -2.366   1.254   2.955  0.00  0.00    +0.028 A 
ATOM     23  C   UNL     1      -1.719   0.808   1.818  0.00  0.00    +0.005 A 
BRANCH  18  25
ATOM     24  C   UNL     1      -0.753   1.593  -1.232  0.00  0.00    +0.009 C 
ATOM     25  C   UNL     1      -0.013   1.086   0.008  0.00  0.00    +0.032 C 
ENDBRANCH  18  25
ENDBRANCH  15  21
ENDBRANCH   1  15
BRANCH  13  26
ATOM     26  C   UNL     1      -4.935  -1.748   6.217  0.00  0.00    +0.138 C 
BRANCH  26  27
ATOM     27  C   UNL     1      -5.811  -2.974   6.181  0.00  0.00    -0.030 A 
ATOM     28  C   UNL     1      -5.439  -4.067   5.421  0.00  0.00    +0.006 A 
ATOM     29  C   UNL     1      -6.239  -5.193   5.393  0.00  0.00    +0.020 A 
ATOM     30  C   UNL     1      -7.419  -5.223   6.116  0.00  0.00    +0.041 A 
ATOM     31  C   UNL     1      -7.793  -4.126   6.872  0.00  0.00    +0.020 A 
ATOM     32  C   UNL     1      -6.989  -3.002   6.904  0.00  0.00    +0.006 A 
ATOM     33 CL   UNL     1      -8.428  -6.635   6.075  0.00  0.00    -0.084 Cl
ENDBRANCH  26  27
ENDBRANCH  13  26
TORSDOF 5
