REMARK  Name = ZINC60390382
REMARK  7 active torsions:
REMARK  status: ('A' for Active; 'I' for Inactive)
REMARK    1  A    between atoms: C_1  and  C_2
REMARK    2  A    between atoms: C_15  and  C_17
REMARK    3  A    between atoms: C_17  and  C_19
REMARK    4  A    between atoms: C_17  and  S_20
REMARK    5  A    between atoms: S_20  and  C_21
REMARK    6  A    between atoms: C_24  and  C_27
REMARK    7  A    between atoms: N_25  and  C_26
REMARK                            x       y       z     vdW  Elec       q    Type
REMARK                         _______ _______ _______ _____ _____    ______ ____
ROOT
ATOM      1  C   UNL     1       0.762   1.669  -0.509  0.00  0.00    +0.008 C 
ATOM      2  C   UNL     1       0.665   0.145  -0.406  0.00  0.00    -0.009 C 
ATOM      3  C   UNL     1       1.222  -0.493  -1.681  0.00  0.00    +0.008 C 
ATOM      4  C   UNL     1       0.905  -1.988  -1.696  0.00  0.00    +0.037 C 
ATOM      5  C   UNL     1       1.391  -2.609  -0.388  0.00  0.00    -0.023 A 
ATOM      6  C   UNL     1       1.639  -1.831   0.692  0.00  0.00    -0.004 A 
ATOM      7  S   UNL     1       2.172  -2.953   1.959  0.00  0.00    -0.073 S 
ATOM      8  C   UNL     1       2.062  -4.457   1.042  0.00  0.00    +0.116 A 
ATOM      9  C   UNL     1       1.611  -4.035  -0.228  0.00  0.00    +0.075 A 
ATOM     10  C   UNL     1       1.419  -5.052  -1.223  0.00  0.00    +0.260 A 
ATOM     11  O   UNL     1       1.032  -4.793  -2.349  0.00  0.00    -0.267 OA
ATOM     12  N   UNL     1       1.695  -6.318  -0.829  0.00  0.00    -0.309 N 
ATOM     13  H   UNL     1       1.579  -7.037  -1.470  0.00  0.00    +0.170 HD
ATOM     14  C   UNL     1       2.126  -6.627   0.418  0.00  0.00    +0.124 A 
ATOM     15  N   UNL     1       2.313  -5.724   1.355  0.00  0.00    -0.225 NA
ATOM     16  C   UNL     1       1.490  -0.344   0.793  0.00  0.00    +0.046 C 
ENDROOT
BRANCH  14  17
ATOM     17  C   UNL     1       2.402  -8.072   0.746  0.00  0.00    +0.117 C 
ATOM     18  C   UNL     1       1.167  -8.691   1.403  0.00  0.00    +0.027 C 
BRANCH  17  19
ATOM     19  S   UNL     1       3.809  -8.175   1.885  0.00  0.00    -0.075 S 
BRANCH  19  20
ATOM     20  C   UNL     1       4.097  -9.905   2.051  0.00  0.00    +0.192 A 
ATOM     21  N   UNL     1       3.425 -10.868   1.460  0.00  0.00    -0.122 NA
ATOM     22  N   UNL     1       3.900 -12.012   1.803  0.00  0.00    -0.128 NA
ATOM     23  C   UNL     1       4.904 -11.851   2.633  0.00  0.00    +0.165 A 
ATOM     24  N   UNL     1       5.064 -10.496   2.814  0.00  0.00    -0.305 N 
ATOM     25  C   UNL     1       6.063  -9.827   3.652  0.00  0.00    +0.153 C 
BRANCH  23  26
ATOM     26  C   UNL     1       5.712 -12.922   3.253  0.00  0.00    +0.019 A 
ATOM     27  C   UNL     1       6.483 -12.652   4.385  0.00  0.00    +0.013 A 
ATOM     28  C   UNL     1       7.236 -13.655   4.958  0.00  0.00    +0.021 A 
ATOM     29  C   UNL     1       7.227 -14.929   4.414  0.00  0.00    +0.041 A 
ATOM     30  C   UNL     1       6.465 -15.202   3.291  0.00  0.00    +0.021 A 
ATOM     31  C   UNL     1       5.703 -14.208   2.712  0.00  0.00    +0.013 A 
ATOM     32 CL   UNL     1       8.177 -16.186   5.142  0.00  0.00    -0.084 Cl
ENDBRANCH  23  26
ENDBRANCH  19  20
ENDBRANCH  17  19
ENDBRANCH  14  17
TORSDOF 4
