REMARK  Name = ZINC02185695
REMARK  9 active torsions:
REMARK  status: ('A' for Active; 'I' for Inactive)
REMARK    1  A    between atoms: C_1  and  C_2
REMARK    2  A    between atoms: C_3  and  C_33
REMARK    3  A    between atoms: C_4  and  C_23
REMARK    4  A    between atoms: C_10  and  C_15
REMARK    5  A    between atoms: C_18  and  O_21
REMARK    6  A    between atoms: O_21  and  C_22
REMARK    7  A    between atoms: C_33  and  O_35
REMARK    8  A    between atoms: O_35  and  C_36
REMARK    9  A    between atoms: C_36  and  C_37
REMARK                            x       y       z     vdW  Elec       q    Type
REMARK                         _______ _______ _______ _____ _____    ______ ____
ROOT
ATOM      1  C   UNL     1       6.569  -1.184  -3.835  0.00  0.00    +0.061 C 
ATOM      2  C   UNL     1       6.212  -0.536  -2.522  0.00  0.00    +0.016 C 
ATOM      3  C   UNL     1       6.698  -1.040  -1.375  0.00  0.00    +0.065 C 
ATOM      4  C   UNL     1       6.368  -0.417  -0.050  0.00  0.00    +0.094 C 
ATOM      5  C   UNL     1       5.160   0.479  -0.159  0.00  0.00    +0.024 C 
ATOM      6  C   UNL     1       4.740   0.927  -1.361  0.00  0.00    +0.016 C 
ATOM      7  N   UNL     1       5.394   0.559  -2.507  0.00  0.00    -0.321 N 
ATOM      8  C   UNL     1       3.544   1.838  -1.477  0.00  0.00    +0.059 C 
ATOM      9  C   UNL     1       2.554   1.530  -0.351  0.00  0.00    +0.032 C 
ATOM     10  C   UNL     1       3.269   1.717   0.991  0.00  0.00    +0.088 C 
ATOM     11  C   UNL     1       4.488   0.835   1.023  0.00  0.00    +0.162 C 
ATOM     12  O   UNL     1       4.898   0.423   2.090  0.00  0.00    -0.292 OA
ATOM     13  H   UNL     1       5.257   1.156  -3.421  0.00  0.00    +0.152 HD
ENDROOT
BRANCH   4  14
ATOM     14  C   UNL     1       7.546   0.396   0.422  0.00  0.00    -0.013 A 
ATOM     15  C   UNL     1       7.987   1.470  -0.328  0.00  0.00    +0.055 A 
ATOM     16  C   UNL     1       9.070   2.219   0.103  0.00  0.00    +0.167 A 
ATOM     17  C   UNL     1       9.712   1.887   1.294  0.00  0.00    +0.168 A 
ATOM     18  C   UNL     1       9.266   0.809   2.040  0.00  0.00    +0.069 A 
ATOM     19  C   UNL     1       8.180   0.069   1.607  0.00  0.00    +0.049 A 
ATOM     20 CL   UNL     1       7.618  -1.277   2.548  0.00  0.00    -0.083 Cl
ATOM     21  O   UNL     1      10.736   2.766   1.497  0.00  0.00    -0.453 OA
ATOM     22  C   UNL     1      10.460   3.885   0.633  0.00  0.00    +0.466 C 
ATOM     23  O   UNL     1       9.691   3.307  -0.439  0.00  0.00    -0.453 OA
ENDBRANCH   4  14
BRANCH   9  24
ATOM     24  C   UNL     1       1.382   2.474  -0.435  0.00  0.00    -0.043 A 
ATOM     25  C   UNL     1       0.105   1.975  -0.613  0.00  0.00    +0.007 A 
ATOM     26  C   UNL     1      -0.970   2.838  -0.696  0.00  0.00    +0.046 A 
ATOM     27  C   UNL     1      -0.769   4.207  -0.590  0.00  0.00    +0.120 A 
ATOM     28  C   UNL     1       0.513   4.705  -0.412  0.00  0.00    +0.046 A 
ATOM     29  C   UNL     1       1.585   3.838  -0.335  0.00  0.00    +0.007 A 
BRANCH  27  30
ATOM     30  O   UNL     1      -1.826   5.058  -0.667  0.00  0.00    -0.495 OA
ATOM     31  C   UNL     1      -3.117   4.474  -0.851  0.00  0.00    +0.277 C 
ENDBRANCH  27  30
ENDBRANCH   9  24
BRANCH   3  32
ATOM     32  C   UNL     1       7.536  -2.179  -1.417  0.00  0.00    +0.338 C 
ATOM     33  O   UNL     1       7.712  -2.766  -2.468  0.00  0.00    -0.245 OA
BRANCH  32  34
ATOM     34  O   UNL     1       8.140  -2.614  -0.292  0.00  0.00    -0.457 OA
BRANCH  34  35
ATOM     35  C   UNL     1       8.973  -3.769  -0.408  0.00  0.00    +0.259 C 
BRANCH  35  36
ATOM     36  C   UNL     1       9.558  -4.104   0.940  0.00  0.00    +0.006 C 
ATOM     37  C   UNL     1       9.567  -5.345   1.360  0.00  0.00    +0.007 C 
ENDBRANCH  35  36
ENDBRANCH  34  35
ENDBRANCH  32  34
ENDBRANCH   3  32
TORSDOF 7
