REMARK  Name = ZINC58853961
REMARK  10 active torsions:
REMARK  status: ('A' for Active; 'I' for Inactive)
REMARK    1  A    between atoms: C_1  and  C_2
REMARK    2  A    between atoms: C_4  and  C_15
REMARK    3  A    between atoms: C_5  and  C_14
REMARK    4  A    between atoms: N_6  and  C_7
REMARK    5  A    between atoms: N_16  and  N_17
REMARK    6  A    between atoms: C_18  and  C_20
REMARK    7  A    between atoms: C_20  and  N_21
REMARK    8  A    between atoms: N_21  and  C_22
REMARK    9  A    between atoms: N_21  and  S_29
REMARK   10  A    between atoms: S_29  and  C_32
REMARK                            x       y       z     vdW  Elec       q    Type
REMARK                         _______ _______ _______ _____ _____    ______ ____
ROOT
ATOM      1  N   UNL     1      -0.148  -5.703  -1.504  0.00  0.00    -0.206 N 
ATOM      2  C   UNL     1      -0.105  -6.950  -0.996  0.00  0.00    +0.251 C 
ATOM      3  O   UNL     1      -0.229  -7.123   0.198  0.00  0.00    -0.272 OA
ATOM      4  H   UNL     1      -0.050  -5.564  -2.459  0.00  0.00    +0.177 HD
ENDROOT
BRANCH   1   6
ATOM      5  C   UNL     1      -0.376  -3.404  -1.143  0.00  0.00    +0.140 C 
ATOM      6  N   UNL     1      -0.335  -4.606  -0.653  0.00  0.00    -0.188 NA
BRANCH   5  10
ATOM      7  C   UNL     1      -0.962   1.361   0.591  0.00  0.00    +0.064 C 
ATOM      8  C   UNL     1      -0.830  -0.137   0.499  0.00  0.00    +0.022 A 
ATOM      9  C   UNL     1      -0.643  -0.838  -0.635  0.00  0.00    +0.032 A 
ATOM     10  C   UNL     1      -0.572  -2.250  -0.247  0.00  0.00    +0.016 A 
ATOM     11  C   UNL     1      -0.725  -2.282   1.110  0.00  0.00    +0.030 A 
ATOM     12  N   UNL     1      -0.875  -1.004   1.552  0.00  0.00    -0.317 N 
ATOM     13  C   UNL     1      -0.724  -3.520   1.969  0.00  0.00    +0.064 C 
BRANCH  12  14
ATOM     14  C   UNL     1      -1.052  -0.633   2.893  0.00  0.00    +0.047 A 
ATOM     15  C   UNL     1      -0.034  -0.844   3.813  0.00  0.00    +0.029 A 
ATOM     16  C   UNL     1      -0.210  -0.477   5.132  0.00  0.00    +0.040 A 
ATOM     17  C   UNL     1      -1.401   0.100   5.538  0.00  0.00    +0.124 A 
ATOM     18  C   UNL     1      -2.418   0.311   4.622  0.00  0.00    +0.040 A 
ATOM     19  C   UNL     1      -2.244  -0.049   3.301  0.00  0.00    +0.029 A 
ATOM     20  F   UNL     1      -1.572   0.458   6.830  0.00  0.00    -0.205 F 
ENDBRANCH  12  14
ENDBRANCH   5  10
ENDBRANCH   1   6
BRANCH   2  21
ATOM     21  C   UNL     1       0.095  -8.130  -1.912  0.00  0.00    +0.228 C 
BRANCH  21  22
ATOM     22  N   UNL     1       0.247  -9.348  -1.112  0.00  0.00    -0.198 N 
BRANCH  22  23
ATOM     23  C   UNL     1       1.505  -9.712  -0.625  0.00  0.00    +0.065 A 
ATOM     24  C   UNL     1       1.950  -9.213   0.592  0.00  0.00    +0.026 A 
ATOM     25  C   UNL     1       3.194  -9.575   1.072  0.00  0.00    +0.002 A 
ATOM     26  C   UNL     1       3.996 -10.433   0.341  0.00  0.00    +0.001 A 
ATOM     27  C   UNL     1       3.556 -10.932  -0.871  0.00  0.00    +0.017 A 
ATOM     28  C   UNL     1       2.310 -10.578  -1.354  0.00  0.00    +0.040 A 
ATOM     29 BR   UNL     1       1.706 -11.267  -3.008  0.00  0.00    -0.048 Br
ENDBRANCH  22  23
BRANCH  22  30
ATOM     30  S   UNL     1      -1.073 -10.295  -0.786  0.00  0.00    +0.043 S 
ATOM     31  O   UNL     1      -0.789 -10.891   0.472  0.00  0.00    -0.155 OA
ATOM     32  O   UNL     1      -2.188  -9.428  -0.943  0.00  0.00    -0.155 OA
ATOM     33  C   UNL     1      -1.075 -11.557  -2.089  0.00  0.00    +0.218 C 
ENDBRANCH  22  30
ENDBRANCH  21  22
ENDBRANCH   2  21
TORSDOF 7
