REMARK  Name = ZINC44784244
REMARK  3 active torsions:
REMARK  status: ('A' for Active; 'I' for Inactive)
REMARK    1  A    between atoms: C_11  and  C_13
REMARK    2  A    between atoms: C_13  and  C_18
REMARK    3  A    between atoms: N_19  and  O_20
REMARK                            x       y       z     vdW  Elec       q    Type
REMARK                         _______ _______ _______ _____ _____    ______ ____
ROOT
ATOM      1  C   UNL     1       0.156   1.554  -0.175  0.00  0.00    +0.000 A 
ATOM      2  C   UNL     1       1.375   2.208  -0.181  0.00  0.00    +0.000 A 
ATOM      3  C   UNL     1       2.544   1.476  -0.165  0.00  0.00    +0.005 A 
ATOM      4  C   UNL     1       2.506   0.088  -0.138  0.00  0.00    -0.027 A 
ATOM      5  C   UNL     1       1.294  -0.565  -0.121  0.00  0.00    -0.041 A 
ATOM      6  C   UNL     1       0.118   0.175  -0.146  0.00  0.00    +0.004 A 
ATOM      7  C   UNL     1       1.175  -2.065  -0.061  0.00  0.00    +0.054 C 
ATOM      8  C   UNL     1       2.470  -2.732  -0.519  0.00  0.00    +0.113 C 
ATOM      9  N   UNL     1       3.590  -2.068   0.168  0.00  0.00    -0.296 N 
ATOM     10  C   UNL     1       3.821  -0.651  -0.135  0.00  0.00    +0.143 C 
ATOM     11  C   UNL     1       4.372  -2.735   1.040  0.00  0.00    +0.229 C 
ATOM     12  O   UNL     1       4.106  -3.879   1.341  0.00  0.00    -0.275 OA
ENDROOT
BRANCH  11  13
ATOM     13  C   UNL     1       5.576  -2.058   1.642  0.00  0.00    +0.105 C 
ATOM     14  C   UNL     1       6.373  -3.061   2.495  0.00  0.00    +0.024 C 
ATOM     15  C   UNL     1       6.380  -2.506   3.935  0.00  0.00    +0.001 C 
ATOM     16  C   UNL     1       5.135  -1.588   3.995  0.00  0.00    +0.001 C 
ATOM     17  C   UNL     1       5.128  -0.929   2.593  0.00  0.00    +0.024 C 
BRANCH  13  18
ATOM     18  C   UNL     1       6.451  -1.497   0.551  0.00  0.00    +0.147 C 
ATOM     19  N   UNL     1       6.900  -2.272  -0.380  0.00  0.00    -0.076 NA
ATOM     20  N   UNL     1       6.774  -0.158   0.547  0.00  0.00    -0.343 N 
ATOM     21  H   UNL     1       6.496   0.410   1.282  0.00  0.00    +0.144 HD
ATOM     22  H   UNL     1       7.278   0.217  -0.192  0.00  0.00    +0.144 HD
BRANCH  19  23
ATOM     23  O   UNL     1       6.662  -3.667  -0.316  0.00  0.00    -0.408 OA
ATOM     24  H   UNL     1       7.036  -4.164  -1.056  0.00  0.00    +0.328 HD
ENDBRANCH  19  23
ENDBRANCH  13  18
ENDBRANCH  11  13
TORSDOF 3
