REMARK  Name = ZINC05517378
REMARK  5 active torsions:
REMARK  status: ('A' for Active; 'I' for Inactive)
REMARK    1  A    between atoms: C_1  and  C_2
REMARK    2  A    between atoms: C_3  and  C_17
REMARK    3  A    between atoms: C_4  and  C_10
REMARK    4  A    between atoms: N_19  and  C_20
REMARK    5  A    between atoms: C_25  and  C_26
REMARK                            x       y       z     vdW  Elec       q    Type
REMARK                         _______ _______ _______ _____ _____    ______ ____
ROOT
ATOM      1  C   UNL     1      -4.082   2.442   1.681  0.00  0.00    +0.061 C 
ATOM      2  C   UNL     1      -4.053   1.076   1.045  0.00  0.00    +0.019 C 
ATOM      3  C   UNL     1      -2.924   0.647   0.444  0.00  0.00    +0.056 C 
ATOM      4  C   UNL     1      -2.936  -0.734  -0.178  0.00  0.00    +0.142 C 
ATOM      5  N   UNL     1      -4.191  -1.499  -0.079  0.00  0.00    -0.288 N 
ATOM      6  C   UNL     1      -5.240  -0.933   0.549  0.00  0.00    +0.304 C 
ATOM      7  O   UNL     1      -6.280  -1.556   0.636  0.00  0.00    -0.252 OA
ATOM      8  N   UNL     1      -5.173   0.294   1.082  0.00  0.00    -0.273 N 
ATOM      9  H   UNL     1      -4.260  -2.390  -0.458  0.00  0.00    +0.151 HD
ATOM     10  H   UNL     1      -5.963   0.645   1.522  0.00  0.00    +0.156 HD
ENDROOT
BRANCH   4  11
ATOM     11  C   UNL     1      -1.845  -1.546   0.472  0.00  0.00    -0.020 A 
ATOM     12  C   UNL     1      -0.704  -1.865  -0.241  0.00  0.00    +0.006 A 
ATOM     13  C   UNL     1       0.298  -2.609   0.354  0.00  0.00    +0.003 A 
ATOM     14  C   UNL     1       0.160  -3.034   1.662  0.00  0.00    +0.038 A 
ATOM     15  C   UNL     1      -0.982  -2.715   2.376  0.00  0.00    +0.124 A 
ATOM     16  C   UNL     1      -1.983  -1.965   1.781  0.00  0.00    +0.044 A 
ATOM     17  F   UNL     1      -1.118  -3.131   3.654  0.00  0.00    -0.205 F 
ENDBRANCH   4  11
BRANCH   3  18
ATOM     18  C   UNL     1      -1.764   1.459   0.401  0.00  0.00    +0.248 C 
ATOM     19  O   UNL     1      -1.470   2.047  -0.625  0.00  0.00    -0.270 OA
ATOM     20  N   UNL     1      -0.986   1.582   1.494  0.00  0.00    -0.281 N 
ATOM     21  H   UNL     1      -1.164   1.041   2.279  0.00  0.00    +0.155 HD
BRANCH  20  22
ATOM     22  C   UNL     1       0.082   2.485   1.495  0.00  0.00    +0.045 A 
ATOM     23  C   UNL     1       0.724   2.805   0.306  0.00  0.00    +0.024 A 
ATOM     24  C   UNL     1       1.774   3.701   0.309  0.00  0.00    +0.002 A 
ATOM     25  C   UNL     1       2.195   4.272   1.497  0.00  0.00    +0.001 A 
ATOM     26  C   UNL     1       1.561   3.951   2.684  0.00  0.00    +0.014 A 
ATOM     27  C   UNL     1       0.506   3.059   2.686  0.00  0.00    +0.076 A 
BRANCH  27  28
ATOM     28  C   UNL     1      -0.184   2.711   3.980  0.00  0.00    +0.419 C 
ATOM     29  F   UNL     1       0.430   3.395   5.035  0.00  0.00    -0.166 F 
ATOM     30  F   UNL     1      -1.531   3.082   3.905  0.00  0.00    -0.166 F 
ATOM     31  F   UNL     1      -0.092   1.333   4.201  0.00  0.00    -0.166 F 
ENDBRANCH  27  28
ENDBRANCH  20  22
ENDBRANCH   3  18
TORSDOF 4
