REMARK  Name = ZINC13811589
REMARK  4 active torsions:
REMARK  status: ('A' for Active; 'I' for Inactive)
REMARK    1  A    between atoms: C_8  and  C_27
REMARK    2  A    between atoms: C_10  and  C_18
REMARK    3  A    between atoms: C_22  and  N_24
REMARK    4  A    between atoms: C_27  and  C_29
REMARK                            x       y       z     vdW  Elec       q    Type
REMARK                         _______ _______ _______ _____ _____    ______ ____
ROOT
ATOM      1  C   UNL     1       2.077   1.366   0.541  0.00  0.00    +0.000 A 
ATOM      2  C   UNL     1       1.910   0.046   0.918  0.00  0.00    +0.002 A 
ATOM      3  C   UNL     1       0.644  -0.484   1.056  0.00  0.00    +0.023 A 
ATOM      4  C   UNL     1      -0.477   0.308   0.817  0.00  0.00    +0.039 A 
ATOM      5  C   UNL     1      -0.296   1.633   0.438  0.00  0.00    +0.004 A 
ATOM      6  C   UNL     1       0.969   2.159   0.302  0.00  0.00    +0.008 A 
ATOM      7  C   UNL     1      -1.676   2.203   0.250  0.00  0.00    +0.137 C 
ATOM      8  C   UNL     1      -1.878   2.692  -1.189  0.00  0.00    +0.103 C 
ATOM      9  C   UNL     1      -1.551   4.200  -1.108  0.00  0.00    +0.050 C 
ATOM     10  C   UNL     1      -1.869   4.579   0.349  0.00  0.00    +0.077 C 
ATOM     11  N   UNL     1      -1.909   3.347   1.139  0.00  0.00    -0.271 NA
ATOM     12  C   UNL     1      -0.976   3.285   2.293  0.00  0.00    +0.155 C 
ATOM     13  S   UNL     1      -0.664   5.079   2.602  0.00  0.00    -0.144 S 
ATOM     14  C   UNL     1      -0.832   5.617   0.841  0.00  0.00    +0.090 C 
ATOM     15  C   UNL     1      -2.609   1.065   0.575  0.00  0.00    +0.243 C 
ATOM     16  O   UNL     1      -3.822   1.096   0.553  0.00  0.00    -0.273 OA
ATOM     17  N   UNL     1      -1.839   0.007   0.889  0.00  0.00    -0.283 N 
ATOM     18  H   UNL     1      -2.165  -1.003   1.178  0.00  0.00    +0.155 HD
ENDROOT
BRANCH   9  19
ATOM     19  C   UNL     1      -2.422   4.981  -2.058  0.00  0.00    -0.040 A 
ATOM     20  C   UNL     1      -3.729   5.273  -1.715  0.00  0.00    +0.004 A 
ATOM     21  C   UNL     1      -4.529   5.989  -2.586  0.00  0.00    +0.002 A 
ATOM     22  C   UNL     1      -4.021   6.414  -3.800  0.00  0.00    +0.033 A 
ATOM     23  C   UNL     1      -2.713   6.123  -4.142  0.00  0.00    +0.126 A 
ATOM     24  C   UNL     1      -1.913   5.410  -3.268  0.00  0.00    +0.036 A 
BRANCH  23  25
ATOM     25  N   UNL     1      -2.169   6.577  -5.441  0.00  0.00    +0.056 N 
ATOM     26  O   UNL     1      -2.874   7.208  -6.209  0.00  0.00    -0.126 OA
ATOM     27  O   UNL     1      -1.018   6.321  -5.743  0.00  0.00    -0.126 OA
ENDBRANCH  23  25
ENDBRANCH   9  19
BRANCH   8  28
ATOM     28  C   UNL     1      -3.305   2.482  -1.626  0.00  0.00    +0.169 C 
ATOM     29  O   UNL     1      -4.217   2.806  -0.895  0.00  0.00    -0.292 OA
BRANCH  28  30
ATOM     30  C   UNL     1      -3.592   1.883  -2.938  0.00  0.00    +0.018 A 
ATOM     31  C   UNL     1      -2.542   1.513  -3.786  0.00  0.00    +0.014 A 
ATOM     32  C   UNL     1      -2.818   0.947  -5.011  0.00  0.00    +0.039 A 
ATOM     33  C   UNL     1      -4.132   0.755  -5.410  0.00  0.00    +0.123 A 
ATOM     34  C   UNL     1      -5.178   1.125  -4.577  0.00  0.00    +0.039 A 
ATOM     35  C   UNL     1      -4.916   1.686  -3.346  0.00  0.00    +0.014 A 
ATOM     36  F   UNL     1      -4.396   0.205  -6.615  0.00  0.00    -0.205 F 
ENDBRANCH  28  30
ENDBRANCH   8  28
TORSDOF 4
