REMARK  Name = ZINC36280863
REMARK  11 active torsions:
REMARK  status: ('A' for Active; 'I' for Inactive)
REMARK    1  A    between atoms: C_1  and  C_2
REMARK    2  A    between atoms: C_4  and  C_34
REMARK    3  A    between atoms: C_6  and  N_8
REMARK    4  A    between atoms: N_10  and  C_30
REMARK    5  A    between atoms: C_13  and  C_16
REMARK    6  A    between atoms: C_16  and  C_17
REMARK    7  A    between atoms: N_19  and  C_20
REMARK    8  A    between atoms: C_22  and  N_27
REMARK    9  A    between atoms: C_30  and  C_31
REMARK   10  A    between atoms: C_31  and  O_32
REMARK   11  A    between atoms: O_32  and  C_33
REMARK                            x       y       z     vdW  Elec       q    Type
REMARK                         _______ _______ _______ _____ _____    ______ ____
ROOT
ATOM      1  N   UNL     1       0.037  -2.799   2.408  0.00  0.00    -0.226 NA
ATOM      2  C   UNL     1       0.846  -2.424   3.372  0.00  0.00    +0.164 C 
ATOM      3  N   UNL     1       1.007  -2.993   4.618  0.00  0.00    -0.248 N 
ATOM      4  C   UNL     1       1.861  -2.520   5.508  0.00  0.00    +0.235 C 
ATOM      5  O   UNL     1       1.997  -3.026   6.602  0.00  0.00    -0.274 OA
ATOM      6  C   UNL     1       2.663  -1.304   5.076  0.00  0.00    +0.149 C 
ATOM      7  S   UNL     1       2.003  -1.063   3.375  0.00  0.00    -0.077 S 
ENDROOT
BRANCH   1  13
ATOM      8  C   UNL     1      -0.038   1.480   0.028  0.00  0.00    +0.044 C 
ATOM      9  C   UNL     1      -0.019  -0.027   0.029  0.00  0.00    -0.048 A 
ATOM     10  C   UNL     1      -0.022  -0.718  -1.169  0.00  0.00    +0.006 A 
ATOM     11  C   UNL     1      -0.005  -2.102  -1.178  0.00  0.00    -0.048 A 
ATOM     12  C   UNL     1       0.015  -2.801   0.011  0.00  0.00    +0.031 A 
ATOM     13  C   UNL     1       0.018  -2.110   1.224  0.00  0.00    +0.067 A 
ATOM     14  C   UNL     1       0.006  -0.714   1.225  0.00  0.00    +0.031 A 
ATOM     15  C   UNL     1      -0.009  -2.846  -2.488  0.00  0.00    +0.044 C 
ENDBRANCH   1  13
BRANCH   6  16
ATOM     16  C   UNL     1       4.162  -1.609   5.046  0.00  0.00    +0.120 C 
BRANCH  16  17
ATOM     17  C   UNL     1       4.926  -0.348   4.733  0.00  0.00    +0.219 C 
ATOM     18  O   UNL     1       4.330   0.692   4.551  0.00  0.00    -0.275 OA
ATOM     19  N   UNL     1       6.271  -0.377   4.655  0.00  0.00    -0.284 N 
ATOM     20  H   UNL     1       6.752  -1.193   4.864  0.00  0.00    +0.155 HD
BRANCH  19  21
ATOM     21  C   UNL     1       6.975   0.771   4.273  0.00  0.00    +0.054 A 
ATOM     22  C   UNL     1       6.514   2.026   4.647  0.00  0.00    +0.057 A 
ATOM     23  C   UNL     1       7.211   3.158   4.269  0.00  0.00    +0.128 A 
ATOM     24  C   UNL     1       8.366   3.041   3.517  0.00  0.00    +0.034 A 
ATOM     25  C   UNL     1       8.828   1.793   3.142  0.00  0.00    +0.024 A 
ATOM     26  C   UNL     1       8.138   0.657   3.522  0.00  0.00    +0.062 A 
ATOM     27 CL   UNL     1       8.722  -0.910   3.057  0.00  0.00    -0.082 Cl
BRANCH  23  28
ATOM     28  N   UNL     1       6.720   4.496   4.667  0.00  0.00    +0.056 N 
ATOM     29  O   UNL     1       5.710   4.598   5.324  0.00  0.00    -0.126 OA
ATOM     30  O   UNL     1       7.329   5.486   4.336  0.00  0.00    -0.126 OA
ENDBRANCH  23  28
ENDBRANCH  19  21
ENDBRANCH  16  17
ENDBRANCH   6  16
BRANCH   3  31
ATOM     31  C   UNL     1       0.199  -4.165   4.967  0.00  0.00    +0.143 C 
BRANCH  31  32
ATOM     32  C   UNL     1       0.946  -5.437   4.562  0.00  0.00    +0.179 C 
BRANCH  32  33
ATOM     33  O   UNL     1       2.140  -5.556   5.338  0.00  0.00    -0.381 OA
ATOM     34  C   UNL     1       2.915  -6.718   5.036  0.00  0.00    +0.194 C 
ENDBRANCH  32  33
ENDBRANCH  31  32
ENDBRANCH   3  31
TORSDOF 8
