REMARK  Name = ZINC59742649
REMARK  8 active torsions:
REMARK  status: ('A' for Active; 'I' for Inactive)
REMARK    1  A    between atoms: C_1  and  C_2
REMARK    2  A    between atoms: C_2  and  C_3
REMARK    3  A    between atoms: C_9  and  C_12
REMARK    4  A    between atoms: N_14  and  C_15
REMARK    5  A    between atoms: C_18  and  C_22
REMARK    6  A    between atoms: C_20  and  C_21
REMARK    7  A    between atoms: C_22  and  C_24
REMARK    8  A    between atoms: C_22  and  C_26
REMARK                            x       y       z     vdW  Elec       q    Type
REMARK                         _______ _______ _______ _____ _____    ______ ____
ROOT
ATOM      1  C   UNL     1       2.449  -3.938   6.533  0.00  0.00    +0.038 A 
ATOM      2  C   UNL     1       2.633  -5.314   6.571  0.00  0.00    +0.044 A 
ATOM      3  C   UNL     1       3.259  -5.896   7.656  0.00  0.00    +0.047 A 
ATOM      4  C   UNL     1       3.702  -5.109   8.705  0.00  0.00    -0.008 A 
ATOM      5  C   UNL     1       3.519  -3.740   8.670  0.00  0.00    +0.011 A 
ATOM      6  C   UNL     1       2.899  -3.151   7.585  0.00  0.00    -0.029 A 
ATOM      7  C   UNL     1       2.707  -1.657   7.545  0.00  0.00    +0.045 C 
ATOM      8 CL   UNL     1       3.490  -7.616   7.705  0.00  0.00    -0.083 Cl
ENDROOT
BRANCH   1  11
ATOM      9  C   UNL     1       1.818  -3.967   4.239  0.00  0.00    +0.222 C 
ATOM     10  O   UNL     1       2.453  -4.989   4.089  0.00  0.00    -0.275 OA
ATOM     11  N   UNL     1       1.815  -3.345   5.435  0.00  0.00    -0.285 N 
ATOM     12  H   UNL     1       1.375  -2.487   5.535  0.00  0.00    +0.155 HD
BRANCH   9  19
ATOM     13  C   UNL     1       0.220  -0.304   1.583  0.00  0.00    +0.215 C 
ATOM     14  O   UNL     1       0.210   0.369   2.592  0.00  0.00    -0.276 OA
ATOM     15  N   UNL     1       0.859  -1.490   1.570  0.00  0.00    -0.301 N 
ATOM     16  C   UNL     1       0.884  -2.314   0.354  0.00  0.00    +0.108 C 
ATOM     17  C   UNL     1       0.378  -3.718   0.699  0.00  0.00    +0.020 C 
ATOM     18  C   UNL     1       1.203  -4.283   1.857  0.00  0.00    +0.016 C 
ATOM     19  C   UNL     1       1.032  -3.392   3.090  0.00  0.00    +0.093 C 
ATOM     20  C   UNL     1       1.550  -1.981   2.770  0.00  0.00    +0.120 C 
BRANCH  13  22
ATOM     21  C   UNL     1      -1.125   1.547   0.626  0.00  0.00    +0.013 C 
ATOM     22  C   UNL     1      -0.485   0.186   0.344  0.00  0.00    +0.092 C 
ENDBRANCH  13  22
ENDBRANCH   9  19
ENDBRANCH   1  11
BRANCH   4  23
ATOM     23  C   UNL     1       4.384  -5.747   9.888  0.00  0.00    +0.153 C 
BRANCH  23  24
ATOM     24  C   UNL     1       3.513  -5.600  11.109  0.00  0.00    -0.026 A 
ATOM     25  C   UNL     1       3.281  -4.348  11.646  0.00  0.00    +0.006 A 
ATOM     26  C   UNL     1       2.483  -4.213  12.766  0.00  0.00    +0.020 A 
ATOM     27  C   UNL     1       1.915  -5.331  13.350  0.00  0.00    +0.041 A 
ATOM     28  C   UNL     1       2.148  -6.585  12.812  0.00  0.00    +0.020 A 
ATOM     29  C   UNL     1       2.942  -6.718  11.689  0.00  0.00    +0.006 A 
ATOM     30 CL   UNL     1       0.913  -5.162  14.757  0.00  0.00    -0.084 Cl
ENDBRANCH  23  24
BRANCH  23  31
ATOM     31  C   UNL     1       5.677  -5.084  10.125  0.00  0.00    +0.075 C 
ATOM     32  N   UNL     1       6.675  -4.573  10.308  0.00  0.00    -0.196 NA
ENDBRANCH  23  31
ENDBRANCH   4  23
TORSDOF 6
