REMARK  Name = ZINC56920779
REMARK  4 active torsions:
REMARK  status: ('A' for Active; 'I' for Inactive)
REMARK    1  A    between atoms: C_8  and  N_12
REMARK    2  A    between atoms: C_13  and  C_15
REMARK    3  A    between atoms: C_15  and  C_18
REMARK    4  A    between atoms: C_20  and  C_23
REMARK                            x       y       z     vdW  Elec       q    Type
REMARK                         _______ _______ _______ _____ _____    ______ ____
ROOT
ATOM      1  N   UNL     1       2.752  -4.053   0.159  0.00  0.00    -0.279 N 
ATOM      2  C   UNL     1       3.937  -4.671   0.334  0.00  0.00    +0.229 C 
ATOM      3  O   UNL     1       4.944  -4.016   0.504  0.00  0.00    -0.274 OA
ATOM      4  H   UNL     1       1.938  -4.575   0.095  0.00  0.00    +0.155 HD
ENDROOT
BRANCH   1  12
ATOM      5  C   UNL     1       1.348   1.507  -1.915  0.00  0.00    +0.001 A 
ATOM      6  C   UNL     1       2.118   2.197  -0.990  0.00  0.00    +0.004 A 
ATOM      7  C   UNL     1       2.895   1.517  -0.075  0.00  0.00    +0.047 A 
ATOM      8  C   UNL     1       2.908   0.129  -0.079  0.00  0.00    +0.139 A 
ATOM      9  C   UNL     1       2.125  -0.568  -1.016  0.00  0.00    +0.019 A 
ATOM     10  C   UNL     1       1.346   0.141  -1.936  0.00  0.00    +0.011 A 
ATOM     11  C   UNL     1       2.137  -2.035  -1.010  0.00  0.00    +0.042 A 
ATOM     12  C   UNL     1       2.697  -2.657   0.071  0.00  0.00    +0.120 A 
ATOM     13  C   UNL     1       3.240  -1.802   1.137  0.00  0.00    +0.359 A 
ATOM     14  O   UNL     1       3.305  -2.200   2.286  0.00  0.00    -0.243 OA
ATOM     15  O   UNL     1       3.665  -0.561   0.807  0.00  0.00    -0.421 OA
ENDBRANCH   1  12
BRANCH   2  16
ATOM     16  C   UNL     1       4.011  -6.176   0.319  0.00  0.00    +0.092 C 
ATOM     17  C   UNL     1       4.155  -6.890   1.664  0.00  0.00    +0.024 C 
ATOM     18  C   UNL     1       5.344  -6.822   0.704  0.00  0.00    +0.024 C 
BRANCH  16  19
ATOM     19  C   UNL     1       3.191  -6.856  -0.747  0.00  0.00    +0.099 A 
ATOM     20  C   UNL     1       1.801  -6.754  -0.904  0.00  0.00    +0.077 A 
ATOM     21  C   UNL     1       1.442  -7.512  -1.975  0.00  0.00    +0.168 A 
ATOM     22  O   UNL     1       2.560  -8.072  -2.474  0.00  0.00    -0.354 OA
ATOM     23  N   UNL     1       3.652  -7.637  -1.684  0.00  0.00    -0.082 NA
BRANCH  21  24
ATOM     24  C   UNL     1       0.070  -7.691  -2.497  0.00  0.00    +0.020 A 
ATOM     25  C   UNL     1      -1.003  -7.044  -1.882  0.00  0.00    +0.013 A 
ATOM     26  C   UNL     1      -2.280  -7.214  -2.373  0.00  0.00    +0.021 A 
ATOM     27  C   UNL     1      -2.499  -8.025  -3.474  0.00  0.00    +0.041 A 
ATOM     28  C   UNL     1      -1.438  -8.669  -4.088  0.00  0.00    +0.021 A 
ATOM     29  C   UNL     1      -0.156  -8.502  -3.609  0.00  0.00    +0.013 A 
ATOM     30 CL   UNL     1      -4.110  -8.234  -4.087  0.00  0.00    -0.084 Cl
ENDBRANCH  21  24
ENDBRANCH  16  19
ENDBRANCH   2  16
TORSDOF 4
