REMARK  Name = ZINC54643692
REMARK  10 active torsions:
REMARK  status: ('A' for Active; 'I' for Inactive)
REMARK    1  A    between atoms: C_1  and  C_2
REMARK    2  A    between atoms: C_3  and  C_26
REMARK    3  A    between atoms: C_4  and  C_20
REMARK    4  A    between atoms: C_9  and  S_11
REMARK    5  A    between atoms: S_11  and  C_12
REMARK    6  A    between atoms: C_12  and  C_13
REMARK    7  A    between atoms: C_26  and  O_28
REMARK    8  A    between atoms: O_28  and  C_29
REMARK    9  A    between atoms: C_29  and  C_30
REMARK   10  A    between atoms: C_29  and  C_31
REMARK                            x       y       z     vdW  Elec       q    Type
REMARK                         _______ _______ _______ _____ _____    ______ ____
ROOT
ATOM      1  C   UNL     1      -0.018   1.503   0.010  0.00  0.00    +0.061 C 
ATOM      2  C   UNL     1       0.002  -0.004   0.002  0.00  0.00    +0.020 C 
ATOM      3  C   UNL     1      -1.164  -0.669   0.004  0.00  0.00    +0.085 C 
ATOM      4  C   UNL     1      -1.253  -2.171   0.007  0.00  0.00    +0.215 C 
ATOM      5  N   UNL     1       0.062  -2.737  -0.284  0.00  0.00    -0.217 N 
ATOM      6  C   UNL     1       1.208  -2.012  -0.281  0.00  0.00    +0.220 A 
ATOM      7  N   UNL     1       2.196  -2.814  -0.571  0.00  0.00    -0.187 NA
ATOM      8  C   UNL     1       1.724  -4.053  -0.770  0.00  0.00    +0.211 A 
ATOM      9  N   UNL     1       0.418  -4.046  -0.604  0.00  0.00    -0.141 NA
ATOM     10  N   UNL     1       1.212  -0.651  -0.013  0.00  0.00    -0.287 N 
ATOM     11  H   UNL     1       2.040  -0.175   0.160  0.00  0.00    +0.155 HD
ENDROOT
BRANCH   4  12
ATOM     12  C   UNL     1      -1.715  -2.644   1.361  0.00  0.00    +0.136 A 
ATOM     13  C   UNL     1      -2.826  -3.361   1.607  0.00  0.00    +0.048 A 
ATOM     14  C   UNL     1      -2.870  -3.583   3.003  0.00  0.00    +0.057 A 
ATOM     15  C   UNL     1      -1.782  -2.989   3.527  0.00  0.00    +0.170 A 
ATOM     16  O   UNL     1      -1.083  -2.428   2.527  0.00  0.00    -0.451 OA
ATOM     17 BR   UNL     1      -1.312  -2.958   5.359  0.00  0.00    -0.008 Br
ENDBRANCH   4  12
BRANCH   3  18
ATOM     18  C   UNL     1      -2.364   0.077   0.003  0.00  0.00    +0.339 C 
ATOM     19  O   UNL     1      -2.325   1.293  -0.001  0.00  0.00    -0.245 OA
BRANCH  18  20
ATOM     20  O   UNL     1      -3.554  -0.560   0.004  0.00  0.00    -0.459 OA
BRANCH  20  21
ATOM     21  C   UNL     1      -4.727   0.257   0.003  0.00  0.00    +0.171 C 
ATOM     22  C   UNL     1      -5.146   0.545  -1.440  0.00  0.00    +0.052 C 
ATOM     23  C   UNL     1      -5.859  -0.475   0.726  0.00  0.00    +0.052 C 
ENDBRANCH  20  21
ENDBRANCH  18  20
ENDBRANCH   3  18
BRANCH   8  24
ATOM     24  S   UNL     1       2.694  -5.463  -1.188  0.00  0.00    -0.080 S 
BRANCH  24  25
ATOM     25  C   UNL     1       4.389  -4.821  -1.267  0.00  0.00    +0.112 C 
BRANCH  25  26
ATOM     26  C   UNL     1       5.334  -5.941  -1.621  0.00  0.00    -0.037 A 
ATOM     27  C   UNL     1       5.910  -6.701  -0.620  0.00  0.00    +0.004 A 
ATOM     28  C   UNL     1       6.776  -7.728  -0.944  0.00  0.00    +0.000 A 
ATOM     29  C   UNL     1       7.067  -7.995  -2.269  0.00  0.00    +0.000 A 
ATOM     30  C   UNL     1       6.491  -7.235  -3.269  0.00  0.00    +0.000 A 
ATOM     31  C   UNL     1       5.620  -6.211  -2.946  0.00  0.00    +0.004 A 
ENDBRANCH  25  26
ENDBRANCH  24  25
ENDBRANCH   8  24
TORSDOF 7
