REMARK  Name = ZINC05270892
REMARK  11 active torsions:
REMARK  status: ('A' for Active; 'I' for Inactive)
REMARK    1  A    between atoms: C_1  and  C_2
REMARK    2  A    between atoms: C_2  and  C_3
REMARK    3  A    between atoms: C_2  and  C_4
REMARK    4  A    between atoms: C_4  and  C_5
REMARK    5  A    between atoms: C_5  and  C_7
REMARK    6  A    between atoms: C_5  and  N_19
REMARK    7  A    between atoms: N_9  and  C_10
REMARK    8  A    between atoms: C_13  and  C_16
REMARK    9  A    between atoms: C_16  and  C_17
REMARK   10  A    between atoms: C_16  and  C_18
REMARK   11  A    between atoms: C_20  and  C_22
REMARK                            x       y       z     vdW  Elec       q    Type
REMARK                         _______ _______ _______ _____ _____    ______ ____
ROOT
ATOM      1  C   UNL     1       0.029   0.004  -2.407  0.00  0.00    +0.159 C 
ENDROOT
BRANCH   1   2
ATOM      2  C   UNL     1       0.561  -0.746  -3.601  0.00  0.00    +0.238 C 
ATOM      3  O   UNL     1       1.102  -0.143  -4.504  0.00  0.00    -0.273 OA
ATOM      4  N   UNL     1       0.437  -2.086  -3.665  0.00  0.00    -0.284 N 
ATOM      5  H   UNL     1      -0.046  -2.562  -2.972  0.00  0.00    +0.155 HD
BRANCH   4   6
ATOM      6  C   UNL     1       1.006  -2.791  -4.732  0.00  0.00    +0.033 A 
ATOM      7  C   UNL     1       1.032  -2.229  -6.002  0.00  0.00    +0.023 A 
ATOM      8  C   UNL     1       1.599  -2.926  -7.051  0.00  0.00    +0.006 A 
ATOM      9  C   UNL     1       2.130  -4.185  -6.841  0.00  0.00    -0.045 A 
ATOM     10  C   UNL     1       2.099  -4.749  -5.579  0.00  0.00    +0.006 A 
ATOM     11  C   UNL     1       1.539  -4.056  -4.524  0.00  0.00    +0.023 A 
BRANCH   9  12
ATOM     12  C   UNL     1       2.743  -4.944  -7.989  0.00  0.00    +0.013 C 
ATOM     13  C   UNL     1       1.688  -5.163  -9.076  0.00  0.00    +0.012 C 
ATOM     14  C   UNL     1       3.910  -4.141  -8.566  0.00  0.00    +0.012 C 
ENDBRANCH   9  12
ENDBRANCH   4   6
ENDBRANCH   1   2
BRANCH   1  15
ATOM     15  N   UNL     1       0.271   1.438  -2.583  0.00  0.00    -0.305 N 
ATOM     16  C   UNL     1      -0.512   2.337  -1.954  0.00  0.00    +0.200 C 
ATOM     17  O   UNL     1      -1.358   1.960  -1.171  0.00  0.00    -0.278 OA
ATOM     18  H   UNL     1       0.995   1.742  -3.153  0.00  0.00    +0.149 HD
BRANCH  16  19
ATOM     19  C   UNL     1      -0.337   3.809  -2.223  0.00  0.00    +0.021 C 
ATOM     20  C   UNL     1       0.850   4.340  -1.418  0.00  0.00    +0.028 C 
ATOM     21  C   UNL     1       0.886   5.845  -1.487  0.00  0.00    -0.047 A 
ATOM     22  C   UNL     1       2.058   6.496  -1.133  0.00  0.00    +0.004 A 
ATOM     23  C   UNL     1       2.132   7.873  -1.178  0.00  0.00    +0.000 A 
ATOM     24  C   UNL     1       1.032   8.609  -1.578  0.00  0.00    +0.000 A 
ATOM     25  C   UNL     1      -0.135   7.962  -1.932  0.00  0.00    +0.002 A 
ATOM     26  C   UNL     1      -0.211   6.578  -1.889  0.00  0.00    -0.061 A 
ATOM     27  C   UNL     1      -1.502   5.917  -2.294  0.00  0.00    -0.045 C 
ATOM     28  N   UNL     1      -1.551   4.533  -1.803  0.00  0.00    +0.389 N 
ATOM     29  H   UNL     1      -1.608   4.537  -0.778  0.00  0.00    -0.084 HD
ATOM     30  H   UNL     1      -2.378   4.064  -2.190  0.00  0.00    -0.084 HD
ENDBRANCH  16  19
ENDBRANCH   1  15
BRANCH   1  31
ATOM     31  C   UNL     1       0.739  -0.481  -1.141  0.00  0.00    +0.034 C 
BRANCH  31  33
ATOM     32  C   UNL     1       2.900  -0.963  -2.297  0.00  0.00    +0.007 C 
ATOM     33  C   UNL     1       2.223  -0.117  -1.218  0.00  0.00    -0.015 C 
ATOM     34  C   UNL     1       2.885  -0.390   0.134  0.00  0.00    +0.007 C 
ENDBRANCH  31  33
ENDBRANCH   1  31
TORSDOF 7
