REMARK  Name = ZINC64858707
REMARK  4 active torsions:
REMARK  status: ('A' for Active; 'I' for Inactive)
REMARK    1  A    between atoms: C_14  and  O_39
REMARK    2  A    between atoms: C_22  and  O_24
REMARK    3  A    between atoms: O_24  and  S_25
REMARK    4  A    between atoms: S_25  and  C_28
REMARK                            x       y       z     vdW  Elec       q    Type
REMARK                         _______ _______ _______ _____ _____    ______ ____
ROOT
ATOM      1  C   UNL     1      -0.017   1.383   0.010  0.00  0.00    +0.001 A 
ATOM      2  C   UNL     1       1.146   2.128   0.003  0.00  0.00    +0.000 A 
ATOM      3  C   UNL     1       2.403   1.529  -0.013  0.00  0.00    +0.009 A 
ATOM      4  C   UNL     1       2.438   0.153  -0.020  0.00  0.00    +0.019 A 
ATOM      5  C   UNL     1       1.258  -0.616  -0.013  0.00  0.00    +0.067 A 
ATOM      6  C   UNL     1       0.002  -0.004   0.002  0.00  0.00    +0.015 A 
ATOM      7  C   UNL     1       1.645  -2.026  -0.024  0.00  0.00    +0.341 C 
ATOM      8  O   UNL     1       0.871  -2.962  -0.022  0.00  0.00    -0.245 OA
ATOM      9  O   UNL     1       2.988  -2.132  -0.038  0.00  0.00    -0.440 OA
ATOM     10  C   UNL     1       3.573  -0.821  -0.036  0.00  0.00    +0.196 C 
ATOM     11  C   UNL     1       4.424  -0.658   1.195  0.00  0.00    +0.047 A 
ATOM     12  C   UNL     1       3.954  -1.128   2.409  0.00  0.00    +0.015 A 
ATOM     13  C   UNL     1       4.718  -0.992   3.552  0.00  0.00    +0.046 A 
ATOM     14  C   UNL     1       5.961  -0.379   3.485  0.00  0.00    +0.120 A 
ATOM     15  C   UNL     1       6.433   0.094   2.272  0.00  0.00    +0.092 A 
ATOM     16  C   UNL     1       5.664  -0.044   1.123  0.00  0.00    +0.140 A 
ATOM     17  O   UNL     1       6.143   0.428  -0.052  0.00  0.00    -0.455 OA
ATOM     18  C   UNL     1       5.642  -0.029  -1.225  0.00  0.00    +0.140 A 
ATOM     19  C   UNL     1       4.401  -0.643  -1.281  0.00  0.00    +0.047 A 
ATOM     20  C   UNL     1       3.910  -1.100  -2.491  0.00  0.00    +0.015 A 
ATOM     21  C   UNL     1       4.652  -0.950  -3.646  0.00  0.00    +0.049 A 
ATOM     22  C   UNL     1       5.897  -0.339  -3.595  0.00  0.00    +0.160 A 
ATOM     23  C   UNL     1       6.391   0.121  -2.385  0.00  0.00    +0.095 A 
ENDROOT
BRANCH  14  24
ATOM     24  O   UNL     1       6.715  -0.244   4.608  0.00  0.00    -0.507 OA
ATOM     25  H   UNL     1       7.310  -0.988   4.774  0.00  0.00    +0.292 HD
ENDBRANCH  14  24
BRANCH  22  26
ATOM     26  O   UNL     1       6.629  -0.191  -4.730  0.00  0.00    -0.342 OA
BRANCH  26  27
ATOM     27  S   UNL     1       6.365   1.111  -5.472  0.00  0.00    +0.157 S 
ATOM     28  O   UNL     1       7.041   1.013  -6.718  0.00  0.00    -0.131 OA
ATOM     29  O   UNL     1       4.968   1.355  -5.380  0.00  0.00    -0.131 OA
BRANCH  27  30
ATOM     30  C   UNL     1       7.162   2.397  -4.567  0.00  0.00    +0.204 A 
ATOM     31  C   UNL     1       6.479   3.062  -3.564  0.00  0.00    +0.192 A 
ATOM     32  C   UNL     1       7.105   4.073  -2.852  0.00  0.00    +0.198 A 
ATOM     33  C   UNL     1       8.415   4.418  -3.145  0.00  0.00    +0.199 A 
ATOM     34  C   UNL     1       9.098   3.751  -4.150  0.00  0.00    +0.198 A 
ATOM     35  C   UNL     1       8.472   2.736  -4.857  0.00  0.00    +0.192 A 
ATOM     36  F   UNL     1       9.140   2.082  -5.832  0.00  0.00    -0.200 F 
ATOM     37  F   UNL     1      10.375   4.086  -4.436  0.00  0.00    -0.199 F 
ATOM     38  F   UNL     1       9.025   5.404  -2.452  0.00  0.00    -0.199 F 
ATOM     39  F   UNL     1       6.438   4.723  -1.874  0.00  0.00    -0.199 F 
ATOM     40  F   UNL     1       5.202   2.727  -3.279  0.00  0.00    -0.200 F 
ENDBRANCH  27  30
ENDBRANCH  26  27
ENDBRANCH  22  26
TORSDOF 4
