REMARK  Name = ZINC25267293
REMARK  7 active torsions:
REMARK  status: ('A' for Active; 'I' for Inactive)
REMARK    1  A    between atoms: C_4  and  S_20
REMARK    2  A    between atoms: C_5  and  N_7
REMARK    3  A    between atoms: C_8  and  C_10
REMARK    4  A    between atoms: C_10  and  S_11
REMARK    5  A    between atoms: S_11  and  C_12
REMARK    6  A    between atoms: N_16  and  C_17
REMARK    7  A    between atoms: S_20  and  C_21
REMARK                            x       y       z     vdW  Elec       q    Type
REMARK                         _______ _______ _______ _____ _____    ______ ____
ROOT
ATOM      1  N   UNL     1      -0.084   5.248   0.031  0.00  0.00    -0.284 N 
ATOM      2  C   UNL     1      -1.149   5.901   0.537  0.00  0.00    +0.228 C 
ATOM      3  O   UNL     1      -2.045   5.280   1.069  0.00  0.00    -0.275 OA
ATOM      4  H   UNL     1       0.769   5.815  -0.369  0.00  0.00    +0.155 HD
ENDROOT
BRANCH   1   9
ATOM      5  C   UNL     1      -1.233   1.753  -0.009  0.00  0.00    +0.002 A 
ATOM      6  C   UNL     1      -0.027   1.076  -0.022  0.00  0.00    +0.001 A 
ATOM      7  C   UNL     1       1.164   1.777  -0.023  0.00  0.00    +0.016 A 
ATOM      8  C   UNL     1       1.152   3.165  -0.005  0.00  0.00    +0.029 A 
ATOM      9  C   UNL     1      -0.065   3.847   0.013  0.00  0.00    +0.047 A 
ATOM     10  C   UNL     1      -1.254   3.135   0.014  0.00  0.00    +0.024 A 
BRANCH   8  11
ATOM     11  S   UNL     1       2.669   4.062  -0.006  0.00  0.00    -0.120 S 
BRANCH  11  12
ATOM     12  C   UNL     1       3.942   2.770  -0.032  0.00  0.00    +0.051 C 
ATOM     13  C   UNL     1       3.922   1.981   1.293  0.00  0.00    +0.014 C 
ATOM     14  C   UNL     1       5.416   1.685   1.581  0.00  0.00    +0.001 C 
ATOM     15  C   UNL     1       6.118   2.986   1.118  0.00  0.00    +0.001 C 
ATOM     16  C   UNL     1       5.338   3.408  -0.144  0.00  0.00    +0.014 C 
ENDBRANCH  11  12
ENDBRANCH   8  11
ENDBRANCH   1   9
BRANCH   2  17
ATOM     17  C   UNL     1      -1.226   7.403   0.443  0.00  0.00    +0.173 C 
BRANCH  17  18
ATOM     18  S   UNL     1      -2.763   7.977   1.208  0.00  0.00    -0.075 S 
BRANCH  18  19
ATOM     19  C   UNL     1      -2.597   9.714   0.963  0.00  0.00    +0.210 A 
ATOM     20  N   UNL     1      -1.590  10.328   0.381  0.00  0.00    -0.101 NA
ATOM     21  N   UNL     1      -1.786  11.597   0.364  0.00  0.00    -0.022 NA
ATOM     22  N   UNL     1      -2.907  11.885   0.933  0.00  0.00    -0.043 NA
ATOM     23  N   UNL     1      -3.478  10.668   1.345  0.00  0.00    -0.217 N 
BRANCH  23  24
ATOM     24  C   UNL     1      -4.753  10.475   2.040  0.00  0.00    +0.112 C 
ATOM     25  C   UNL     1      -5.671  11.690   2.184  0.00  0.00    +0.029 C 
ATOM     26  C   UNL     1      -4.923  11.147   3.404  0.00  0.00    +0.029 C 
ENDBRANCH  23  24
ENDBRANCH  18  19
ENDBRANCH  17  18
ENDBRANCH   2  17
TORSDOF 7
