REMARK  Name = ZINC03429946
REMARK  4 active torsions:
REMARK  status: ('A' for Active; 'I' for Inactive)
REMARK    1  A    between atoms: C_4  and  S_11
REMARK    2  A    between atoms: C_5  and  C_7
REMARK    3  A    between atoms: S_11  and  N_14
REMARK    4  A    between atoms: C_20  and  C_22
REMARK                            x       y       z     vdW  Elec       q    Type
REMARK                         _______ _______ _______ _____ _____    ______ ____
ROOT
ATOM      1  N   UNL     1       0.310   3.436  -0.470  0.00  0.00    -0.174 NA
ATOM      2  C   UNL     1       0.316   2.079  -1.035  0.00  0.00    +0.128 C 
ATOM      3  C   UNL     1       0.451   1.071   0.113  0.00  0.00    +0.125 C 
ATOM      4  N   UNL     1      -0.536   1.401   1.151  0.00  0.00    -0.295 N 
ATOM      5  C   UNL     1      -0.545   2.760   1.713  0.00  0.00    +0.125 C 
ATOM      6  C   UNL     1      -0.680   3.768   0.565  0.00  0.00    +0.128 C 
ATOM      7  C   UNL     1      -1.420   0.477   1.576  0.00  0.00    +0.253 C 
ATOM      8  O   UNL     1      -1.347  -0.667   1.169  0.00  0.00    -0.269 OA
ENDROOT
BRANCH   7   9
ATOM      9  C   UNL     1      -2.470   0.850   2.530  0.00  0.00    +0.075 A 
ATOM     10  C   UNL     1      -3.081   0.078   3.501  0.00  0.00    +0.024 A 
ATOM     11  C   UNL     1      -4.056   0.674   4.292  0.00  0.00    -0.036 A 
ATOM     12  C   UNL     1      -4.347   1.967   4.023  0.00  0.00    -0.006 A 
ATOM     13  S   UNL     1      -3.288   2.423   2.746  0.00  0.00    -0.088 S 
ATOM     14  C   UNL     1      -5.398   2.817   4.701  0.00  0.00    +0.043 C 
ATOM     15  C   UNL     1      -4.926   3.057   6.145  0.00  0.00    +0.005 C 
ATOM     16  C   UNL     1      -5.207   1.841   6.997  0.00  0.00    +0.001 C 
ATOM     17  C   UNL     1      -4.348   0.630   6.743  0.00  0.00    +0.005 C 
ATOM     18  C   UNL     1      -4.729  -0.082   5.444  0.00  0.00    +0.036 C 
ENDBRANCH   7   9
BRANCH   1  19
ATOM     19  S   UNL     1       1.398   4.570  -0.990  0.00  0.00    +0.061 S 
ATOM     20  O   UNL     1       1.438   5.582   0.007  0.00  0.00    -0.153 OA
ATOM     21  O   UNL     1       2.558   3.861  -1.402  0.00  0.00    -0.153 OA
BRANCH  19  25
ATOM     22  C   UNL     1      -0.336   6.483  -4.708  0.00  0.00    +0.001 A 
ATOM     23  C   UNL     1      -1.144   5.730  -3.877  0.00  0.00    +0.002 A 
ATOM     24  C   UNL     1      -0.614   5.142  -2.745  0.00  0.00    +0.029 A 
ATOM     25  C   UNL     1       0.723   5.315  -2.437  0.00  0.00    +0.117 A 
ATOM     26  C   UNL     1       1.532   6.068  -3.268  0.00  0.00    +0.081 A 
ATOM     27  C   UNL     1       1.002   6.652  -4.404  0.00  0.00    +0.014 A 
BRANCH  26  28
ATOM     28  C   UNL     1       2.990   6.251  -2.937  0.00  0.00    +0.419 C 
ATOM     29  F   UNL     1       3.562   7.159  -3.834  0.00  0.00    -0.166 F 
ATOM     30  F   UNL     1       3.114   6.744  -1.633  0.00  0.00    -0.166 F 
ATOM     31  F   UNL     1       3.649   5.021  -3.035  0.00  0.00    -0.166 F 
ENDBRANCH  26  28
ENDBRANCH  19  25
ENDBRANCH   1  19
TORSDOF 4
