REMARK  Name = ZINC20725392
REMARK  5 active torsions:
REMARK  status: ('A' for Active; 'I' for Inactive)
REMARK    1  A    between atoms: C_1  and  O_2
REMARK    2  A    between atoms: O_2  and  C_3
REMARK    3  A    between atoms: C_5  and  C_10
REMARK    4  A    between atoms: C_8  and  O_9
REMARK    5  A    between atoms: C_19  and  C_22
REMARK                            x       y       z     vdW  Elec       q    Type
REMARK                         _______ _______ _______ _____ _____    ______ ____
ROOT
ATOM      1  C   UNL     1       0.002  -0.004   0.002  0.00  0.00    +0.189 C 
ATOM      2  N   UNL     1      -0.018   1.498   0.010  0.00  0.00    -0.212 N 
ATOM      3  C   UNL     1       1.246   2.077   0.001  0.00  0.00    +0.098 C 
ATOM      4  C   UNL     1       2.371   1.346  -0.013  0.00  0.00    +0.075 C 
ATOM      5  S   UNL     1       1.803  -0.340  -0.017  0.00  0.00    -0.101 S 
ATOM      6  S   UNL     1       0.882   3.835   0.014  0.00  0.00    -0.031 S 
ATOM      7  C   UNL     1      -0.886   3.725   0.030  0.00  0.00    +0.215 A 
ATOM      8  N   UNL     1      -1.123   2.386   0.031  0.00  0.00    -0.209 N 
ATOM      9  C   UNL     1      -2.499   2.286   0.038  0.00  0.00    +0.256 A 
ATOM     10  N   UNL     1      -2.983   3.495   0.049  0.00  0.00    -0.123 NA
ATOM     11  N   UNL     1      -2.023   4.354   0.045  0.00  0.00    -0.120 NA
ENDROOT
BRANCH   1  14
ATOM     12  C   UNL     1      -1.870  -2.299   2.348  0.00  0.00    +0.162 A 
ATOM     13  C   UNL     1      -1.284  -1.783   1.203  0.00  0.00    +0.055 A 
ATOM     14  C   UNL     1      -0.639  -0.561   1.247  0.00  0.00    -0.011 A 
ATOM     15  C   UNL     1      -0.586   0.154   2.429  0.00  0.00    +0.010 A 
ATOM     16  C   UNL     1      -1.173  -0.352   3.574  0.00  0.00    +0.049 A 
ATOM     17  C   UNL     1      -1.817  -1.579   3.538  0.00  0.00    +0.158 A 
BRANCH  12  19
ATOM     18  C   UNL     1      -2.516  -4.185   1.052  0.00  0.00    +0.277 C 
ATOM     19  O   UNL     1      -2.501  -3.503   2.307  0.00  0.00    -0.491 OA
ENDBRANCH  12  19
BRANCH  17  20
ATOM     20  O   UNL     1      -2.394  -2.079   4.663  0.00  0.00    -0.503 OA
ATOM     21  H   UNL     1      -2.351  -1.509   5.603  0.00  0.00    +0.292 HD
ENDBRANCH  17  20
ENDBRANCH   1  14
BRANCH   9  22
ATOM     22  C   UNL     1      -3.299   1.009   0.039  0.00  0.00    +0.454 C 
ATOM     23  F   UNL     1      -4.630   1.291  -0.287  0.00  0.00    -0.163 F 
ATOM     24  F   UNL     1      -2.765   0.124  -0.904  0.00  0.00    -0.163 F 
ATOM     25  F   UNL     1      -3.244   0.425   1.310  0.00  0.00    -0.163 F 
ENDBRANCH   9  22
TORSDOF 4
