REMARK  Name = ZINC38984870
REMARK  8 active torsions:
REMARK  status: ('A' for Active; 'I' for Inactive)
REMARK    1  A    between atoms: C_3  and  C_8
REMARK    2  A    between atoms: C_5  and  O_7
REMARK    3  A    between atoms: N_9  and  N_10
REMARK    4  A    between atoms: C_11  and  C_13
REMARK    5  A    between atoms: C_16  and  C_19
REMARK    6  A    between atoms: C_23  and  O_25
REMARK    7  A    between atoms: O_25  and  C_26
REMARK    8  A    between atoms: C_26  and  C_27
REMARK                            x       y       z     vdW  Elec       q    Type
REMARK                         _______ _______ _______ _____ _____    ______ ____
ROOT
ATOM      1  C   UNL     1       6.113   6.301  -0.025  0.00  0.00    +0.240 C 
ATOM      2  C   UNL     1       6.684   6.406   1.378  0.00  0.00    +0.041 C 
ATOM      3  C   UNL     1       6.706   7.731   1.619  0.00  0.00    +0.092 C 
ATOM      4  N   UNL     1       6.226   8.416   0.549  0.00  0.00    -0.153 NA
ATOM      5  N   UNL     1       5.879   7.705  -0.402  0.00  0.00    -0.170 NA
ENDROOT
BRANCH   3   6
ATOM      6  C   UNL     1       7.187   8.354   2.877  0.00  0.00    +0.005 A 
ATOM      7  C   UNL     1       7.666   7.556   3.914  0.00  0.00    +0.010 A 
ATOM      8  C   UNL     1       8.113   8.139   5.083  0.00  0.00    +0.004 A 
ATOM      9  C   UNL     1       8.087   9.513   5.229  0.00  0.00    +0.046 A 
ATOM     10  C   UNL     1       7.611  10.315   4.201  0.00  0.00    +0.122 A 
ATOM     11  C   UNL     1       7.166   9.739   3.022  0.00  0.00    +0.055 A 
BRANCH  10  12
ATOM     12  O   UNL     1       7.587  11.666   4.349  0.00  0.00    -0.487 OA
BRANCH  12  13
ATOM     13  C   UNL     1       8.066  12.192   5.588  0.00  0.00    +0.264 C 
BRANCH  13  14
ATOM     14  C   UNL     1       7.963  13.695   5.570  0.00  0.00    -0.010 A 
ATOM     15  C   UNL     1       9.018  14.454   5.099  0.00  0.00    +0.008 A 
ATOM     16  C   UNL     1       8.924  15.833   5.082  0.00  0.00    +0.020 A 
ATOM     17  C   UNL     1       7.773  16.453   5.536  0.00  0.00    +0.041 A 
ATOM     18  C   UNL     1       6.718  15.693   6.006  0.00  0.00    +0.020 A 
ATOM     19  C   UNL     1       6.811  14.314   6.018  0.00  0.00    +0.008 A 
ATOM     20 CL   UNL     1       7.655  18.185   5.515  0.00  0.00    -0.084 Cl
ENDBRANCH  13  14
ENDBRANCH  12  13
ENDBRANCH  10  12
ENDBRANCH   3   6
BRANCH   1  22
ATOM     21  N   UNL     1       4.838   4.181  -0.023  0.00  0.00    -0.205 N 
ATOM     22  C   UNL     1       4.819   5.529  -0.016  0.00  0.00    +0.263 C 
ATOM     23  O   UNL     1       3.760   6.120  -0.003  0.00  0.00    -0.271 OA
ATOM     24  H   UNL     1       5.685   3.709  -0.034  0.00  0.00    +0.177 HD
BRANCH  21  26
ATOM     25  C   UNL     1       3.654   2.166  -0.022  0.00  0.00    +0.138 C 
ATOM     26  N   UNL     1       3.635   3.464  -0.015  0.00  0.00    -0.188 NA
BRANCH  25  29
ATOM     27  C   UNL     1      -0.017   1.378   0.010  0.00  0.00    +0.004 A 
ATOM     28  C   UNL     1       1.166   2.089   0.002  0.00  0.00    +0.010 A 
ATOM     29  C   UNL     1       2.387   1.411  -0.013  0.00  0.00    -0.002 A 
ATOM     30  C   UNL     1       2.404   0.015  -0.021  0.00  0.00    +0.054 A 
ATOM     31  C   UNL     1       1.211  -0.688  -0.013  0.00  0.00    +0.117 A 
ATOM     32  C   UNL     1       0.002  -0.004   0.002  0.00  0.00    +0.045 A 
BRANCH  31  33
ATOM     33  O   UNL     1       1.223  -2.046  -0.021  0.00  0.00    -0.507 OA
ATOM     34  H   UNL     1       1.235  -2.445   0.860  0.00  0.00    +0.292 HD
ENDBRANCH  31  33
ENDBRANCH  25  29
ENDBRANCH  21  26
ENDBRANCH   1  22
TORSDOF 8
