REMARK  Name = ZINC08735840
REMARK  8 active torsions:
REMARK  status: ('A' for Active; 'I' for Inactive)
REMARK    1  A    between atoms: C_1  and  C_2
REMARK    2  A    between atoms: C_3  and  N_14
REMARK    3  A    between atoms: C_4  and  C_13
REMARK    4  A    between atoms: N_5  and  C_7
REMARK    5  A    between atoms: C_15  and  C_17
REMARK    6  A    between atoms: C_17  and  S_18
REMARK    7  A    between atoms: S_18  and  C_19
REMARK    8  A    between atoms: N_29  and  C_30
REMARK                            x       y       z     vdW  Elec       q    Type
REMARK                         _______ _______ _______ _____ _____    ______ ____
ROOT
ATOM      1  C   UNL     1       0.333   1.216   0.090  0.00  0.00    +0.173 C 
ENDROOT
BRANCH   1   3
ATOM      2  N   UNL     1       0.005   1.418   2.534  0.00  0.00    -0.282 N 
ATOM      3  C   UNL     1      -0.503   1.568   1.294  0.00  0.00    +0.228 C 
ATOM      4  O   UNL     1      -1.632   1.985   1.148  0.00  0.00    -0.275 OA
ATOM      5  H   UNL     1       0.874   1.004   2.655  0.00  0.00    +0.155 HD
BRANCH   2   8
ATOM      6  C   UNL     1      -1.957   3.838   2.513  0.00  0.00    +0.069 C 
ATOM      7  C   UNL     1      -1.616   2.946   3.679  0.00  0.00    +0.082 A 
ATOM      8  C   UNL     1      -0.725   1.862   3.652  0.00  0.00    +0.078 A 
ATOM      9  C   UNL     1      -0.689   1.322   4.897  0.00  0.00    +0.063 A 
ATOM     10  N   UNL     1      -1.536   2.042   5.681  0.00  0.00    -0.235 N 
ATOM     11  N   UNL     1      -2.104   3.048   4.889  0.00  0.00    -0.170 NA
ATOM     12  C   UNL     1       0.139   0.140   5.331  0.00  0.00    +0.068 C 
BRANCH  10  13
ATOM     13  C   UNL     1      -1.796   1.816   7.040  0.00  0.00    +0.066 A 
ATOM     14  C   UNL     1      -3.095   1.899   7.523  0.00  0.00    +0.028 A 
ATOM     15  C   UNL     1      -3.349   1.671   8.861  0.00  0.00    +0.002 A 
ATOM     16  C   UNL     1      -2.309   1.369   9.722  0.00  0.00    +0.000 A 
ATOM     17  C   UNL     1      -1.013   1.290   9.244  0.00  0.00    +0.002 A 
ATOM     18  C   UNL     1      -0.754   1.513   7.906  0.00  0.00    +0.028 A 
ENDBRANCH  10  13
ENDBRANCH   2   8
ENDBRANCH   1   3
BRANCH   1  19
ATOM     19  S   UNL     1      -0.621   1.524  -1.417  0.00  0.00    -0.078 S 
BRANCH  19  20
ATOM     20  C   UNL     1       0.561   1.043  -2.631  0.00  0.00    +0.173 A 
ATOM     21  N   UNL     1       1.733   0.618  -2.227  0.00  0.00    -0.223 NA
ATOM     22  C   UNL     1       2.685   0.234  -3.102  0.00  0.00    +0.079 A 
ATOM     23  C   UNL     1       3.936  -0.219  -2.671  0.00  0.00    +0.028 A 
ATOM     24  C   UNL     1       4.871  -0.598  -3.592  0.00  0.00    +0.002 A 
ATOM     25  C   UNL     1       4.599  -0.541  -4.953  0.00  0.00    +0.001 A 
ATOM     26  C   UNL     1       3.385  -0.102  -5.405  0.00  0.00    +0.015 A 
ATOM     27  C   UNL     1       2.412   0.291  -4.487  0.00  0.00    +0.065 A 
ATOM     28  C   UNL     1       1.091   0.771  -4.915  0.00  0.00    +0.263 A 
ATOM     29  O   UNL     1       0.796   0.842  -6.094  0.00  0.00    -0.267 OA
ATOM     30  N   UNL     1       0.212   1.125  -3.949  0.00  0.00    -0.284 N 
BRANCH  30  31
ATOM     31  C   UNL     1      -1.122   1.605  -4.319  0.00  0.00    +0.093 C 
ATOM     32  C   UNL     1      -1.855   0.536  -5.155  0.00  0.00    +0.025 C 
ATOM     33  C   UNL     1      -2.648   1.355  -6.205  0.00  0.00    +0.002 C 
ATOM     34  C   UNL     1      -1.669   2.504  -6.554  0.00  0.00    +0.002 C 
ATOM     35  C   UNL     1      -1.004   2.856  -5.207  0.00  0.00    +0.025 C 
ENDBRANCH  30  31
ENDBRANCH  19  20
ENDBRANCH   1  19
TORSDOF 6
