REMARK  Name = ZINC03251078
REMARK  9 active torsions:
REMARK  status: ('A' for Active; 'I' for Inactive)
REMARK    1  A    between atoms: C_1  and  C_2
REMARK    2  A    between atoms: C_5  and  C_28
REMARK    3  A    between atoms: C_7  and  S_8
REMARK    4  A    between atoms: S_8  and  N_11
REMARK    5  A    between atoms: N_11  and  C_12
REMARK    6  A    between atoms: C_15  and  C_18
REMARK    7  A    between atoms: C_28  and  C_29
REMARK    8  A    between atoms: C_28  and  C_30
REMARK    9  A    between atoms: C_28  and  C_31
REMARK                            x       y       z     vdW  Elec       q    Type
REMARK                         _______ _______ _______ _____ _____    ______ ____
ROOT
ATOM      1  N   UNL     1      -1.574   1.226  -2.927  0.00  0.00    -0.216 N 
ATOM      2  H   UNL     1      -2.251   0.858  -3.517  0.00  0.00    +0.174 HD
ENDROOT
BRANCH   1   3
ATOM      3  C   UNL     1      -1.823   2.409  -2.232  0.00  0.00    +0.048 A 
ATOM      4  C   UNL     1      -1.524   2.494  -0.876  0.00  0.00    +0.025 A 
ATOM      5  C   UNL     1      -1.765   3.663  -0.188  0.00  0.00    +0.013 A 
ATOM      6  C   UNL     1      -2.320   4.760  -0.851  0.00  0.00    +0.019 A 
ATOM      7  C   UNL     1      -2.624   4.670  -2.210  0.00  0.00    +0.013 A 
ATOM      8  C   UNL     1      -2.376   3.500  -2.894  0.00  0.00    +0.025 A 
BRANCH   6   9
ATOM      9  C   UNL     1      -2.584   6.014  -0.114  0.00  0.00    +0.164 A 
ATOM     10  N   UNL     1      -2.761   7.209  -0.637  0.00  0.00    -0.129 NA
ATOM     11  N   UNL     1      -2.978   8.066   0.299  0.00  0.00    -0.134 NA
ATOM     12  C   UNL     1      -2.946   7.474   1.460  0.00  0.00    +0.134 A 
ATOM     13  N   UNL     1      -2.685   6.157   1.240  0.00  0.00    -0.311 N 
ATOM     14  C   UNL     1      -2.534   5.117   2.257  0.00  0.00    +0.125 C 
ATOM     15  C   UNL     1      -3.357   5.493   3.492  0.00  0.00    +0.022 C 
ATOM     16  C   UNL     1      -2.506   6.332   4.443  0.00  0.00    +0.002 C 
ATOM     17  C   UNL     1      -2.070   7.630   3.769  0.00  0.00    +0.008 C 
ATOM     18  C   UNL     1      -3.165   8.106   2.811  0.00  0.00    +0.076 C 
ENDBRANCH   6   9
ENDBRANCH   1   3
BRANCH   1  19
ATOM     19  S   UNL     1      -0.123   0.449  -2.746  0.00  0.00    +0.073 S 
ATOM     20  O   UNL     1      -0.132  -0.646  -3.652  0.00  0.00    -0.150 OA
ATOM     21  O   UNL     1       0.076   0.280  -1.349  0.00  0.00    -0.150 OA
BRANCH  19  28
ATOM     22  C   UNL     1       0.160   1.397  -5.604  0.00  0.00    +0.046 C 
ATOM     23  C   UNL     1       1.180   1.930  -4.632  0.00  0.00    -0.024 A 
ATOM     24  C   UNL     1       2.162   2.801  -5.068  0.00  0.00    +0.005 A 
ATOM     25  C   UNL     1       3.097   3.291  -4.177  0.00  0.00    +0.004 A 
ATOM     26  C   UNL     1       3.052   2.909  -2.848  0.00  0.00    -0.040 A 
ATOM     27  C   UNL     1       2.071   2.038  -2.412  0.00  0.00    +0.033 A 
ATOM     28  C   UNL     1       1.132   1.553  -3.303  0.00  0.00    +0.112 A 
BRANCH  26  29
ATOM     29  C   UNL     1       4.072   3.443  -1.876  0.00  0.00    -0.013 C 
ATOM     30  C   UNL     1       5.036   4.378  -2.610  0.00  0.00    +0.015 C 
ATOM     31  C   UNL     1       3.361   4.215  -0.763  0.00  0.00    +0.015 C 
ATOM     32  C   UNL     1       4.856   2.278  -1.268  0.00  0.00    +0.015 C 
ENDBRANCH  26  29
ENDBRANCH  19  28
ENDBRANCH   1  19
TORSDOF 5
