REMARK  Name = ZINC39096537
REMARK  3 active torsions:
REMARK  status: ('A' for Active; 'I' for Inactive)
REMARK    1  A    between atoms: C_1  and  C_2
REMARK    2  A    between atoms: C_3  and  N_12
REMARK    3  A    between atoms: C_5  and  O_10
REMARK                            x       y       z     vdW  Elec       q    Type
REMARK                         _______ _______ _______ _____ _____    ______ ____
ROOT
ATOM      1  C   UNL     1      -0.018   1.503   0.010  0.00  0.00    +0.049 C 
ATOM      2  C   UNL     1       0.002  -0.004   0.002  0.00  0.00    +0.022 A 
ATOM      3  C   UNL     1       0.006  -0.688  -1.200  0.00  0.00    +0.171 A 
ATOM      4  C   UNL     1       0.024  -2.071  -1.213  0.00  0.00    +0.199 A 
ATOM      5  C   UNL     1       0.040  -2.776  -0.017  0.00  0.00    +0.205 A 
ATOM      6  C   UNL     1       0.036  -2.089   1.191  0.00  0.00    +0.258 A 
ATOM      7  C   UNL     1       0.023  -0.701   1.197  0.00  0.00    +0.179 A 
ATOM      8  F   UNL     1       0.025  -0.030   2.370  0.00  0.00    -0.201 F 
ATOM      9  O   UNL     1       0.050  -2.775   2.366  0.00  0.00    -0.281 OA
ATOM     10  F   UNL     1       0.028  -2.736  -2.389  0.00  0.00    -0.199 F 
ENDROOT
BRANCH   3  11
ATOM     11  N   UNL     1      -0.011   0.062  -2.476  0.00  0.00    +0.060 N 
ATOM     12  O   UNL     1       1.029   0.383  -3.003  0.00  0.00    -0.126 OA
ATOM     13  O   UNL     1      -1.065   0.354  -2.992  0.00  0.00    -0.126 OA
ENDBRANCH   3  11
BRANCH   5  14
ATOM     14  O   UNL     1       0.058  -4.136  -0.028  0.00  0.00    -0.501 OA
ATOM     15  H   UNL     1       0.946  -4.518  -0.035  0.00  0.00    +0.292 HD
ENDBRANCH   5  14
TORSDOF 2
