REMARK  Name = ZINC36083237
REMARK  12 active torsions:
REMARK  status: ('A' for Active; 'I' for Inactive)
REMARK    1  A    between atoms: C_1  and  C_2
REMARK    2  A    between atoms: C_2  and  C_3
REMARK    3  A    between atoms: N_5  and  C_6
REMARK    4  A    between atoms: N_5  and  C_13
REMARK    5  A    between atoms: C_6  and  C_7
REMARK    6  A    between atoms: C_7  and  N_8
REMARK    7  A    between atoms: N_8  and  C_9
REMARK    8  A    between atoms: N_8  and  C_11
REMARK    9  A    between atoms: C_9  and  C_10
REMARK   10  A    between atoms: C_11  and  C_12
REMARK   11  A    between atoms: C_13  and  C_14
REMARK   12  A    between atoms: C_26  and  C_29
REMARK                            x       y       z     vdW  Elec       q    Type
REMARK                         _______ _______ _______ _____ _____    ______ ____
ROOT
ATOM      1  C   UNL     1      -1.557  -3.476  -1.882  0.00  0.00    +0.233 C 
ATOM      2  O   UNL     1      -1.863  -2.889  -2.898  0.00  0.00    -0.274 OA
ATOM      3  N   UNL     1      -2.379  -4.415  -1.372  0.00  0.00    -0.299 N 
ATOM      4  C   UNL     1      -3.624  -4.691  -2.088  0.00  0.00    +0.109 C 
ATOM      5  C   UNL     1      -3.404  -5.912  -2.959  0.00  0.00    +0.038 C 
ATOM      6  C   UNL     1      -3.675  -7.191  -2.163  0.00  0.00    +0.108 C 
ATOM      7  N   UNL     1      -3.145  -7.126  -0.793  0.00  0.00    -0.312 N 
ATOM      8  C   UNL     1      -1.834  -6.589  -0.470  0.00  0.00    +0.125 C 
ATOM      9  C   UNL     1      -1.972  -5.074  -0.179  0.00  0.00    +0.126 C 
ATOM     10  C   UNL     1      -3.937  -7.604   0.246  0.00  0.00    +0.144 A 
ATOM     11  C   UNL     1      -5.089  -8.340  -0.036  0.00  0.00    +0.047 A 
ATOM     12  C   UNL     1      -5.845  -8.794   1.029  0.00  0.00    +0.033 A 
ATOM     13  C   UNL     1      -5.408  -8.487   2.323  0.00  0.00    +0.093 A 
ATOM     14  N   UNL     1      -4.299  -7.780   2.493  0.00  0.00    -0.147 NA
ATOM     15  N   UNL     1      -3.596  -7.365   1.504  0.00  0.00    -0.134 NA
ENDROOT
BRANCH  13  16
ATOM     16  C   UNL     1      -6.184  -8.950   3.499  0.00  0.00    +0.002 A 
ATOM     17  C   UNL     1      -7.347  -9.697   3.320  0.00  0.00    +0.013 A 
ATOM     18  C   UNL     1      -8.065 -10.125   4.417  0.00  0.00    +0.039 A 
ATOM     19  C   UNL     1      -7.632  -9.814   5.696  0.00  0.00    +0.123 A 
ATOM     20  C   UNL     1      -6.476  -9.071   5.879  0.00  0.00    +0.039 A 
ATOM     21  C   UNL     1      -5.749  -8.644   4.788  0.00  0.00    +0.013 A 
ATOM     22  F   UNL     1      -8.338 -10.235   6.768  0.00  0.00    -0.205 F 
ENDBRANCH  13  16
BRANCH   1  23
ATOM     23  C   UNL     1      -0.258  -3.156  -1.189  0.00  0.00    +0.203 C 
BRANCH  23  26
ATOM     24  C   UNL     1       0.233  -0.812  -1.642  0.00  0.00    +0.216 C 
ATOM     25  O   UNL     1       0.817   0.053  -2.258  0.00  0.00    -0.276 OA
ATOM     26  N   UNL     1       0.448  -2.110  -1.934  0.00  0.00    -0.294 N 
BRANCH  24  28
ATOM     27  C   UNL     1      -0.794   1.087  -0.422  0.00  0.00    +0.013 C 
ATOM     28  C   UNL     1      -0.735  -0.436  -0.549  0.00  0.00    +0.092 C 
ENDBRANCH  24  28
BRANCH  26  29
ATOM     29  C   UNL     1       1.388  -2.476  -2.996  0.00  0.00    +0.090 C 
BRANCH  29  30
ATOM     30  C   UNL     1       2.789  -2.641  -2.403  0.00  0.00    -0.060 C 
BRANCH  30  31
ATOM     31  N   UNL     1       3.732  -3.008  -3.469  0.00  0.00    +0.380 N 
ATOM     32  H   UNL     1       3.397  -3.831  -3.945  0.00  0.00    -0.082 HD
BRANCH  31  33
ATOM     33  C   UNL     1       3.843  -1.899  -4.426  0.00  0.00    -0.082 C 
ATOM     34  C   UNL     1       4.711  -2.333  -5.609  0.00  0.00    -0.017 C 
ENDBRANCH  31  33
BRANCH  31  35
ATOM     35  C   UNL     1       5.050  -3.284  -2.882  0.00  0.00    -0.082 C 
ATOM     36  C   UNL     1       4.959  -4.516  -1.980  0.00  0.00    -0.017 C 
ENDBRANCH  31  35
ENDBRANCH  30  31
ENDBRANCH  29  30
ENDBRANCH  26  29
ENDBRANCH  23  26
ENDBRANCH   1  23
TORSDOF 9
