REMARK  Name = ZINC21868939
REMARK  7 active torsions:
REMARK  status: ('A' for Active; 'I' for Inactive)
REMARK    1  A    between atoms: C_1  and  C_2
REMARK    2  A    between atoms: C_8  and  N_33
REMARK    3  A    between atoms: C_12  and  C_22
REMARK    4  A    between atoms: C_12  and  C_23
REMARK    5  A    between atoms: N_13  and  C_16
REMARK    6  A    between atoms: C_16  and  C_17
REMARK    7  A    between atoms: N_25  and  C_26
REMARK                            x       y       z     vdW  Elec       q    Type
REMARK                         _______ _______ _______ _____ _____    ______ ____
ROOT
ATOM      1  C   UNL     1       5.601  -1.071  -0.506  0.00  0.00    +0.044 C 
ATOM      2  C   UNL     1       4.114  -0.841  -0.431  0.00  0.00    -0.050 A 
ATOM      3  C   UNL     1       3.272  -1.933  -0.290  0.00  0.00    +0.005 A 
ATOM      4  C   UNL     1       1.897  -1.802  -0.217  0.00  0.00    +0.027 A 
ATOM      5  C   UNL     1       1.377  -0.508  -0.291  0.00  0.00    +0.052 A 
ATOM      6  C   UNL     1       2.247   0.606  -0.431  0.00  0.00    +0.025 A 
ATOM      7  C   UNL     1       3.635   0.443  -0.505  0.00  0.00    +0.015 A 
ATOM      8  C   UNL     1       1.406   1.792  -0.470  0.00  0.00    +0.084 A 
ATOM      9  C   UNL     1       0.124   1.359  -0.353  0.00  0.00    +0.130 A 
ATOM     10  N   UNL     1       0.106  -0.039  -0.255  0.00  0.00    -0.332 N 
ATOM     11  C   UNL     1      -1.161  -0.776  -0.148  0.00  0.00    +0.157 C 
ATOM     12  C   UNL     1      -2.192   0.098   0.564  0.00  0.00    +0.129 C 
ATOM     13  N   UNL     1      -2.245   1.453   0.029  0.00  0.00    -0.273 N 
ATOM     14  C   UNL     1      -1.124   2.131  -0.309  0.00  0.00    +0.266 C 
ATOM     15  O   UNL     1      -1.149   3.321  -0.564  0.00  0.00    -0.268 OA
ATOM     16  C   UNL     1      -1.838   0.169   2.051  0.00  0.00    +0.043 C 
ENDROOT
BRANCH   8  17
ATOM     17  N   UNL     1       1.832   3.115  -0.600  0.00  0.00    -0.321 N 
ATOM     18  C   UNL     1       1.570   3.935  -1.661  0.00  0.00    +0.091 A 
ATOM     19  C   UNL     1       2.144   5.131  -1.420  0.00  0.00    +0.019 A 
ATOM     20  C   UNL     1       2.793   5.046  -0.171  0.00  0.00    +0.019 A 
ATOM     21  C   UNL     1       2.586   3.803   0.308  0.00  0.00    +0.091 A 
ENDBRANCH   8  17
BRANCH  12  22
ATOM     22  C   UNL     1      -3.552  -0.536   0.418  0.00  0.00    +0.238 C 
ATOM     23  O   UNL     1      -4.066  -1.092   1.365  0.00  0.00    -0.273 OA
ATOM     24  N   UNL     1      -4.196  -0.485  -0.765  0.00  0.00    -0.311 N 
ATOM     25  H   UNL     1      -3.695  -0.056  -1.645  0.00  0.00    +0.149 HD
BRANCH  24  26
ATOM     26  C   UNL     1      -5.562  -1.001  -0.877  0.00  0.00    +0.073 C 
ATOM     27  C   UNL     1      -5.505  -2.532  -1.062  0.00  0.00    +0.022 C 
ATOM     28  C   UNL     1      -6.838  -3.111  -0.672  0.00  0.00    +0.002 C 
ATOM     29  C   UNL     1      -7.779  -3.288  -1.879  0.00  0.00    +0.000 C 
ATOM     30  C   UNL     1      -7.735  -2.094  -2.852  0.00  0.00    +0.000 C 
ATOM     31  C   UNL     1      -7.699  -0.770  -2.137  0.00  0.00    +0.002 C 
ATOM     32  C   UNL     1      -6.228  -0.334  -1.986  0.00  0.00    +0.022 C 
ENDBRANCH  24  26
ENDBRANCH  12  22
BRANCH  13  33
ATOM     33  C   UNL     1      -3.548   2.098  -0.149  0.00  0.00    +0.183 C 
BRANCH  33  34
ATOM     34  C   UNL     1      -3.865   2.932   1.066  0.00  0.00    +0.122 A 
ATOM     35  C   UNL     1      -3.542   4.226   1.238  0.00  0.00    +0.046 A 
ATOM     36  C   UNL     1      -4.029   4.604   2.511  0.00  0.00    +0.041 A 
ATOM     37  C   UNL     1      -4.621   3.518   3.040  0.00  0.00    +0.195 A 
ATOM     38  O   UNL     1      -4.523   2.509   2.158  0.00  0.00    -0.466 OA
ENDBRANCH  33  34
ENDBRANCH  13  33
TORSDOF 5
