REMARK  Name = ZINC40317676
REMARK  12 active torsions:
REMARK  status: ('A' for Active; 'I' for Inactive)
REMARK    1  A    between atoms: C_1  and  C_2
REMARK    2  A    between atoms: C_4  and  C_30
REMARK    3  A    between atoms: C_6  and  O_8
REMARK    4  A    between atoms: O_8  and  C_9
REMARK    5  A    between atoms: C_9  and  C_10
REMARK    6  A    between atoms: C_10  and  C_12
REMARK    7  A    between atoms: C_10  and  O_29
REMARK    8  A    between atoms: C_12  and  N_13
REMARK    9  A    between atoms: N_13  and  C_14
REMARK   10  A    between atoms: N_13  and  C_23
REMARK   11  A    between atoms: C_14  and  C_15
REMARK   12  A    between atoms: C_23  and  C_24
REMARK                            x       y       z     vdW  Elec       q    Type
REMARK                         _______ _______ _______ _____ _____    ______ ____
ROOT
ATOM      1  N   UNL     1      -0.309  -3.201   7.466  0.00  0.00    +0.389 N 
ATOM      2  H   UNL     1      -0.917  -4.005   7.513  0.00  0.00    -0.081 HD
ENDROOT
BRANCH   1   3
ATOM      3  C   UNL     1      -0.470  -2.542   6.163  0.00  0.00    -0.043 C 
BRANCH   3   4
ATOM      4  C   UNL     1      -0.297  -3.572   5.045  0.00  0.00    +0.135 C 
BRANCH   4   5
ATOM      5  O   UNL     1       1.063  -4.009   5.006  0.00  0.00    -0.390 OA
ATOM      6  H   UNL     1       1.699  -3.300   4.842  0.00  0.00    +0.210 HD
ENDBRANCH   4   5
BRANCH   4   7
ATOM      7  C   UNL     1      -0.666  -2.935   3.703  0.00  0.00    +0.258 C 
BRANCH   7   8
ATOM      8  O   UNL     1      -0.617  -3.927   2.676  0.00  0.00    -0.489 OA
BRANCH   8  14
ATOM      9  C   UNL     1      -1.935  -0.357  -0.380  0.00  0.00    +0.044 C 
ATOM     10  C   UNL     1      -1.567  -1.794  -0.114  0.00  0.00    -0.047 A 
ATOM     11  C   UNL     1      -1.539  -2.704  -1.155  0.00  0.00    +0.007 A 
ATOM     12  C   UNL     1      -1.202  -4.023  -0.914  0.00  0.00    -0.047 A 
ATOM     13  C   UNL     1      -0.893  -4.435   0.368  0.00  0.00    +0.049 A 
ATOM     14  C   UNL     1      -0.920  -3.524   1.414  0.00  0.00    +0.121 A 
ATOM     15  C   UNL     1      -1.254  -2.200   1.169  0.00  0.00    +0.049 A 
ATOM     16  C   UNL     1      -1.171  -5.011  -2.050  0.00  0.00    +0.044 C 
ENDBRANCH   8  14
ENDBRANCH   7   8
ENDBRANCH   4   7
ENDBRANCH   3   4
ENDBRANCH   1   3
BRANCH   1  17
ATOM     17  C   UNL     1      -0.658  -2.260   8.538  0.00  0.00    -0.041 C 
BRANCH  17  18
ATOM     18  C   UNL     1      -2.123  -1.919   8.450  0.00  0.00    -0.046 A 
ATOM     19  C   UNL     1      -2.521  -0.713   7.902  0.00  0.00    +0.004 A 
ATOM     20  C   UNL     1      -3.864  -0.400   7.822  0.00  0.00    +0.020 A 
ATOM     21  C   UNL     1      -4.813  -1.294   8.288  0.00  0.00    +0.042 A 
ATOM     22  C   UNL     1      -4.415  -2.500   8.835  0.00  0.00    +0.040 A 
ATOM     23  C   UNL     1      -3.070  -2.815   8.912  0.00  0.00    +0.044 A 
ATOM     24 CL   UNL     1      -2.571  -4.332   9.593  0.00  0.00    -0.083 Cl
ATOM     25 CL   UNL     1      -6.500  -0.900   8.187  0.00  0.00    -0.083 Cl
ENDBRANCH  17  18
ENDBRANCH   1  17
BRANCH   1  26
ATOM     26  C   UNL     1       1.086  -3.632   7.627  0.00  0.00    -0.003 C 
BRANCH  26  27
ATOM     27  C   UNL     1       1.239  -4.360   8.938  0.00  0.00    +0.089 A 
ATOM     28  C   UNL     1       1.160  -5.691   9.112  0.00  0.00    +0.042 A 
ATOM     29  C   UNL     1       1.362  -5.937  10.489  0.00  0.00    +0.041 A 
ATOM     30  C   UNL     1       1.553  -4.741  11.075  0.00  0.00    +0.195 A 
ATOM     31  O   UNL     1       1.483  -3.790  10.129  0.00  0.00    -0.470 OA
ENDBRANCH  26  27
ENDBRANCH   1  26
TORSDOF 10
