REMARK  Name = ZINC12493452
REMARK  11 active torsions:
REMARK  status: ('A' for Active; 'I' for Inactive)
REMARK    1  A    between atoms: C_1  and  C_2
REMARK    2  A    between atoms: C_7  and  C_17
REMARK    3  A    between atoms: C_19  and  C_33
REMARK    4  A    between atoms: C_20  and  N_32
REMARK    5  A    between atoms: C_22  and  C_31
REMARK    6  A    between atoms: C_23  and  C_24
REMARK    7  A    between atoms: C_24  and  O_26
REMARK    8  A    between atoms: O_26  and  C_27
REMARK    9  A    between atoms: C_27  and  C_28
REMARK   10  A    between atoms: C_27  and  C_29
REMARK   11  A    between atoms: C_27  and  C_30
REMARK                            x       y       z     vdW  Elec       q    Type
REMARK                         _______ _______ _______ _____ _____    ______ ____
ROOT
ATOM      1  C   UNL     1       6.116  -0.321  -0.818  0.00  0.00    +0.108 C 
ATOM      2  C   UNL     1       6.440  -1.530   0.017  0.00  0.00    +0.098 C 
ATOM      3  C   UNL     1       6.332  -2.778  -0.499  0.00  0.00    +0.198 C 
ATOM      4  O   UNL     1       5.933  -2.988  -1.766  0.00  0.00    -0.445 OA
ATOM      5  C   UNL     1       5.996  -1.983  -2.651  0.00  0.00    +0.115 C 
ATOM      6  C   UNL     1       6.083  -0.702  -2.273  0.00  0.00    +0.087 C 
ATOM      7  C   UNL     1       5.969  -2.307  -4.123  0.00  0.00    +0.087 C 
ENDROOT
BRANCH   1  14
ATOM      8  C   UNL     1      -1.329   1.749   0.953  0.00  0.00    +0.044 C 
ATOM      9  C   UNL     1      -0.007   1.159   0.534  0.00  0.00    -0.048 A 
ATOM     10  C   UNL     1       0.021  -0.086  -0.090  0.00  0.00    +0.004 A 
ATOM     11  C   UNL     1       1.199  -0.642  -0.486  0.00  0.00    +0.010 A 
ATOM     12  C   UNL     1       2.402   0.046  -0.263  0.00  0.00    -0.001 A 
ATOM     13  C   UNL     1       3.641  -0.498  -0.659  0.00  0.00    +0.017 A 
ATOM     14  C   UNL     1       4.770   0.222  -0.412  0.00  0.00    +0.004 A 
ATOM     15  C   UNL     1       4.679   1.471   0.221  0.00  0.00    +0.103 A 
ATOM     16  C   UNL     1       2.376   1.312   0.372  0.00  0.00    +0.048 A 
ATOM     17  C   UNL     1       1.140   1.853   0.766  0.00  0.00    +0.029 A 
ATOM     18  N   UNL     1       5.837   2.192   0.466  0.00  0.00    -0.316 N 
ATOM     19  C   UNL     1       6.151   2.213   1.900  0.00  0.00    +0.106 C 
ATOM     20  C   UNL     1       7.506   2.891   2.117  0.00  0.00    +0.019 C 
ATOM     21  C   UNL     1       7.452   4.318   1.567  0.00  0.00    +0.003 C 
ATOM     22  C   UNL     1       7.076   4.271   0.083  0.00  0.00    +0.019 C 
ATOM     23  C   UNL     1       5.733   3.554  -0.075  0.00  0.00    +0.106 C 
ATOM     24  N   UNL     1       3.516   2.042   0.623  0.00  0.00    -0.343 N 
ATOM     25  H   UNL     1       3.488   2.959   1.084  0.00  0.00    +0.167 HD
ENDBRANCH   1  14
BRANCH   3  26
ATOM     26  N   UNL     1       6.639  -3.857   0.292  0.00  0.00    -0.328 N 
ATOM     27  H   UNL     1       6.928  -3.720   1.207  0.00  0.00    +0.145 HD
ATOM     28  H   UNL     1       6.566  -4.756  -0.065  0.00  0.00    +0.145 HD
ENDBRANCH   3  26
BRANCH   6  29
ATOM     29  C   UNL     1       6.146   0.312  -3.260  0.00  0.00    +0.340 C 
ATOM     30  O   UNL     1       6.120   0.016  -4.440  0.00  0.00    -0.245 OA
BRANCH  29  31
ATOM     31  O   UNL     1       6.235   1.607  -2.892  0.00  0.00    -0.456 OA
BRANCH  31  32
ATOM     32  C   UNL     1       6.294   2.577  -3.940  0.00  0.00    +0.106 C 
ATOM     33  C   UNL     1       5.031   2.479  -4.798  0.00  0.00    +0.055 C 
ATOM     34  C   UNL     1       6.391   3.978  -3.333  0.00  0.00    +0.055 C 
ATOM     35  C   UNL     1       7.524   2.312  -4.810  0.00  0.00    +0.055 C 
ENDBRANCH  31  32
ENDBRANCH  29  31
ENDBRANCH   6  29
BRANCH   2  36
ATOM     36  C   UNL     1       6.868  -1.360   1.373  0.00  0.00    +0.101 C 
ATOM     37  N   UNL     1       7.208  -1.225   2.449  0.00  0.00    -0.191 NA
ENDBRANCH   2  36
TORSDOF 6
