REMARK  Name = ZINC01320154
REMARK  4 active torsions:
REMARK  status: ('A' for Active; 'I' for Inactive)
REMARK    1  A    between atoms: C_7  and  C_11
REMARK    2  A    between atoms: C_11  and  C_12
REMARK    3  A    between atoms: C_12  and  N_13
REMARK    4  A    between atoms: C_33  and  C_35
REMARK                            x       y       z     vdW  Elec       q    Type
REMARK                         _______ _______ _______ _____ _____    ______ ____
ROOT
ATOM      1  N   UNL     1      -0.659  -4.749  -1.460  0.00  0.00    -0.291 N 
ATOM      2  C   UNL     1      -0.092  -6.082  -1.576  0.00  0.00    +0.203 C 
ATOM      3  C   UNL     1      -1.147  -7.139  -1.629  0.00  0.00    +0.234 C 
ATOM      4  O   UNL     1      -0.788  -8.291  -1.749  0.00  0.00    -0.274 OA
ATOM      5  N   UNL     1      -2.458  -6.900  -1.552  0.00  0.00    -0.276 N 
ATOM      6  C   UNL     1      -3.015  -5.568  -1.324  0.00  0.00    +0.167 C 
ATOM      7  C   UNL     1      -1.963  -4.507  -1.343  0.00  0.00    +0.237 C 
ATOM      8  O   UNL     1      -2.320  -3.351  -1.252  0.00  0.00    -0.274 OA
ATOM      9  C   UNL     1      -3.737  -5.549   0.031  0.00  0.00    +0.069 C 
ATOM     10  C   UNL     1      -4.593  -6.785   0.143  0.00  0.00    -0.015 A 
ATOM     11  C   UNL     1      -5.697  -7.034   1.048  0.00  0.00    +0.003 A 
ATOM     12  C   UNL     1      -6.295  -6.262   2.048  0.00  0.00    +0.010 A 
ATOM     13  C   UNL     1      -7.348  -6.829   2.723  0.00  0.00    +0.001 A 
ATOM     14  C   UNL     1      -7.805  -8.105   2.435  0.00  0.00    +0.002 A 
ATOM     15  C   UNL     1      -7.231  -8.891   1.451  0.00  0.00    +0.026 A 
ATOM     16  C   UNL     1      -6.160  -8.341   0.749  0.00  0.00    +0.047 A 
ATOM     17  N   UNL     1      -5.380  -8.828  -0.261  0.00  0.00    -0.356 N 
ATOM     18  H   UNL     1      -5.473  -9.705  -0.663  0.00  0.00    +0.166 HD
ATOM     19  C   UNL     1      -4.449  -7.890  -0.619  0.00  0.00    +0.046 A 
ATOM     20  C   UNL     1      -3.402  -8.028  -1.702  0.00  0.00    +0.154 C 
ENDROOT
BRANCH  20  21
ATOM     21  C   UNL     1      -4.058  -7.970  -3.057  0.00  0.00    -0.020 A 
ATOM     22  C   UNL     1      -4.891  -6.914  -3.378  0.00  0.00    +0.006 A 
ATOM     23  C   UNL     1      -5.493  -6.861  -4.621  0.00  0.00    +0.001 A 
ATOM     24  C   UNL     1      -5.262  -7.863  -5.545  0.00  0.00    +0.015 A 
ATOM     25  C   UNL     1      -4.428  -8.919  -5.225  0.00  0.00    +0.018 A 
ATOM     26  C   UNL     1      -3.822  -8.970  -3.982  0.00  0.00    +0.021 A 
ATOM     27 BR   UNL     1      -4.112 -10.291  -6.487  0.00  0.00    -0.050 Br
ENDBRANCH  20  21
BRANCH   1  28
ATOM     28  C   UNL     1       0.257  -3.606  -1.466  0.00  0.00    +0.113 C 
BRANCH  28  29
ATOM     29  C   UNL     1       0.690  -3.291  -0.033  0.00  0.00    +0.056 C 
BRANCH  29  36
ATOM     30  C   UNL     1       0.029   1.350  -0.013  0.00  0.00    +0.001 A 
ATOM     31  C   UNL     1       1.218   2.065  -0.022  0.00  0.00    +0.002 A 
ATOM     32  C   UNL     1       2.431   1.412  -0.036  0.00  0.00    +0.026 A 
ATOM     33  C   UNL     1       2.467   0.021  -0.041  0.00  0.00    +0.047 A 
ATOM     34  C   UNL     1       1.259  -0.699  -0.031  0.00  0.00    +0.003 A 
ATOM     35  C   UNL     1       0.041  -0.017  -0.017  0.00  0.00    +0.010 A 
ATOM     36  C   UNL     1       1.632  -2.115  -0.039  0.00  0.00    -0.021 A 
ATOM     37  C   UNL     1       2.974  -2.168  -0.053  0.00  0.00    +0.087 A 
ATOM     38  N   UNL     1       3.490  -0.900  -0.054  0.00  0.00    -0.360 N 
ATOM     39  H   UNL     1       4.435  -0.684  -0.063  0.00  0.00    +0.165 HD
ENDBRANCH  29  36
ENDBRANCH  28  29
ENDBRANCH   1  28
TORSDOF 4
