REMARK  Name = ZINC05687221
REMARK  3 active torsions:
REMARK  status: ('A' for Active; 'I' for Inactive)
REMARK    1  A    between atoms: C_1  and  C_2
REMARK    2  A    between atoms: C_5  and  N_8
REMARK    3  A    between atoms: N_8  and  N_9
REMARK                            x       y       z     vdW  Elec       q    Type
REMARK                         _______ _______ _______ _____ _____    ______ ____
ROOT
ATOM      1  N   UNL     1       0.072  -4.817   1.093  0.00  0.00    -0.172 NA
ATOM      2  C   UNL     1      -0.010  -6.136   1.088  0.00  0.00    +0.207 C 
ATOM      3  C   UNL     1      -0.004  -6.903  -0.168  0.00  0.00    +0.294 C 
ATOM      4  O   UNL     1       0.088  -6.275  -1.360  0.00  0.00    -0.266 OA
ATOM      5  N   UNL     1      -0.089  -8.219  -0.102  0.00  0.00    -0.152 NA
ATOM      6  C   UNL     1      -0.180  -8.865   1.057  0.00  0.00    +0.164 C 
ATOM      7  S   UNL     1      -0.285 -10.574   1.025  0.00  0.00    -0.016 S 
ATOM      8  N   UNL     1      -0.193  -8.252   2.250  0.00  0.00    -0.261 N 
ATOM      9  C   UNL     1      -0.107  -6.908   2.344  0.00  0.00    +0.275 C 
ATOM     10  O   UNL     1      -0.113  -6.351   3.426  0.00  0.00    -0.268 OA
ATOM     11  H   UNL     1      -0.261  -8.783   3.059  0.00  0.00    +0.157 HD
ENDROOT
BRANCH   1  12
ATOM     12  N   UNL     1       0.301  -4.181  -0.006  0.00  0.00    -0.237 N 
ATOM     13  H   UNL     1       0.493  -4.673  -0.820  0.00  0.00    +0.174 HD
BRANCH  12  18
ATOM     14  C   UNL     1       0.180   1.486  -0.080  0.00  0.00    +0.044 C 
ATOM     15  C   UNL     1       0.212  -0.020  -0.060  0.00  0.00    -0.050 A 
ATOM     16  C   UNL     1       0.487  -0.719  -1.221  0.00  0.00    +0.005 A 
ATOM     17  C   UNL     1       0.517  -2.100  -1.207  0.00  0.00    +0.025 A 
ATOM     18  C   UNL     1       0.271  -2.787  -0.024  0.00  0.00    +0.048 A 
ATOM     19  C   UNL     1      -0.005  -2.080   1.141  0.00  0.00    +0.025 A 
ATOM     20  C   UNL     1      -0.028  -0.700   1.120  0.00  0.00    +0.005 A 
ENDBRANCH  12  18
ENDBRANCH   1  12
TORSDOF 2
