REMARK  Name = ZINC36306442
REMARK  14 active torsions:
REMARK  status: ('A' for Active; 'I' for Inactive)
REMARK    1  A    between atoms: C_1  and  C_2
REMARK    2  A    between atoms: C_6  and  O_8
REMARK    3  A    between atoms: O_8  and  C_9
REMARK    4  A    between atoms: C_10  and  C_21
REMARK    5  A    between atoms: C_11  and  C_15
REMARK    6  A    between atoms: N_13  and  C_14
REMARK    7  A    between atoms: C_21  and  N_22
REMARK    8  A    between atoms: N_22  and  C_23
REMARK    9  A    between atoms: N_22  and  C_31
REMARK   10  A    between atoms: C_23  and  C_24
REMARK   11  A    between atoms: C_24  and  C_26
REMARK   12  A    between atoms: C_24  and  O_30
REMARK   13  A    between atoms: C_26  and  C_27
REMARK   14  A    between atoms: C_27  and  C_28
REMARK                            x       y       z     vdW  Elec       q    Type
REMARK                         _______ _______ _______ _____ _____    ______ ____
ROOT
ATOM      1  C   UNL     1      -0.096  -3.368   2.663  0.00  0.00    +0.221 A 
ATOM      2  C   UNL     1       0.081  -4.215   3.709  0.00  0.00    +0.025 A 
ATOM      3  C   UNL     1       0.673  -5.392   3.215  0.00  0.00    +0.098 A 
ATOM      4  N   UNL     1       0.843  -5.251   1.918  0.00  0.00    -0.168 NA
ATOM      5  N   UNL     1       0.362  -3.990   1.546  0.00  0.00    -0.235 N 
ATOM      6  C   UNL     1       0.357  -3.436   0.190  0.00  0.00    +0.176 C 
ENDROOT
BRANCH   3   7
ATOM      7  C   UNL     1       1.043  -6.585   4.017  0.00  0.00    +0.002 A 
ATOM      8  C   UNL     1       0.791  -7.864   3.525  0.00  0.00    +0.010 A 
ATOM      9  C   UNL     1       1.136  -8.970   4.275  0.00  0.00    +0.001 A 
ATOM     10  C   UNL     1       1.731  -8.810   5.514  0.00  0.00    +0.000 A 
ATOM     11  C   UNL     1       1.983  -7.543   6.007  0.00  0.00    +0.001 A 
ATOM     12  C   UNL     1       1.648  -6.430   5.263  0.00  0.00    +0.010 A 
ENDBRANCH   3   7
BRANCH   1  13
ATOM     13  O   UNL     1      -0.639  -2.126   2.723  0.00  0.00    -0.438 OA
BRANCH  13  19
ATOM     14  C   UNL     1       0.018   2.709   2.843  0.00  0.00    +0.044 C 
ATOM     15  C   UNL     1       0.562   1.304   2.889  0.00  0.00    -0.047 A 
ATOM     16  C   UNL     1       1.921   1.094   3.037  0.00  0.00    +0.003 A 
ATOM     17  C   UNL     1       2.423  -0.194   3.080  0.00  0.00    +0.004 A 
ATOM     18  C   UNL     1       1.567  -1.274   2.975  0.00  0.00    +0.046 A 
ATOM     19  C   UNL     1       0.204  -1.065   2.826  0.00  0.00    +0.131 A 
ATOM     20  C   UNL     1      -0.298   0.228   2.789  0.00  0.00    +0.049 A 
ENDBRANCH  13  19
ENDBRANCH   1  13
BRANCH   2  21
ATOM     21  C   UNL     1      -0.291  -3.943   5.144  0.00  0.00    -0.035 C 
BRANCH  21  22
ATOM     22  N   UNL     1      -1.708  -4.268   5.354  0.00  0.00    +0.386 N 
ATOM     23  H   UNL     1      -2.271  -3.760   4.689  0.00  0.00    -0.081 HD
BRANCH  22  24
ATOM     24  C   UNL     1      -1.912  -5.711   5.166  0.00  0.00    -0.068 C 
ATOM     25  C   UNL     1      -2.655  -6.161   3.906  0.00  0.00    -0.017 C 
ATOM     26  C   UNL     1      -3.344  -6.241   5.271  0.00  0.00    -0.017 C 
ENDBRANCH  22  24
BRANCH  22  27
ATOM     27  C   UNL     1      -2.101  -3.892   6.718  0.00  0.00    -0.046 C 
BRANCH  27  28
ATOM     28  C   UNL     1      -1.173  -4.578   7.723  0.00  0.00    +0.098 C 
BRANCH  28  29
ATOM     29  O   UNL     1      -1.380  -5.991   7.674  0.00  0.00    -0.394 OA
ATOM     30  H   UNL     1      -2.283  -6.264   7.886  0.00  0.00    +0.210 HD
ENDBRANCH  28  29
BRANCH  28  31
ATOM     31  C   UNL     1      -1.481  -4.066   9.132  0.00  0.00    +0.033 C 
BRANCH  31  32
ATOM     32  C   UNL     1      -0.473  -4.657  10.120  0.00  0.00    +0.029 C 
BRANCH  32  33
ATOM     33  C   UNL     1      -0.776  -4.153  11.508  0.00  0.00    -0.034 C 
ATOM     34  C   UNL     1      -0.970  -5.003  12.486  0.00  0.00    +0.004 C 
ENDBRANCH  32  33
ENDBRANCH  31  32
ENDBRANCH  28  31
ENDBRANCH  27  28
ENDBRANCH  22  27
ENDBRANCH  21  22
ENDBRANCH   2  21
TORSDOF 12
