REMARK  Name = ZINC21237040
REMARK  11 active torsions:
REMARK  status: ('A' for Active; 'I' for Inactive)
REMARK    1  A    between atoms: C_1  and  C_2
REMARK    2  A    between atoms: C_2  and  C_3
REMARK    3  A    between atoms: C_3  and  C_26
REMARK    4  A    between atoms: N_6  and  C_10
REMARK    5  A    between atoms: C_10  and  C_11
REMARK    6  A    between atoms: N_13  and  C_14
REMARK    7  A    between atoms: N_13  and  C_16
REMARK    8  A    between atoms: C_14  and  C_15
REMARK    9  A    between atoms: C_16  and  C_17
REMARK   10  A    between atoms: C_20  and  O_24
REMARK   11  A    between atoms: O_24  and  C_25
REMARK                            x       y       z     vdW  Elec       q    Type
REMARK                         _______ _______ _______ _____ _____    ______ ____
ROOT
ATOM      1  C   UNL     1      -0.074   5.619   0.032  0.00  0.00    +0.138 C 
ATOM      2  C   UNL     1      -0.077   6.160  -1.385  0.00  0.00    +0.251 C 
ATOM      3  O   UNL     1      -0.921   5.978  -2.236  0.00  0.00    -0.272 OA
ATOM      4  N   UNL     1       1.053   6.884  -1.501  0.00  0.00    -0.215 N 
ATOM      5  C   UNL     1       1.763   6.876  -0.366  0.00  0.00    +0.310 C 
ATOM      6  O   UNL     1       2.821   7.458  -0.227  0.00  0.00    -0.252 OA
ATOM      7  N   UNL     1       1.175   6.151   0.603  0.00  0.00    -0.281 N 
ATOM      8  H   UNL     1       1.448   5.917   1.642  0.00  0.00    +0.152 HD
ENDROOT
BRANCH   1   9
ATOM      9  C   UNL     1      -0.054   4.112   0.024  0.00  0.00    -0.015 A 
ATOM     10  C   UNL     1       1.153   3.438   0.009  0.00  0.00    +0.009 A 
ATOM     11  C   UNL     1       1.173   2.056   0.002  0.00  0.00    +0.039 A 
ATOM     12  C   UNL     1      -0.016   1.347   0.009  0.00  0.00    +0.123 A 
ATOM     13  C   UNL     1      -1.224   2.023   0.019  0.00  0.00    +0.039 A 
ATOM     14  C   UNL     1      -1.242   3.405   0.031  0.00  0.00    +0.009 A 
ATOM     15  F   UNL     1       0.002  -0.004   0.002  0.00  0.00    -0.205 F 
ENDBRANCH   1   9
BRANCH   1  17
ATOM     16  C   UNL     1      -1.284   7.665   0.800  0.00  0.00    +0.007 C 
ATOM     17  C   UNL     1      -1.288   6.135   0.807  0.00  0.00    +0.037 C 
ENDBRANCH   1  17
BRANCH   4  18
ATOM     18  C   UNL     1       1.455   7.593  -2.718  0.00  0.00    +0.213 C 
BRANCH  18  19
ATOM     19  C   UNL     1       0.898   8.992  -2.692  0.00  0.00    +0.234 C 
ATOM     20  O   UNL     1       0.230   9.361  -1.748  0.00  0.00    -0.274 OA
ATOM     21  N   UNL     1       1.141   9.834  -3.716  0.00  0.00    -0.296 N 
BRANCH  21  22
ATOM     22  C   UNL     1       1.947   9.388  -4.855  0.00  0.00    +0.105 C 
ATOM     23  C   UNL     1       1.033   8.770  -5.915  0.00  0.00    +0.024 C 
ENDBRANCH  21  22
BRANCH  21  24
ATOM     24  C   UNL     1       0.599  11.195  -3.690  0.00  0.00    +0.143 C 
BRANCH  24  25
ATOM     25  C   UNL     1       1.589  12.118  -3.027  0.00  0.00    -0.027 A 
ATOM     26  C   UNL     1       2.548  12.762  -3.787  0.00  0.00    +0.009 A 
ATOM     27  C   UNL     1       3.457  13.609  -3.183  0.00  0.00    +0.049 A 
ATOM     28  C   UNL     1       3.408  13.813  -1.812  0.00  0.00    +0.155 A 
ATOM     29  C   UNL     1       2.444  13.166  -1.050  0.00  0.00    +0.165 A 
ATOM     30  C   UNL     1       1.533  12.323  -1.661  0.00  0.00    +0.047 A 
ATOM     31  F   UNL     1       2.393  13.363   0.286  0.00  0.00    -0.202 F 
BRANCH  28  32
ATOM     32  O   UNL     1       4.302  14.647  -1.216  0.00  0.00    -0.492 OA
ATOM     33  C   UNL     1       5.264  15.279  -2.062  0.00  0.00    +0.277 C 
ENDBRANCH  28  32
ENDBRANCH  24  25
ENDBRANCH  21  24
ENDBRANCH  18  19
ENDBRANCH   4  18
TORSDOF 8
