REMARK  Name = ZINC21139991
REMARK  9 active torsions:
REMARK  status: ('A' for Active; 'I' for Inactive)
REMARK    1  A    between atoms: C_1  and  C_2
REMARK    2  A    between atoms: C_2  and  C_4
REMARK    3  A    between atoms: C_2  and  N_10
REMARK    4  A    between atoms: C_11  and  C_13
REMARK    5  A    between atoms: C_13  and  C_15
REMARK    6  A    between atoms: C_13  and  S_16
REMARK    7  A    between atoms: S_16  and  C_17
REMARK    8  A    between atoms: C_20  and  C_30
REMARK    9  A    between atoms: N_21  and  C_22
REMARK                            x       y       z     vdW  Elec       q    Type
REMARK                         _______ _______ _______ _____ _____    ______ ____
ROOT
ATOM      1  C   UNL     1      -2.847   0.123   0.948  0.00  0.00    +0.197 A 
ATOM      2  N   UNL     1      -4.049  -0.271   0.591  0.00  0.00    -0.122 NA
ATOM      3  N   UNL     1      -4.392   0.297  -0.510  0.00  0.00    -0.128 NA
ATOM      4  C   UNL     1      -3.433   1.093  -0.923  0.00  0.00    +0.171 A 
ATOM      5  N   UNL     1      -2.410   1.003  -0.004  0.00  0.00    -0.270 N 
ENDROOT
BRANCH   5   6
ATOM      6  C   UNL     1      -1.181   1.676  -0.036  0.00  0.00    +0.052 A 
ATOM      7  C   UNL     1      -0.004   0.968  -0.241  0.00  0.00    +0.028 A 
ATOM      8  C   UNL     1       1.205   1.633  -0.277  0.00  0.00    +0.023 A 
ATOM      9  C   UNL     1       1.246   3.006  -0.103  0.00  0.00    +0.059 A 
ATOM     10  C   UNL     1       0.076   3.714   0.107  0.00  0.00    +0.061 A 
ATOM     11  C   UNL     1      -1.137   3.052   0.143  0.00  0.00    +0.047 A 
ATOM     12 CL   UNL     1       0.131   5.436   0.326  0.00  0.00    -0.082 Cl
ATOM     13 CL   UNL     1       2.768   3.839  -0.149  0.00  0.00    -0.082 Cl
ENDBRANCH   5   6
BRANCH   4  14
ATOM     14  C   UNL     1      -3.447   1.926  -2.144  0.00  0.00    +0.038 A 
ATOM     15  C   UNL     1      -2.255   2.437  -2.670  0.00  0.00    +0.014 A 
ATOM     16  C   UNL     1      -2.323   3.211  -3.815  0.00  0.00    +0.020 A 
ATOM     17  C   UNL     1      -3.554   3.452  -4.398  0.00  0.00    +0.111 A 
ATOM     18  N   UNL     1      -4.662   2.957  -3.880  0.00  0.00    -0.263 NA
ATOM     19  C   UNL     1      -4.649   2.211  -2.794  0.00  0.00    +0.122 A 
ENDBRANCH   4  14
BRANCH   1  20
ATOM     20  S   UNL     1      -1.963  -0.387   2.384  0.00  0.00    -0.073 S 
BRANCH  20  21
ATOM     21  C   UNL     1      -3.171  -1.522   3.110  0.00  0.00    +0.137 C 
ATOM     22  C   UNL     1      -4.418  -0.740   3.528  0.00  0.00    +0.029 C 
BRANCH  21  24
ATOM     23  N   UNL     1      -3.029  -3.391   4.724  0.00  0.00    -0.308 N 
ATOM     24  C   UNL     1      -2.570  -2.191   4.319  0.00  0.00    +0.227 C 
ATOM     25  O   UNL     1      -1.671  -1.648   4.928  0.00  0.00    -0.275 OA
ATOM     26  H   UNL     1      -3.843  -3.883   4.172  0.00  0.00    +0.149 HD
BRANCH  23  28
ATOM     27  C   UNL     1      -3.126  -3.517   7.165  0.00  0.00    +0.033 C 
ATOM     28  C   UNL     1      -2.444  -4.041   5.900  0.00  0.00    +0.100 C 
BRANCH  28  29
ATOM     29  C   UNL     1      -2.644  -5.531   5.801  0.00  0.00    -0.027 A 
ATOM     30  C   UNL     1      -3.841  -6.038   5.331  0.00  0.00    +0.005 A 
ATOM     31  C   UNL     1      -4.023  -7.406   5.236  0.00  0.00    +0.000 A 
ATOM     32  C   UNL     1      -3.011  -8.266   5.622  0.00  0.00    +0.000 A 
ATOM     33  C   UNL     1      -1.817  -7.759   6.097  0.00  0.00    +0.000 A 
ATOM     34  C   UNL     1      -1.633  -6.391   6.187  0.00  0.00    +0.005 A 
ENDBRANCH  28  29
ENDBRANCH  23  28
ENDBRANCH  21  24
ENDBRANCH  20  21
ENDBRANCH   1  20
TORSDOF 7
