REMARK  Name = ZINC01823362
REMARK  7 active torsions:
REMARK  status: ('A' for Active; 'I' for Inactive)
REMARK    1  A    between atoms: C_1  and  O_2
REMARK    2  A    between atoms: O_2  and  C_3
REMARK    3  A    between atoms: C_6  and  C_9
REMARK    4  A    between atoms: C_15  and  C_17
REMARK    5  A    between atoms: C_20  and  O_23
REMARK    6  A    between atoms: O_23  and  C_24
REMARK    7  A    between atoms: C_24  and  C_25
REMARK                            x       y       z     vdW  Elec       q    Type
REMARK                         _______ _______ _______ _____ _____    ______ ____
ROOT
ATOM      1  C   UNL     1      -2.588  10.447   3.290  0.00  0.00    +0.294 C 
ATOM      2  N   UNL     1      -2.163   9.440   2.344  0.00  0.00    -0.175 NA
ATOM      3  C   UNL     1      -1.040   9.998   1.528  0.00  0.00    +0.138 C 
ATOM      4  C   UNL     1      -0.635   8.768   0.762  0.00  0.00    +0.023 C 
ATOM      5  C   UNL     1      -1.029   7.739   1.550  0.00  0.00    +0.047 C 
ATOM      6  N   UNL     1      -1.641   8.251   2.719  0.00  0.00    -0.273 N 
ATOM      7  C   UNL     1      -1.629  11.122   0.742  0.00  0.00    +0.018 A 
ATOM      8  C   UNL     1      -1.145  11.469  -0.500  0.00  0.00    +0.024 A 
ATOM      9  C   UNL     1      -1.697  12.537  -1.187  0.00  0.00    +0.018 A 
ATOM     10  C   UNL     1      -2.737  13.255  -0.623  0.00  0.00    +0.019 A 
ATOM     11  C   UNL     1      -3.228  12.906   0.619  0.00  0.00    +0.047 A 
ATOM     12  C   UNL     1      -2.683  11.833   1.313  0.00  0.00    +0.128 A 
ATOM     13  O   UNL     1      -3.198  11.505   2.529  0.00  0.00    -0.468 OA
ATOM     14 BR   UNL     1      -1.032  13.013  -2.892  0.00  0.00    -0.050 Br
ATOM     15  H   UNL     1      -1.758   7.901   3.756  0.00  0.00    +0.167 HD
ENDROOT
BRANCH   1  19
ATOM     16  C   UNL     1       0.787  11.950   5.436  0.00  0.00    +0.120 A 
ATOM     17  C   UNL     1      -0.148  12.829   4.909  0.00  0.00    +0.046 A 
ATOM     18  C   UNL     1      -1.239  12.340   4.216  0.00  0.00    +0.012 A 
ATOM     19  C   UNL     1      -1.398  10.977   4.047  0.00  0.00    +0.009 A 
ATOM     20  C   UNL     1      -0.470  10.099   4.576  0.00  0.00    +0.012 A 
ATOM     21  C   UNL     1       0.625  10.583   5.266  0.00  0.00    +0.046 A 
BRANCH  16  23
ATOM     22  C   UNL     1       2.784  11.466   6.633  0.00  0.00    +0.277 C 
ATOM     23  O   UNL     1       1.861  12.428   6.119  0.00  0.00    -0.495 OA
ENDBRANCH  16  23
ENDBRANCH   1  19
BRANCH   5  24
ATOM     24  C   UNL     1      -0.843   6.304   1.240  0.00  0.00    -0.003 A 
ATOM     25  C   UNL     1      -1.287   5.331   2.136  0.00  0.00    +0.013 A 
ATOM     26  C   UNL     1      -1.111   3.995   1.844  0.00  0.00    +0.046 A 
ATOM     27  C   UNL     1      -0.493   3.617   0.660  0.00  0.00    +0.121 A 
ATOM     28  C   UNL     1      -0.044   4.582  -0.232  0.00  0.00    +0.046 A 
ATOM     29  C   UNL     1      -0.221   5.920   0.051  0.00  0.00    +0.013 A 
BRANCH  27  30
ATOM     30  O   UNL     1      -0.322   2.300   0.375  0.00  0.00    -0.488 OA
BRANCH  30  31
ATOM     31  C   UNL     1       0.322   1.981  -0.860  0.00  0.00    +0.256 C 
BRANCH  31  32
ATOM     32  C   UNL     1       0.423   0.484  -1.002  0.00  0.00    +0.006 C 
ATOM     33  C   UNL     1       0.118  -0.087  -2.141  0.00  0.00    +0.007 C 
ENDBRANCH  31  32
ENDBRANCH  30  31
ENDBRANCH  27  30
ENDBRANCH   5  24
TORSDOF 6
