REMARK  Name = ZINC57927637
REMARK  6 active torsions:
REMARK  status: ('A' for Active; 'I' for Inactive)
REMARK    1  A    between atoms: C_1  and  C_2
REMARK    2  A    between atoms: C_7  and  N_8
REMARK    3  A    between atoms: C_9  and  C_11
REMARK    4  A    between atoms: C_11  and  C_13
REMARK    5  A    between atoms: C_11  and  N_14
REMARK    6  A    between atoms: C_22  and  C_26
REMARK                            x       y       z     vdW  Elec       q    Type
REMARK                         _______ _______ _______ _____ _____    ______ ____
ROOT
ATOM      1  C   UNL     1      -0.168   0.052   4.882  0.00  0.00    +0.164 C 
ATOM      2  C   UNL     1       1.045   0.964   5.077  0.00  0.00    +0.038 C 
ENDROOT
BRANCH   1   3
ATOM      3  N   UNL     1      -0.241  -0.905   5.988  0.00  0.00    -0.257 N 
ATOM      4  C   UNL     1      -1.409  -0.987   6.757  0.00  0.00    +0.058 A 
ATOM      5  C   UNL     1      -2.375   0.003   6.686  0.00  0.00    +0.025 A 
ATOM      6  C   UNL     1      -3.523  -0.099   7.450  0.00  0.00    +0.002 A 
ATOM      7  C   UNL     1      -3.713  -1.185   8.285  0.00  0.00    +0.002 A 
ATOM      8  C   UNL     1      -2.752  -2.178   8.364  0.00  0.00    +0.025 A 
ATOM      9  C   UNL     1      -1.601  -2.081   7.604  0.00  0.00    +0.049 A 
ATOM     10  N   UNL     1      -0.604  -3.064   7.670  0.00  0.00    -0.332 N 
ATOM     11  C   UNL     1       0.786  -2.654   7.420  0.00  0.00    +0.154 C 
ATOM     12  C   UNL     1       0.812  -1.701   6.252  0.00  0.00    +0.240 C 
ATOM     13  O   UNL     1       1.796  -1.648   5.544  0.00  0.00    -0.273 OA
ATOM     14  C   UNL     1       1.347  -1.964   8.665  0.00  0.00    +0.038 C 
ATOM     15  H   UNL     1      -0.824  -3.987   7.874  0.00  0.00    +0.147 HD
ENDBRANCH   1   3
BRANCH   1  17
ATOM     16  N   UNL     1       0.054  -0.014   2.420  0.00  0.00    -0.284 N 
ATOM     17  C   UNL     1      -0.032  -0.694   3.580  0.00  0.00    +0.238 C 
ATOM     18  O   UNL     1       0.001  -1.906   3.576  0.00  0.00    -0.273 OA
ATOM     19  H   UNL     1       0.089   0.955   2.427  0.00  0.00    +0.155 HD
BRANCH  16  26
ATOM     20  C   UNL     1      -1.216   1.161   0.161  0.00  0.00    +0.045 C 
ATOM     21  C   UNL     1      -0.514  -0.169   0.077  0.00  0.00    -0.029 A 
ATOM     22  C   UNL     1      -0.468  -0.853  -1.122  0.00  0.00    +0.005 A 
ATOM     23  C   UNL     1       0.176  -2.073  -1.200  0.00  0.00    +0.000 A 
ATOM     24  C   UNL     1       0.778  -2.614  -0.078  0.00  0.00    +0.002 A 
ATOM     25  C   UNL     1       0.736  -1.935   1.124  0.00  0.00    +0.023 A 
ATOM     26  C   UNL     1       0.094  -0.707   1.204  0.00  0.00    +0.036 A 
ENDBRANCH  16  26
ENDBRANCH   1  17
TORSDOF 3
