REMARK  Name = ZINC27527988
REMARK  9 active torsions:
REMARK  status: ('A' for Active; 'I' for Inactive)
REMARK    1  A    between atoms: C_1  and  O_2
REMARK    2  A    between atoms: O_2  and  C_3
REMARK    3  A    between atoms: C_8  and  N_9
REMARK    4  A    between atoms: N_9  and  C_10
REMARK    5  A    between atoms: N_9  and  S_23
REMARK    6  A    between atoms: C_10  and  C_11
REMARK    7  A    between atoms: N_13  and  N_14
REMARK    8  A    between atoms: C_15  and  C_16
REMARK    9  A    between atoms: S_23  and  C_26
REMARK                            x       y       z     vdW  Elec       q    Type
REMARK                         _______ _______ _______ _____ _____    ______ ____
ROOT
ATOM      1  N   UNL     1       4.345  -1.062  -1.630  0.00  0.00    -0.191 N 
ENDROOT
BRANCH   1   7
ATOM      2  C   UNL     1       2.665  -2.264  -2.890  0.00  0.00    +0.143 A 
ATOM      3  C   UNL     1       2.257  -3.410  -3.553  0.00  0.00    +0.047 A 
ATOM      4  C   UNL     1       3.101  -4.503  -3.629  0.00  0.00    +0.004 A 
ATOM      5  C   UNL     1       4.353  -4.456  -3.045  0.00  0.00    +0.002 A 
ATOM      6  C   UNL     1       4.770  -3.315  -2.386  0.00  0.00    +0.028 A 
ATOM      7  C   UNL     1       3.927  -2.217  -2.301  0.00  0.00    +0.093 A 
BRANCH   2   9
ATOM      8  C   UNL     1       0.559  -1.309  -3.442  0.00  0.00    +0.277 C 
ATOM      9  O   UNL     1       1.837  -1.188  -2.815  0.00  0.00    -0.493 OA
ENDBRANCH   2   9
ENDBRANCH   1   7
BRANCH   1  10
ATOM     10  S   UNL     1       3.934  -0.832  -0.042  0.00  0.00    +0.075 S 
ATOM     11  O   UNL     1       4.902   0.054   0.504  0.00  0.00    -0.150 OA
ATOM     12  O   UNL     1       3.686  -2.120   0.504  0.00  0.00    -0.150 OA
BRANCH  10  13
ATOM     13  C   UNL     1       2.396   0.029  -0.022  0.00  0.00    +0.109 A 
ATOM     14  C   UNL     1       1.208  -0.679  -0.014  0.00  0.00    +0.029 A 
ATOM     15  C   UNL     1       0.002  -0.004   0.002  0.00  0.00    +0.002 A 
ATOM     16  C   UNL     1      -0.017   1.378   0.010  0.00  0.00    +0.000 A 
ATOM     17  C   UNL     1       1.171   2.086   0.002  0.00  0.00    +0.002 A 
ATOM     18  C   UNL     1       2.377   1.411  -0.014  0.00  0.00    +0.029 A 
ENDBRANCH  10  13
ENDBRANCH   1  10
BRANCH   1  19
ATOM     19  C   UNL     1       5.146  -0.056  -2.332  0.00  0.00    +0.229 C 
BRANCH  19  20
ATOM     20  C   UNL     1       6.601  -0.443  -2.273  0.00  0.00    +0.251 C 
ATOM     21  O   UNL     1       6.937  -1.458  -1.700  0.00  0.00    -0.272 OA
ATOM     22  N   UNL     1       7.531   0.340  -2.856  0.00  0.00    -0.206 N 
ATOM     23  H   UNL     1       7.227   1.261  -3.375  0.00  0.00    +0.177 HD
BRANCH  22  24
ATOM     24  N   UNL     1       8.884  -0.019  -2.801  0.00  0.00    -0.188 NA
ATOM     25  C   UNL     1       9.779   0.734  -3.362  0.00  0.00    +0.138 C 
BRANCH  25  26
ATOM     26  C   UNL     1      11.203   0.356  -3.305  0.00  0.00    -0.004 A 
ATOM     27  C   UNL     1      12.169   1.165  -3.908  0.00  0.00    +0.009 A 
ATOM     28  C   UNL     1      13.499   0.806  -3.850  0.00  0.00    +0.002 A 
ATOM     29  C   UNL     1      13.879  -0.353  -3.196  0.00  0.00    +0.015 A 
ATOM     30  C   UNL     1      12.927  -1.160  -2.595  0.00  0.00    +0.018 A 
ATOM     31  C   UNL     1      11.593  -0.810  -2.642  0.00  0.00    +0.024 A 
ATOM     32 BR   UNL     1      13.458  -2.740  -1.703  0.00  0.00    -0.050 Br
ENDBRANCH  25  26
ENDBRANCH  22  24
ENDBRANCH  19  20
ENDBRANCH   1  19
TORSDOF 8
