REMARK  Name = ZINC28867827
REMARK  9 active torsions:
REMARK  status: ('A' for Active; 'I' for Inactive)
REMARK    1  A    between atoms: C_1  and  C_2
REMARK    2  A    between atoms: C_2  and  C_3
REMARK    3  A    between atoms: C_3  and  C_5
REMARK    4  A    between atoms: C_3  and  C_25
REMARK    5  A    between atoms: C_5  and  N_6
REMARK    6  A    between atoms: C_7  and  C_9
REMARK    7  A    between atoms: C_12  and  S_15
REMARK    8  A    between atoms: S_15  and  N_18
REMARK    9  A    between atoms: N_18  and  C_19
REMARK                            x       y       z     vdW  Elec       q    Type
REMARK                         _______ _______ _______ _____ _____    ______ ____
ROOT
ATOM      1  C   UNL     1      -4.584   5.559  -0.182  0.00  0.00    +0.037 A 
ATOM      2  C   UNL     1      -5.102   4.343  -0.631  0.00  0.00    +0.015 A 
ATOM      3  C   UNL     1      -4.429   3.169  -0.364  0.00  0.00    +0.029 A 
ATOM      4  C   UNL     1      -3.243   3.195   0.348  0.00  0.00    +0.109 A 
ATOM      5  C   UNL     1      -2.727   4.396   0.801  0.00  0.00    +0.029 A 
ATOM      6  C   UNL     1      -3.387   5.578   0.536  0.00  0.00    +0.015 A 
ENDROOT
BRANCH   1   8
ATOM      7  N   UNL     1      -4.797   7.993  -0.030  0.00  0.00    -0.311 N 
ATOM      8  C   UNL     1      -5.300   6.821  -0.465  0.00  0.00    +0.244 C 
ATOM      9  O   UNL     1      -6.342   6.801  -1.091  0.00  0.00    -0.270 OA
ATOM     10  H   UNL     1      -3.854   8.011   0.536  0.00  0.00    +0.149 HD
BRANCH   7  11
ATOM     11  C   UNL     1      -5.507   9.244  -0.310  0.00  0.00    +0.112 C 
BRANCH  11  12
ATOM     12  C   UNL     1      -4.801  10.401   0.399  0.00  0.00    +0.036 C 
BRANCH  12  13
ATOM     13  C   UNL     1      -5.447  11.703   0.002  0.00  0.00    -0.043 A 
ATOM     14  C   UNL     1      -6.789  11.915   0.261  0.00  0.00    +0.004 A 
ATOM     15  C   UNL     1      -7.381  13.111  -0.099  0.00  0.00    +0.000 A 
ATOM     16  C   UNL     1      -6.634  14.091  -0.726  0.00  0.00    +0.000 A 
ATOM     17  C   UNL     1      -5.294  13.877  -0.989  0.00  0.00    +0.000 A 
ATOM     18  C   UNL     1      -4.701  12.683  -0.625  0.00  0.00    +0.004 A 
ENDBRANCH  12  13
BRANCH  12  20
ATOM     19  C   UNL     1      -4.097  11.298   2.622  0.00  0.00    +0.004 C 
ATOM     20  C   UNL     1      -4.913  10.216   1.913  0.00  0.00    +0.006 C 
ENDBRANCH  12  20
ENDBRANCH  11  12
ENDBRANCH   7  11
ENDBRANCH   1   8
BRANCH   4  21
ATOM     21  S   UNL     1      -2.389   1.690   0.685  0.00  0.00    +0.072 S 
ATOM     22  O   UNL     1      -3.336   0.642   0.529  0.00  0.00    -0.150 OA
ATOM     23  O   UNL     1      -1.671   1.893   1.894  0.00  0.00    -0.150 OA
BRANCH  21  24
ATOM     24  N   UNL     1      -1.260   1.490  -0.509  0.00  0.00    -0.216 N 
ATOM     25  H   UNL     1      -1.335   0.637  -1.200  0.00  0.00    +0.174 HD
BRANCH  24  26
ATOM     26  C   UNL     1      -0.214   2.400  -0.637  0.00  0.00    +0.051 A 
ATOM     27  C   UNL     1      -0.208   3.341  -1.667  0.00  0.00    +0.042 A 
ATOM     28  C   UNL     1       0.843   4.229  -1.756  0.00  0.00    +0.084 A 
ATOM     29  N   UNL     1       1.836   4.191  -0.887  0.00  0.00    -0.367 N 
ATOM     30  C   UNL     1       1.869   3.312   0.097  0.00  0.00    +0.084 A 
ATOM     31  C   UNL     1       0.856   2.391   0.257  0.00  0.00    +0.042 A 
ATOM     32  H   UNL     1       2.668   4.906  -0.972  0.00  0.00    +0.165 HD
ENDBRANCH  24  26
ENDBRANCH  21  24
ENDBRANCH   4  21
TORSDOF 8
