REMARK  Name = ZINC39960874
REMARK  5 active torsions:
REMARK  status: ('A' for Active; 'I' for Inactive)
REMARK    1  A    between atoms: C_2  and  C_3
REMARK    2  A    between atoms: C_3  and  S_4
REMARK    3  A    between atoms: S_4  and  C_5
REMARK    4  A    between atoms: C_18  and  C_21
REMARK    5  A    between atoms: C_26  and  C_27
REMARK                            x       y       z     vdW  Elec       q    Type
REMARK                         _______ _______ _______ _____ _____    ______ ____
ROOT
ATOM      1  C   UNL     1      -3.086  -2.576  -1.252  0.00  0.00    +0.213 A 
ATOM      2  N   UNL     1      -3.485  -3.374  -2.239  0.00  0.00    -0.184 NA
ATOM      3  C   UNL     1      -4.671  -3.951  -2.163  0.00  0.00    +0.248 A 
ATOM      4  C   UNL     1      -5.481  -3.696  -1.033  0.00  0.00    +0.156 A 
ATOM      5  N   UNL     1      -5.022  -2.894  -0.084  0.00  0.00    -0.141 NA
ATOM      6  N   UNL     1      -3.856  -2.358  -0.194  0.00  0.00    -0.122 NA
ATOM      7  C   UNL     1      -6.817  -4.319  -0.936  0.00  0.00    +0.029 A 
ATOM      8  C   UNL     1      -7.238  -4.960   0.222  0.00  0.00    +0.027 A 
ATOM      9  C   UNL     1      -8.501  -5.519   0.277  0.00  0.00    +0.019 A 
ATOM     10  C   UNL     1      -9.349  -5.443  -0.815  0.00  0.00    +0.017 A 
ATOM     11  C   UNL     1      -8.940  -4.813  -1.976  0.00  0.00    +0.025 A 
ATOM     12  C   UNL     1      -7.677  -4.255  -2.049  0.00  0.00    +0.039 A 
ATOM     13  N   UNL     1      -7.217  -3.641  -3.219  0.00  0.00    -0.308 N 
ATOM     14  C   UNL     1      -6.157  -4.291  -3.983  0.00  0.00    +0.276 C 
ATOM     15  O   UNL     1      -5.119  -4.777  -3.139  0.00  0.00    -0.452 OA
ATOM     16 BR   UNL     1      -9.075  -6.393   1.853  0.00  0.00    -0.050 Br
ATOM     17  H   UNL     1      -7.596  -2.800  -3.517  0.00  0.00    +0.150 HD
ENDROOT
BRANCH  14  18
ATOM     18  C   UNL     1      -6.752  -5.464  -4.764  0.00  0.00    +0.142 C 
ATOM     19  C   UNL     1      -7.149  -6.585  -3.825  0.00  0.00    +0.122 C 
ATOM     20  N   UNL     1      -6.435  -7.608  -4.166  0.00  0.00    -0.161 NA
ATOM     21  N   UNL     1      -5.586  -7.334  -5.233  0.00  0.00    -0.153 NA
ATOM     22  C   UNL     1      -5.703  -6.101  -5.654  0.00  0.00    +0.084 C 
BRANCH  22  23
ATOM     23  C   UNL     1      -4.969  -5.463  -6.759  0.00  0.00    -0.001 A 
ATOM     24  C   UNL     1      -5.208  -4.123  -7.080  0.00  0.00    +0.010 A 
ATOM     25  C   UNL     1      -4.517  -3.532  -8.117  0.00  0.00    +0.001 A 
ATOM     26  C   UNL     1      -3.589  -4.262  -8.839  0.00  0.00    +0.000 A 
ATOM     27  C   UNL     1      -3.347  -5.589  -8.527  0.00  0.00    +0.001 A 
ATOM     28  C   UNL     1      -4.025  -6.192  -7.489  0.00  0.00    +0.010 A 
ENDBRANCH  22  23
ENDBRANCH  14  18
BRANCH   1  29
ATOM     29  S   UNL     1      -1.506  -1.802  -1.349  0.00  0.00    -0.080 S 
BRANCH  29  30
ATOM     30  C   UNL     1      -1.394  -0.841   0.185  0.00  0.00    +0.104 C 
BRANCH  30  32
ATOM     31  C   UNL     1      -0.038   1.190   0.200  0.00  0.00    +0.005 C 
ATOM     32  C   UNL     1      -0.071  -0.119   0.230  0.00  0.00    -0.023 C 
ENDBRANCH  30  32
ENDBRANCH  29  30
ENDBRANCH   1  29
TORSDOF 5
