REMARK  Name = ZINC11858109
REMARK  7 active torsions:
REMARK  status: ('A' for Active; 'I' for Inactive)
REMARK    1  A    between atoms: C_1  and  C_2
REMARK    2  A    between atoms: C_5  and  N_9
REMARK    3  A    between atoms: C_6  and  C_8
REMARK    4  A    between atoms: N_9  and  S_10
REMARK    5  A    between atoms: S_10  and  C_13
REMARK    6  A    between atoms: C_16  and  N_20
REMARK    7  A    between atoms: C_18  and  C_19
REMARK                            x       y       z     vdW  Elec       q    Type
REMARK                         _______ _______ _______ _____ _____    ______ ____
ROOT
ATOM      1  C   UNL     1      -2.449   0.062   2.422  0.00  0.00    +0.111 A 
ATOM      2  C   UNL     1      -3.455  -0.235   3.323  0.00  0.00    +0.031 A 
ATOM      3  C   UNL     1      -3.327   0.129   4.649  0.00  0.00    +0.027 A 
ATOM      4  C   UNL     1      -2.190   0.803   5.075  0.00  0.00    +0.060 A 
ATOM      5  C   UNL     1      -1.184   1.105   4.168  0.00  0.00    +0.030 A 
ATOM      6  C   UNL     1      -1.316   0.733   2.844  0.00  0.00    -0.022 A 
ATOM      7  C   UNL     1      -0.224   1.060   1.858  0.00  0.00    +0.046 C 
ENDROOT
BRANCH   4   8
ATOM      8  N   UNL     1      -2.059   1.178   6.417  0.00  0.00    -0.144 N 
ATOM      9  C   UNL     1      -0.906   1.382   7.071  0.00  0.00    +0.240 C 
ATOM     10  O   UNL     1       0.158   1.276   6.498  0.00  0.00    -0.274 OA
ATOM     11  C   UNL     1      -0.962   1.747   8.523  0.00  0.00    +0.122 C 
ATOM     12  C   UNL     1      -2.386   2.266   8.852  0.00  0.00    +0.198 C 
ATOM     13  S   UNL     1      -3.315   1.443   7.493  0.00  0.00    +0.052 S 
ATOM     14  O   UNL     1      -4.187   2.360   6.847  0.00  0.00    -0.155 OA
ATOM     15  O   UNL     1      -3.760   0.154   7.890  0.00  0.00    -0.155 OA
ENDBRANCH   4   8
BRANCH   1  16
ATOM     16  S   UNL     1      -2.614  -0.410   0.733  0.00  0.00    +0.073 S 
ATOM     17  O   UNL     1      -2.309   0.741  -0.042  0.00  0.00    -0.150 OA
ATOM     18  O   UNL     1      -3.853  -1.097   0.622  0.00  0.00    -0.150 OA
BRANCH  16  19
ATOM     19  N   UNL     1      -1.427  -1.521   0.417  0.00  0.00    -0.216 N 
ATOM     20  H   UNL     1      -0.762  -1.340  -0.266  0.00  0.00    +0.174 HD
BRANCH  19  25
ATOM     21  C   UNL     1      -1.250  -6.393   3.315  0.00  0.00    +0.044 C 
ATOM     22  C   UNL     1      -1.297  -5.096   2.547  0.00  0.00    -0.050 A 
ATOM     23  C   UNL     1      -2.517  -4.532   2.220  0.00  0.00    +0.005 A 
ATOM     24  C   UNL     1      -2.563  -3.345   1.517  0.00  0.00    +0.025 A 
ATOM     25  C   UNL     1      -1.383  -2.720   1.133  0.00  0.00    +0.051 A 
ATOM     26  C   UNL     1      -0.160  -3.287   1.468  0.00  0.00    -0.028 A 
ATOM     27  C   UNL     1      -0.121  -4.475   2.171  0.00  0.00    +0.008 A 
ATOM     28  C   UNL     1       1.122  -2.610   1.058  0.00  0.00    +0.046 C 
ENDBRANCH  19  25
ENDBRANCH  16  19
ENDBRANCH   1  16
TORSDOF 4
