REMARK  Name = ZINC02144842
REMARK  9 active torsions:
REMARK  status: ('A' for Active; 'I' for Inactive)
REMARK    1  A    between atoms: C_1  and  O_2
REMARK    2  A    between atoms: O_2  and  C_3
REMARK    3  A    between atoms: C_8  and  N_9
REMARK    4  A    between atoms: C_10  and  O_33
REMARK    5  A    between atoms: C_11  and  C_18
REMARK    6  A    between atoms: C_23  and  O_31
REMARK    7  A    between atoms: C_24  and  O_29
REMARK    8  A    between atoms: O_29  and  C_30
REMARK    9  A    between atoms: O_31  and  C_32
REMARK                            x       y       z     vdW  Elec       q    Type
REMARK                         _______ _______ _______ _____ _____    ______ ____
ROOT
ATOM      1  N   UNL     1       3.595   2.117  -0.021  0.00  0.00    -0.257 N 
ATOM      2  C   UNL     1       4.171   2.470  -1.217  0.00  0.00    +0.212 A 
ATOM      3  C   UNL     1       5.345   3.163  -1.217  0.00  0.00    +0.121 A 
ATOM      4  C   UNL     1       5.939   3.500   0.013  0.00  0.00    +0.263 A 
ATOM      5  O   UNL     1       6.989   4.119   0.037  0.00  0.00    -0.267 OA
ATOM      6  N   UNL     1       5.341   3.134   1.163  0.00  0.00    -0.302 N 
ATOM      7  H   UNL     1       5.763   3.369   2.039  0.00  0.00    +0.171 HD
ATOM      8  C   UNL     1       4.179   2.455   1.143  0.00  0.00    +0.168 A 
ATOM      9  S   UNL     1       3.437   2.008   2.619  0.00  0.00    -0.012 S 
ENDROOT
BRANCH   3  10
ATOM     10  C   UNL     1       5.997   3.561  -2.515  0.00  0.00    +0.248 C 
ATOM     11  C   UNL     1       6.015   5.064  -2.647  0.00  0.00    +0.015 A 
ATOM     12  C   UNL     1       5.027   6.017  -2.694  0.00  0.00    +0.012 A 
ATOM     13  C   UNL     1       5.357   7.357  -2.822  0.00  0.00    +0.050 A 
ATOM     14  C   UNL     1       6.684   7.744  -2.904  0.00  0.00    +0.162 A 
ATOM     15  C   UNL     1       7.695   6.788  -2.857  0.00  0.00    +0.176 A 
ATOM     16  C   UNL     1       7.362   5.435  -2.728  0.00  0.00    +0.111 A 
ATOM     17  C   UNL     1       8.177   4.213  -2.651  0.00  0.00    +0.344 C 
ATOM     18  O   UNL     1       9.391   4.184  -2.692  0.00  0.00    -0.245 OA
ATOM     19  O   UNL     1       7.387   3.133  -2.528  0.00  0.00    -0.448 OA
BRANCH  15  20
ATOM     20  O   UNL     1       8.996   7.167  -2.937  0.00  0.00    -0.491 OA
ATOM     21  C   UNL     1       9.664   7.458  -1.708  0.00  0.00    +0.277 C 
ENDBRANCH  15  20
BRANCH  14  22
ATOM     22  O   UNL     1       7.001   9.061  -3.030  0.00  0.00    -0.491 OA
ATOM     23  C   UNL     1       5.914   9.988  -3.071  0.00  0.00    +0.277 C 
ENDBRANCH  14  22
ENDBRANCH   3  10
BRANCH   1  29
ATOM     24  C   UNL     1       1.174   2.087   0.002  0.00  0.00    +0.144 A 
ATOM     25  C   UNL     1      -0.017   1.378   0.010  0.00  0.00    +0.048 A 
ATOM     26  C   UNL     1       0.002  -0.004   0.002  0.00  0.00    +0.004 A 
ATOM     27  C   UNL     1       1.207  -0.683  -0.013  0.00  0.00    +0.002 A 
ATOM     28  C   UNL     1       2.398   0.017  -0.021  0.00  0.00    +0.030 A 
ATOM     29  C   UNL     1       2.387   1.404  -0.014  0.00  0.00    +0.093 A 
BRANCH  24  31
ATOM     30  C   UNL     1      -0.124   4.080   0.024  0.00  0.00    +0.277 C 
ATOM     31  O   UNL     1       1.157   3.447   0.009  0.00  0.00    -0.493 OA
ENDBRANCH  24  31
ENDBRANCH   1  29
BRANCH   2  32
ATOM     32  O   UNL     1       3.580   2.133  -2.383  0.00  0.00    -0.493 OA
ATOM     33  H   UNL     1       2.753   1.643  -2.277  0.00  0.00    +0.294 HD
ENDBRANCH   2  32
TORSDOF 6
