REMARK  Name = ZINC13720377
REMARK  12 active torsions:
REMARK  status: ('A' for Active; 'I' for Inactive)
REMARK    1  A    between atoms: C_1  and  C_2
REMARK    2  A    between atoms: C_2  and  O_3
REMARK    3  A    between atoms: O_3  and  C_4
REMARK    4  A    between atoms: C_6  and  C_20
REMARK    5  A    between atoms: C_9  and  O_10
REMARK    6  A    between atoms: O_10  and  C_11
REMARK    7  A    between atoms: C_11  and  C_12
REMARK    8  A    between atoms: C_20  and  N_54
REMARK    9  A    between atoms: C_21  and  C_22
REMARK   10  A    between atoms: C_21  and  N_54
REMARK   11  A    between atoms: C_27  and  O_28
REMARK   12  A    between atoms: O_28  and  C_29
REMARK                            x       y       z     vdW  Elec       q    Type
REMARK                         _______ _______ _______ _____ _____    ______ ____
ROOT
ATOM      1  C   UNL     1      -4.970   1.827   4.586  0.00  0.00    +0.163 A 
ATOM      2  C   UNL     1      -4.494   1.830   3.284  0.00  0.00    +0.051 A 
ATOM      3  C   UNL     1      -3.674   2.854   2.849  0.00  0.00    -0.060 A 
ATOM      4  C   UNL     1      -3.335   3.884   3.708  0.00  0.00    +0.021 A 
ATOM      5  C   UNL     1      -3.810   3.890   5.007  0.00  0.00    +0.063 A 
ATOM      6  C   UNL     1      -4.628   2.863   5.450  0.00  0.00    +0.176 A 
ATOM      7 BR   UNL     1      -3.343   5.300   6.178  0.00  0.00    -0.046 Br
ENDROOT
BRANCH   1   8
ATOM      8  O   UNL     1      -5.772   0.818   5.016  0.00  0.00    -0.489 OA
BRANCH   8  10
ATOM      9  C   UNL     1      -6.988  -1.252   4.735  0.00  0.00    +0.048 C 
ATOM     10  C   UNL     1      -6.081  -0.212   4.074  0.00  0.00    +0.226 C 
ENDBRANCH   8  10
ENDBRANCH   1   8
BRANCH   6  11
ATOM     11  O   UNL     1      -5.097   2.868   6.727  0.00  0.00    -0.483 OA
BRANCH  11  12
ATOM     12  C   UNL     1      -6.346   3.523   6.957  0.00  0.00    +0.264 C 
BRANCH  12  13
ATOM     13  C   UNL     1      -6.702   3.427   8.418  0.00  0.00    -0.010 A 
ATOM     14  C   UNL     1      -7.448   2.358   8.879  0.00  0.00    +0.008 A 
ATOM     15  C   UNL     1      -7.769   2.266  10.220  0.00  0.00    +0.020 A 
ATOM     16  C   UNL     1      -7.355   3.250  11.100  0.00  0.00    +0.041 A 
ATOM     17  C   UNL     1      -6.613   4.323  10.637  0.00  0.00    +0.020 A 
ATOM     18  C   UNL     1      -6.287   4.410   9.297  0.00  0.00    +0.008 A 
ATOM     19 CL   UNL     1      -7.764   3.139  12.783  0.00  0.00    -0.084 Cl
ENDBRANCH  12  13
ENDBRANCH  11  12
ENDBRANCH   6  11
BRANCH   3  20
ATOM     20  C   UNL     1      -3.154   2.853   1.435  0.00  0.00    -0.046 C 
BRANCH  20  21
ATOM     21  N   UNL     1      -1.865   2.137   1.395  0.00  0.00    +0.384 N 
ATOM     22  H   UNL     1      -2.003   1.172   1.717  0.00  0.00    -0.085 HD
ATOM     23  H   UNL     1      -1.195   2.611   2.012  0.00  0.00    -0.085 HD
BRANCH  21  24
ATOM     24  C   UNL     1      -1.332   2.119   0.020  0.00  0.00    -0.043 C 
BRANCH  24  25
ATOM     25  C   UNL     1      -0.017   1.383   0.010  0.00  0.00    -0.023 A 
ATOM     26  C   UNL     1       1.171   2.089   0.002  0.00  0.00    +0.005 A 
ATOM     27  C   UNL     1       2.377   1.414  -0.013  0.00  0.00    +0.000 A 
ATOM     28  C   UNL     1       2.399   0.031  -0.021  0.00  0.00    +0.004 A 
ATOM     29  C   UNL     1       1.214  -0.679  -0.013  0.00  0.00    +0.046 A 
ATOM     30  C   UNL     1       0.002  -0.004   0.002  0.00  0.00    +0.121 A 
BRANCH  30  31
ATOM     31  O   UNL     1      -1.165  -0.701   0.009  0.00  0.00    -0.495 OA
ATOM     32  C   UNL     1      -1.069  -2.126   0.000  0.00  0.00    +0.277 C 
ENDBRANCH  30  31
ENDBRANCH  24  25
ENDBRANCH  21  24
ENDBRANCH  20  21
ENDBRANCH   3  20
TORSDOF 10
