REMARK  Name = ZINC02713678
REMARK  4 active torsions:
REMARK  status: ('A' for Active; 'I' for Inactive)
REMARK    1  A    between atoms: C_7  and  N_20
REMARK    2  A    between atoms: C_8  and  S_10
REMARK    3  A    between atoms: S_10  and  C_13
REMARK    4  A    between atoms: N_23  and  C_26
REMARK                            x       y       z     vdW  Elec       q    Type
REMARK                         _______ _______ _______ _____ _____    ______ ____
ROOT
ATOM      1  C   UNL     1      -0.018   1.083  -0.216  0.00  0.00    +0.001 A 
ATOM      2  C   UNL     1       1.184   1.787  -0.220  0.00  0.00    +0.002 A 
ATOM      3  C   UNL     1       1.201   3.146  -0.139  0.00  0.00    +0.026 A 
ATOM      4  C   UNL     1      -0.009   3.855  -0.049  0.00  0.00    +0.048 A 
ATOM      5  C   UNL     1      -1.228   3.136  -0.045  0.00  0.00    +0.021 A 
ATOM      6  C   UNL     1      -1.210   1.738  -0.135  0.00  0.00    +0.012 A 
ATOM      7  C   UNL     1      -2.445   3.853   0.046  0.00  0.00    +0.066 A 
ATOM      8  C   UNL     1      -2.379   5.236   0.126  0.00  0.00    +0.131 A 
ATOM      9  C   UNL     1      -1.143   5.867   0.115  0.00  0.00    +0.112 A 
ATOM     10  N   UNL     1       0.049   5.230   0.031  0.00  0.00    -0.359 N 
ATOM     11  H   UNL     1       0.940   5.740   0.026  0.00  0.00    +0.165 HD
ENDROOT
BRANCH   7  12
ATOM     12  N   UNL     1      -3.665   3.194   0.054  0.00  0.00    -0.325 N 
ATOM     13  C   UNL     1      -3.778   2.312   1.224  0.00  0.00    +0.124 C 
ATOM     14  C   UNL     1      -5.165   1.665   1.240  0.00  0.00    +0.124 C 
ATOM     15  N   UNL     1      -5.365   0.911  -0.006  0.00  0.00    -0.325 N 
ATOM     16  C   UNL     1      -5.251   1.793  -1.176  0.00  0.00    +0.124 C 
ATOM     17  C   UNL     1      -3.864   2.440  -1.191  0.00  0.00    +0.124 C 
BRANCH  15  18
ATOM     18  C   UNL     1      -6.595   0.246   0.003  0.00  0.00    +0.065 A 
ATOM     19  C   UNL     1      -6.945  -0.584  -1.053  0.00  0.00    +0.026 A 
ATOM     20  C   UNL     1      -8.159  -1.243  -1.040  0.00  0.00    +0.002 A 
ATOM     21  C   UNL     1      -9.031  -1.070   0.019  0.00  0.00    +0.003 A 
ATOM     22  C   UNL     1      -8.689  -0.240   1.071  0.00  0.00    +0.040 A 
ATOM     23  C   UNL     1      -7.474   0.419   1.067  0.00  0.00    +0.144 A 
ATOM     24  F   UNL     1      -7.140   1.230   2.095  0.00  0.00    -0.204 F 
ENDBRANCH  15  18
ENDBRANCH   7  12
BRANCH   8  25
ATOM     25  S   UNL     1      -3.857   6.187   0.240  0.00  0.00    +0.028 S 
ATOM     26  O   UNL     1      -4.645   5.594   1.263  0.00  0.00    -0.164 OA
ATOM     27  O   UNL     1      -3.461   7.551   0.278  0.00  0.00    -0.164 OA
BRANCH  25  28
ATOM     28  C   UNL     1      -4.740   5.962  -1.269  0.00  0.00    +0.094 A 
ATOM     29  C   UNL     1      -4.521   6.818  -2.332  0.00  0.00    +0.029 A 
ATOM     30  C   UNL     1      -5.208   6.638  -3.517  0.00  0.00    +0.022 A 
ATOM     31  C   UNL     1      -6.124   5.609  -3.636  0.00  0.00    +0.041 A 
ATOM     32  C   UNL     1      -6.347   4.755  -2.570  0.00  0.00    +0.022 A 
ATOM     33  C   UNL     1      -5.655   4.933  -1.387  0.00  0.00    +0.029 A 
ATOM     34 CL   UNL     1      -6.993   5.386  -5.122  0.00  0.00    -0.084 Cl
ENDBRANCH  25  28
ENDBRANCH   8  25
TORSDOF 4
