REMARK  Name = ZINC35911992
REMARK  9 active torsions:
REMARK  status: ('A' for Active; 'I' for Inactive)
REMARK    1  A    between atoms: C_1  and  C_2
REMARK    2  A    between atoms: C_7  and  N_8
REMARK    3  A    between atoms: C_9  and  C_35
REMARK    4  A    between atoms: C_11  and  C_13
REMARK    5  A    between atoms: C_14  and  C_34
REMARK    6  A    between atoms: C_20  and  C_23
REMARK    7  A    between atoms: C_23  and  C_24
REMARK    8  A    between atoms: N_26  and  C_27
REMARK    9  A    between atoms: C_27  and  C_28
REMARK                            x       y       z     vdW  Elec       q    Type
REMARK                         _______ _______ _______ _____ _____    ______ ____
ROOT
ATOM      1  C   UNL     1       0.073   3.225   4.237  0.00  0.00    +0.088 A 
ATOM      2  C   UNL     1      -0.143   4.303   3.386  0.00  0.00    +0.055 A 
ATOM      3  N   UNL     1      -0.213   5.523   3.907  0.00  0.00    -0.227 NA
ATOM      4  C   UNL     1      -0.083   5.722   5.196  0.00  0.00    +0.180 A 
ATOM      5  N   UNL     1       0.133   4.724   6.109  0.00  0.00    -0.258 N 
ATOM      6  C   UNL     1       0.206   3.451   5.619  0.00  0.00    +0.268 A 
ATOM      7  O   UNL     1       0.392   2.513   6.377  0.00  0.00    -0.266 OA
ATOM      8  C   UNL     1       0.247   5.104   7.425  0.00  0.00    +0.044 A 
ATOM      9  C   UNL     1       0.152   6.384   7.783  0.00  0.00    +0.071 A 
ATOM     10  S   UNL     1      -0.120   7.184   6.210  0.00  0.00    -0.057 S 
ATOM     11  C   UNL     1      -0.295   4.091   1.902  0.00  0.00    +0.066 C 
ENDROOT
BRANCH   1  15
ATOM     12  N   UNL     1       0.185   0.119   2.333  0.00  0.00    -0.236 N 
ATOM     13  C   UNL     1       0.379  -0.369   3.586  0.00  0.00    +0.042 A 
ATOM     14  C   UNL     1       0.366   0.674   4.444  0.00  0.00    +0.053 A 
ATOM     15  C   UNL     1       0.157   1.849   3.694  0.00  0.00    +0.100 A 
ATOM     16  N   UNL     1       0.054   1.510   2.425  0.00  0.00    -0.166 NA
ATOM     17  C   UNL     1       0.573  -1.818   3.953  0.00  0.00    +0.066 C 
BRANCH  12  24
ATOM     18  C   UNL     1      -1.963   0.596   0.527  0.00  0.00    +0.046 C 
ATOM     19  C   UNL     1      -0.900  -0.436   0.246  0.00  0.00    -0.025 A 
ATOM     20  C   UNL     1      -0.949  -1.178  -0.918  0.00  0.00    +0.007 A 
ATOM     21  C   UNL     1       0.025  -2.124  -1.177  0.00  0.00    +0.020 A 
ATOM     22  C   UNL     1       1.051  -2.331  -0.271  0.00  0.00    +0.043 A 
ATOM     23  C   UNL     1       1.105  -1.592   0.895  0.00  0.00    +0.048 A 
ATOM     24  C   UNL     1       0.130  -0.637   1.155  0.00  0.00    +0.070 A 
ATOM     25 CL   UNL     1       2.272  -3.521  -0.600  0.00  0.00    -0.083 Cl
ENDBRANCH  12  24
ENDBRANCH   1  15
BRANCH   8  26
ATOM     26  C   UNL     1       0.485   4.055   8.481  0.00  0.00    +0.150 C 
BRANCH  26  27
ATOM     27  C   UNL     1      -0.834   3.468   8.911  0.00  0.00    +0.219 C 
ATOM     28  O   UNL     1      -1.866   3.862   8.410  0.00  0.00    -0.275 OA
ATOM     29  N   UNL     1      -0.868   2.504   9.853  0.00  0.00    -0.311 N 
ATOM     30  H   UNL     1      -0.043   2.189  10.254  0.00  0.00    +0.149 HD
BRANCH  29  31
ATOM     31  C   UNL     1      -2.150   1.933  10.271  0.00  0.00    +0.139 C 
BRANCH  31  32
ATOM     32  C   UNL     1      -1.913   0.884  11.327  0.00  0.00    -0.027 A 
ATOM     33  C   UNL     1      -1.701  -0.441  10.976  0.00  0.00    +0.025 A 
ATOM     34  C   UNL     1      -1.486  -1.375  11.972  0.00  0.00    +0.111 A 
ATOM     35  N   UNL     1      -1.482  -1.018  13.242  0.00  0.00    -0.263 NA
ATOM     36  C   UNL     1      -1.680   0.232  13.612  0.00  0.00    +0.111 A 
ATOM     37  C   UNL     1      -1.895   1.222  12.671  0.00  0.00    +0.025 A 
ENDBRANCH  31  32
ENDBRANCH  29  31
ENDBRANCH  26  27
ENDBRANCH   8  26
TORSDOF 6
