REMARK  Name = ZINC18088216
REMARK  8 active torsions:
REMARK  status: ('A' for Active; 'I' for Inactive)
REMARK    1  A    between atoms: C_1  and  C_2
REMARK    2  A    between atoms: C_7  and  N_8
REMARK    3  A    between atoms: C_12  and  N_50
REMARK    4  A    between atoms: C_16  and  C_17
REMARK    5  A    between atoms: C_16  and  N_50
REMARK    6  A    between atoms: C_17  and  C_18
REMARK    7  A    between atoms: C_25  and  O_28
REMARK    8  A    between atoms: O_28  and  C_29
REMARK                            x       y       z     vdW  Elec       q    Type
REMARK                         _______ _______ _______ _____ _____    ______ ____
ROOT
ATOM      1  N   UNL     1      -3.130   4.520   1.324  0.00  0.00    +0.387 N 
ATOM      2  H   UNL     1      -3.680   5.124   0.702  0.00  0.00    -0.085 HD
ATOM      3  H   UNL     1      -2.160   4.855   1.356  0.00  0.00    -0.085 HD
ENDROOT
BRANCH   1   8
ATOM      4  N   UNL     1      -1.240   2.070   0.019  0.00  0.00    -0.212 N 
ATOM      5  C   UNL     1      -1.877   2.430  -1.102  0.00  0.00    +0.225 C 
ATOM      6  O   UNL     1      -1.489   2.214  -2.230  0.00  0.00    -0.275 OA
ATOM      7  C   UNL     1      -3.158   3.147  -0.737  0.00  0.00    +0.090 C 
ATOM      8  C   UNL     1      -3.151   3.139   0.805  0.00  0.00    +0.026 C 
ATOM      9  C   UNL     1      -1.869   2.413   1.150  0.00  0.00    +0.213 C 
ATOM     10  O   UNL     1      -1.473   2.182   2.272  0.00  0.00    -0.277 OA
BRANCH   4  17
ATOM     11  C   UNL     1      -1.292  -0.776   0.010  0.00  0.00    +0.045 C 
ATOM     12  C   UNL     1       0.002  -0.004   0.002  0.00  0.00    -0.029 A 
ATOM     13  C   UNL     1       1.208  -0.678  -0.013  0.00  0.00    +0.006 A 
ATOM     14  C   UNL     1       2.396   0.029  -0.021  0.00  0.00    +0.020 A 
ATOM     15  C   UNL     1       2.381   1.413  -0.013  0.00  0.00    +0.043 A 
ATOM     16  C   UNL     1       1.177   2.092   0.002  0.00  0.00    +0.044 A 
ATOM     17  C   UNL     1      -0.017   1.384   0.010  0.00  0.00    +0.048 A 
ATOM     18 CL   UNL     1       3.876   2.297  -0.023  0.00  0.00    -0.083 Cl
ENDBRANCH   4  17
ENDBRANCH   1   8
BRANCH   1  19
ATOM     19  C   UNL     1      -3.706   4.566   2.681  0.00  0.00    -0.077 C 
BRANCH  19  20
ATOM     20  C   UNL     1      -3.671   6.008   3.192  0.00  0.00    +0.018 C 
BRANCH  20  21
ATOM     21  C   UNL     1      -4.258   6.064   4.578  0.00  0.00    -0.024 A 
ATOM     22  C   UNL     1      -5.529   6.359   4.896  0.00  0.00    +0.087 A 
ATOM     23  N   UNL     1      -5.693   6.312   6.253  0.00  0.00    -0.360 N 
ATOM     24  H   UNL     1      -6.525   6.488   6.720  0.00  0.00    +0.165 HD
ATOM     25  C   UNL     1      -4.500   5.977   6.859  0.00  0.00    +0.047 A 
ATOM     26  C   UNL     1      -3.551   5.802   5.835  0.00  0.00    +0.006 A 
ATOM     27  C   UNL     1      -2.235   5.461   6.154  0.00  0.00    +0.056 A 
ATOM     28  C   UNL     1      -1.877   5.287   7.476  0.00  0.00    +0.121 A 
ATOM     29  C   UNL     1      -2.819   5.456   8.486  0.00  0.00    +0.047 A 
ATOM     30  C   UNL     1      -4.119   5.797   8.184  0.00  0.00    +0.030 A 
BRANCH  28  31
ATOM     31  O   UNL     1      -0.598   4.949   7.792  0.00  0.00    -0.495 OA
ATOM     32  C   UNL     1      -0.294   4.785   9.178  0.00  0.00    +0.277 C 
ENDBRANCH  28  31
ENDBRANCH  20  21
ENDBRANCH  19  20
ENDBRANCH   1  19
TORSDOF 6
