REMARK  Name = ZINC13235369
REMARK  11 active torsions:
REMARK  status: ('A' for Active; 'I' for Inactive)
REMARK    1  A    between atoms: C_1  and  C_2
REMARK    2  A    between atoms: C_2  and  C_3
REMARK    3  A    between atoms: C_3  and  N_4
REMARK    4  A    between atoms: N_4  and  C_5
REMARK    5  A    between atoms: C_13  and  C_15
REMARK    6  A    between atoms: C_15  and  S_16
REMARK    7  A    between atoms: S_16  and  C_17
REMARK    8  A    between atoms: C_20  and  C_25
REMARK    9  A    between atoms: N_21  and  C_22
REMARK   10  A    between atoms: C_22  and  C_23
REMARK   11  A    between atoms: C_28  and  C_31
REMARK                            x       y       z     vdW  Elec       q    Type
REMARK                         _______ _______ _______ _____ _____    ______ ____
ROOT
ATOM      1  C   UNL     1      -4.370   6.800   4.094  0.00  0.00    +0.193 A 
ATOM      2  N   UNL     1      -5.324   6.130   4.700  0.00  0.00    -0.122 NA
ATOM      3  N   UNL     1      -5.904   6.877   5.571  0.00  0.00    -0.128 NA
ATOM      4  C   UNL     1      -5.354   8.070   5.574  0.00  0.00    +0.165 A 
ATOM      5  N   UNL     1      -4.351   8.055   4.633  0.00  0.00    -0.291 N 
ENDROOT
BRANCH   4   6
ATOM      6  C   UNL     1      -5.737   9.211   6.432  0.00  0.00    +0.019 A 
ATOM      7  C   UNL     1      -6.484   8.996   7.592  0.00  0.00    +0.012 A 
ATOM      8  C   UNL     1      -6.833  10.065   8.391  0.00  0.00    +0.004 A 
ATOM      9  C   UNL     1      -6.455  11.349   8.039  0.00  0.00    -0.050 A 
ATOM     10  C   UNL     1      -5.720  11.569   6.888  0.00  0.00    +0.004 A 
ATOM     11  C   UNL     1      -5.359  10.508   6.083  0.00  0.00    +0.012 A 
ATOM     12  C   UNL     1      -6.846  12.512   8.914  0.00  0.00    +0.044 C 
ENDBRANCH   4   6
BRANCH   1  13
ATOM     13  S   UNL     1      -3.306   6.190   2.828  0.00  0.00    -0.077 S 
BRANCH  13  14
ATOM     14  C   UNL     1      -3.933   4.499   2.679  0.00  0.00    +0.173 C 
BRANCH  14  16
ATOM     15  N   UNL     1      -3.443   2.480   1.337  0.00  0.00    -0.296 N 
ATOM     16  C   UNL     1      -3.150   3.764   1.622  0.00  0.00    +0.226 C 
ATOM     17  O   UNL     1      -2.256   4.329   1.028  0.00  0.00    -0.275 OA
BRANCH  15  18
ATOM     18  C   UNL     1      -2.681   1.766   0.309  0.00  0.00    +0.098 C 
ATOM     19  C   UNL     1      -1.197   1.720   0.713  0.00  0.00    +0.046 C 
ATOM     20  C   UNL     1      -0.376   1.246  -0.520  0.00  0.00    +0.168 C 
ATOM     21  S   UNL     1      -1.224   2.172  -1.868  0.00  0.00    -0.029 S 
ATOM     22  O   UNL     1      -0.553   3.408  -2.073  0.00  0.00    -0.174 OA
ATOM     23  O   UNL     1      -1.432   1.298  -2.969  0.00  0.00    -0.174 OA
ATOM     24  C   UNL     1      -2.837   2.497  -1.047  0.00  0.00    +0.188 C 
ENDBRANCH  15  18
BRANCH  15  25
ATOM     25  C   UNL     1      -4.523   1.798   2.054  0.00  0.00    +0.108 C 
BRANCH  25  27
ATOM     26  C   UNL     1      -5.085   0.411   4.055  0.00  0.00    +0.005 C 
ATOM     27  C   UNL     1      -3.957   1.123   3.305  0.00  0.00    +0.016 C 
ENDBRANCH  25  27
ENDBRANCH  15  25
ENDBRANCH  14  16
ENDBRANCH  13  14
ENDBRANCH   1  13
BRANCH   5  28
ATOM     28  C   UNL     1      -3.453   9.157   4.279  0.00  0.00    +0.250 C 
BRANCH  28  29
ATOM     29  C   UNL     1      -4.054   9.953   3.150  0.00  0.00    +0.375 C 
ATOM     30  O   UNL     1      -5.123   9.632   2.688  0.00  0.00    -0.244 OA
ATOM     31  O   UNL     1      -3.401  11.017   2.658  0.00  0.00    -0.244 OA
ENDBRANCH  28  29
ENDBRANCH   5  28
TORSDOF 9
