REMARK  Name = ZINC38731698
REMARK  6 active torsions:
REMARK  status: ('A' for Active; 'I' for Inactive)
REMARK    1  A    between atoms: C_7  and  N_21
REMARK    2  A    between atoms: C_8  and  C_10
REMARK    3  A    between atoms: C_10  and  C_12
REMARK    4  A    between atoms: C_22  and  C_24
REMARK    5  A    between atoms: C_24  and  O_25
REMARK    6  A    between atoms: O_25  and  C_26
REMARK                            x       y       z     vdW  Elec       q    Type
REMARK                         _______ _______ _______ _____ _____    ______ ____
ROOT
ATOM      1  C   UNL     1       0.142   1.222   1.192  0.00  0.00    +0.001 A 
ATOM      2  C   UNL     1       1.281   1.980   0.955  0.00  0.00    +0.004 A 
ATOM      3  C   UNL     1       2.417   1.399   0.434  0.00  0.00    +0.047 A 
ATOM      4  C   UNL     1       2.428   0.040   0.140  0.00  0.00    +0.138 A 
ATOM      5  C   UNL     1       1.271  -0.721   0.381  0.00  0.00    +0.042 A 
ATOM      6  C   UNL     1       0.131  -0.115   0.910  0.00  0.00    +0.013 A 
ATOM      7  C   UNL     1       1.601  -2.092  -0.027  0.00  0.00    +0.091 A 
ATOM      8  C   UNL     1       2.906  -2.046  -0.474  0.00  0.00    +0.197 A 
ATOM      9  O   UNL     1       3.370  -0.781  -0.366  0.00  0.00    -0.450 OA
ENDROOT
BRANCH   7  10
ATOM     10  N   UNL     1       0.771  -3.204   0.025  0.00  0.00    -0.279 N 
ATOM     11  C   UNL     1      -0.557  -3.063  -0.151  0.00  0.00    +0.255 C 
ATOM     12  O   UNL     1      -1.039  -1.957  -0.272  0.00  0.00    -0.272 OA
ATOM     13  H   UNL     1       1.148  -4.083   0.189  0.00  0.00    +0.155 HD
BRANCH  11  14
ATOM     14  C   UNL     1      -1.445  -4.281  -0.199  0.00  0.00    +0.324 C 
BRANCH  14  15
ATOM     15  O   UNL     1      -2.801  -3.874  -0.393  0.00  0.00    -0.483 OA
BRANCH  15  16
ATOM     16  C   UNL     1      -3.736  -4.858  -0.460  0.00  0.00    +0.121 A 
ATOM     17  C   UNL     1      -3.357  -6.187  -0.334  0.00  0.00    +0.047 A 
ATOM     18  C   UNL     1      -4.309  -7.185  -0.402  0.00  0.00    +0.019 A 
ATOM     19  C   UNL     1      -5.641  -6.861  -0.595  0.00  0.00    +0.018 A 
ATOM     20  C   UNL     1      -6.021  -5.537  -0.720  0.00  0.00    +0.019 A 
ATOM     21  C   UNL     1      -5.072  -4.535  -0.647  0.00  0.00    +0.047 A 
ATOM     22 BR   UNL     1      -6.942  -8.230  -0.687  0.00  0.00    -0.050 Br
ENDBRANCH  15  16
ENDBRANCH  14  15
ENDBRANCH  11  14
ENDBRANCH   7  10
BRANCH   8  23
ATOM     23  C   UNL     1       3.643  -3.150  -0.969  0.00  0.00    +0.230 C 
ATOM     24  O   UNL     1       3.094  -4.225  -1.132  0.00  0.00    -0.283 OA
BRANCH  23  25
ATOM     25  C   UNL     1       5.078  -2.999  -1.285  0.00  0.00    +0.029 A 
ATOM     26  C   UNL     1       5.745  -1.815  -0.961  0.00  0.00    +0.015 A 
ATOM     27  C   UNL     1       7.084  -1.675  -1.256  0.00  0.00    +0.050 A 
ATOM     28  C   UNL     1       7.774  -2.709  -1.876  0.00  0.00    +0.166 A 
ATOM     29  C   UNL     1       7.113  -3.893  -2.203  0.00  0.00    +0.167 A 
ATOM     30  C   UNL     1       5.773  -4.041  -1.904  0.00  0.00    +0.061 A 
ATOM     31  O   UNL     1       8.005  -4.740  -2.797  0.00  0.00    -0.453 OA
ATOM     32  C   UNL     1       9.111  -3.911  -3.200  0.00  0.00    +0.466 C 
ATOM     33  O   UNL     1       9.077  -2.816  -2.265  0.00  0.00    -0.453 OA
ENDBRANCH  23  25
ENDBRANCH   8  23
TORSDOF 6
