REMARK  Name = ZINC16029691
REMARK  7 active torsions:
REMARK  status: ('A' for Active; 'I' for Inactive)
REMARK    1  A    between atoms: C_1  and  C_2
REMARK    2  A    between atoms: C_5  and  O_32
REMARK    3  A    between atoms: C_18  and  C_31
REMARK    4  A    between atoms: C_19  and  O_30
REMARK    5  A    between atoms: C_22  and  C_24
REMARK    6  A    between atoms: O_32  and  C_33
REMARK    7  A    between atoms: C_33  and  C_35
REMARK                            x       y       z     vdW  Elec       q    Type
REMARK                         _______ _______ _______ _____ _____    ______ ____
ROOT
ATOM      1  C   UNL     1      -2.131   5.972   3.384  0.00  0.00    +0.012 C 
ATOM      2  C   UNL     1      -1.115   5.271   2.480  0.00  0.00    -0.026 C 
ATOM      3  C   UNL     1      -1.111   5.939   1.103  0.00  0.00    +0.011 C 
ATOM      4  C   UNL     1      -0.730   7.414   1.255  0.00  0.00    +0.045 C 
ATOM      5  C   UNL     1       0.663   7.519   1.878  0.00  0.00    +0.177 C 
ATOM      6  C   UNL     1       0.659   6.850   3.254  0.00  0.00    +0.048 C 
ATOM      7  C   UNL     1       0.279   5.376   3.101  0.00  0.00    -0.001 C 
ATOM      8  C   UNL     1       1.292   4.680   2.189  0.00  0.00    +0.004 C 
ATOM      9  C   UNL     1       0.914   3.205   2.044  0.00  0.00    +0.007 C 
ATOM     10  C   UNL     1      -0.484   3.089   1.433  0.00  0.00    +0.025 C 
ATOM     11  C   UNL     1      -1.498   3.796   2.329  0.00  0.00    +0.001 C 
ATOM     12  C   UNL     1      -2.882   3.706   1.673  0.00  0.00    +0.005 C 
ATOM     13  C   UNL     1      -3.271   2.250   1.590  0.00  0.00    +0.010 C 
ATOM     14  C   UNL     1      -2.288   1.439   0.777  0.00  0.00    +0.004 C 
ATOM     15  C   UNL     1      -0.838   1.607   1.275  0.00  0.00    +0.075 C 
ATOM     16  C   UNL     1      -0.027   1.086   0.052  0.00  0.00    +0.036 C 
ATOM     17  C   UNL     1      -0.802   1.629  -1.169  0.00  0.00    +0.011 C 
ATOM     18  C   UNL     1      -2.253   1.860  -0.698  0.00  0.00    +0.027 C 
ATOM     19  C   UNL     1      -2.672  -0.039   0.861  0.00  0.00    +0.014 C 
ENDROOT
BRANCH  18  20
ATOM     20  C   UNL     1      -2.617   3.316  -0.832  0.00  0.00    -0.022 C 
ATOM     21  C   UNL     1      -1.776   4.327  -1.038  0.00  0.00    +0.094 C 
ATOM     22  C   UNL     1      -2.529   5.582  -1.110  0.00  0.00    +0.332 C 
ATOM     23  O   UNL     1      -2.039   6.679  -1.294  0.00  0.00    -0.246 OA
ATOM     24  O   UNL     1      -3.842   5.341  -0.939  0.00  0.00    -0.457 OA
ATOM     25  C   UNL     1      -4.005   3.907  -0.752  0.00  0.00    +0.264 C 
ENDBRANCH  18  20
BRANCH  15  26
ATOM     26  O   UNL     1      -0.579   0.853   2.461  0.00  0.00    -0.388 OA
ATOM     27  H   UNL     1       0.342   0.883   2.753  0.00  0.00    +0.210 HD
ENDBRANCH  15  26
BRANCH   5  28
ATOM     28  O   UNL     1       1.629   6.856   1.020  0.00  0.00    -0.461 OA
BRANCH  28  29
ATOM     29  C   UNL     1       2.218   7.603   0.074  0.00  0.00    +0.318 C 
ATOM     30  O   UNL     1       1.937   8.773  -0.034  0.00  0.00    -0.250 OA
BRANCH  29  31
ATOM     31  C   UNL     1       3.231   6.983  -0.854  0.00  0.00    +0.200 C 
ATOM     32 BR   UNL     1       3.892   8.345  -2.108  0.00  0.00    -0.080 Br
ENDBRANCH  29  31
ENDBRANCH  28  29
ENDBRANCH   5  28
TORSDOF 5
