REMARK  Name = ZINC40322636
REMARK  9 active torsions:
REMARK  status: ('A' for Active; 'I' for Inactive)
REMARK    1  A    between atoms: C_1  and  C_2
REMARK    2  A    between atoms: C_5  and  C_8
REMARK    3  A    between atoms: C_8  and  C_10
REMARK    4  A    between atoms: C_8  and  N_29
REMARK    5  A    between atoms: C_10  and  N_11
REMARK    6  A    between atoms: C_12  and  C_14
REMARK    7  A    between atoms: C_17  and  S_19
REMARK    8  A    between atoms: S_19  and  C_22
REMARK    9  A    between atoms: C_25  and  C_28
REMARK                            x       y       z     vdW  Elec       q    Type
REMARK                         _______ _______ _______ _____ _____    ______ ____
ROOT
ATOM      1  N   UNL     1       2.328  -4.301  -0.894  0.00  0.00    -0.310 N 
ATOM      2  C   UNL     1       3.640  -4.610  -0.888  0.00  0.00    +0.279 C 
ATOM      3  O   UNL     1       4.137  -5.134   0.092  0.00  0.00    -0.267 OA
ATOM      4  H   UNL     1       1.932  -3.883  -1.675  0.00  0.00    +0.149 HD
ENDROOT
BRANCH   2   5
ATOM      5  C   UNL     1       4.468  -4.315  -2.061  0.00  0.00    +0.192 A 
ATOM      6  C   UNL     1       5.802  -4.580  -2.189  0.00  0.00    +0.056 A 
ATOM      7  C   UNL     1       6.181  -4.135  -3.466  0.00  0.00    +0.070 A 
ATOM      8  C   UNL     1       5.076  -3.626  -4.053  0.00  0.00    +0.246 A 
ATOM      9  O   UNL     1       4.045  -3.740  -3.206  0.00  0.00    -0.433 OA
BRANCH   8  10
ATOM     10  S   UNL     1       5.003  -2.930  -5.671  0.00  0.00    +0.058 S 
ATOM     11  O   UNL     1       3.889  -2.048  -5.683  0.00  0.00    -0.161 OA
ATOM     12  O   UNL     1       6.319  -2.499  -5.987  0.00  0.00    -0.161 OA
BRANCH  10  13
ATOM     13  C   UNL     1       4.620  -4.240  -6.785  0.00  0.00    +0.097 A 
ATOM     14  C   UNL     1       5.638  -4.974  -7.364  0.00  0.00    +0.028 A 
ATOM     15  C   UNL     1       5.338  -6.003  -8.238  0.00  0.00    +0.005 A 
ATOM     16  C   UNL     1       4.019  -6.296  -8.533  0.00  0.00    -0.050 A 
ATOM     17  C   UNL     1       3.001  -5.562  -7.953  0.00  0.00    +0.005 A 
ATOM     18  C   UNL     1       3.301  -4.537  -7.075  0.00  0.00    +0.028 A 
ATOM     19  C   UNL     1       3.692  -7.416  -9.486  0.00  0.00    +0.044 C 
ENDBRANCH  10  13
ENDBRANCH   8  10
ENDBRANCH   2   5
BRANCH   1  20
ATOM     20  C   UNL     1       1.501  -4.596   0.279  0.00  0.00    +0.094 C 
BRANCH  20  21
ATOM     21  C   UNL     1       0.095  -4.031   0.065  0.00  0.00    -0.020 C 
BRANCH  21  26
ATOM     22  C   UNL     1       0.372   1.724  -0.371  0.00  0.00    +0.044 C 
ATOM     23  C   UNL     1       0.300   0.224  -0.257  0.00  0.00    -0.050 A 
ATOM     24  C   UNL     1       0.200  -0.552  -1.397  0.00  0.00    +0.003 A 
ATOM     25  C   UNL     1       0.134  -1.929  -1.293  0.00  0.00    +0.002 A 
ATOM     26  C   UNL     1       0.168  -2.530  -0.048  0.00  0.00    -0.059 A 
ATOM     27  C   UNL     1       0.268  -1.755   1.091  0.00  0.00    +0.002 A 
ATOM     28  C   UNL     1       0.339  -0.378   0.987  0.00  0.00    +0.003 A 
ENDBRANCH  21  26
BRANCH  21  29
ATOM     29  N   UNL     1      -0.757  -4.395   1.205  0.00  0.00    +0.385 N 
ATOM     30  C   UNL     1      -0.866  -5.856   1.286  0.00  0.00    -0.078 C 
ATOM     31  C   UNL     1      -1.685  -6.243   2.519  0.00  0.00    -0.019 C 
ATOM     32  C   UNL     1      -3.085  -5.631   2.408  0.00  0.00    -0.004 C 
ATOM     33  C   UNL     1      -2.956  -4.113   2.250  0.00  0.00    -0.019 C 
ATOM     34  C   UNL     1      -2.089  -3.805   1.027  0.00  0.00    -0.078 C 
ATOM     35  H   UNL     1      -0.346  -4.043   2.057  0.00  0.00    -0.081 HD
ENDBRANCH  21  29
ENDBRANCH  20  21
ENDBRANCH   1  20
TORSDOF 7
