REMARK  Name = ZINC11854782
REMARK  9 active torsions:
REMARK  status: ('A' for Active; 'I' for Inactive)
REMARK    1  A    between atoms: C_1  and  C_2
REMARK    2  A    between atoms: C_2  and  C_3
REMARK    3  A    between atoms: C_3  and  C_4
REMARK    4  A    between atoms: C_13  and  N_22
REMARK    5  A    between atoms: C_15  and  C_17
REMARK    6  A    between atoms: C_23  and  C_25
REMARK    7  A    between atoms: C_25  and  O_26
REMARK    8  A    between atoms: O_26  and  C_27
REMARK    9  A    between atoms: C_32  and  C_33
REMARK                            x       y       z     vdW  Elec       q    Type
REMARK                         _______ _______ _______ _____ _____    ______ ____
ROOT
ATOM      1  C   UNL     1      -1.087  -7.689  -0.049  0.00  0.00    +0.050 A 
ATOM      2  C   UNL     1      -1.481  -8.995  -0.057  0.00  0.00    +0.093 A 
ATOM      3  C   UNL     1      -2.857  -9.289  -0.045  0.00  0.00    +0.253 A 
ATOM      4  O   UNL     1      -3.246 -10.445  -0.052  0.00  0.00    -0.268 OA
ATOM      5  N   UNL     1      -3.739  -8.266  -0.020  0.00  0.00    -0.291 N 
ATOM      6  H   UNL     1      -4.692  -8.446  -0.007  0.00  0.00    +0.172 HD
ATOM      7  C   UNL     1      -3.285  -6.984  -0.018  0.00  0.00    +0.234 A 
ATOM      8  N   UNL     1      -1.998  -6.717  -0.029  0.00  0.00    -0.217 NA
ATOM      9  N   UNL     1      -4.194  -5.944   0.003  0.00  0.00    -0.185 N 
ATOM     10  C   UNL     1      -3.890  -4.612   0.013  0.00  0.00    +0.132 A 
ATOM     11  C   UNL     1      -5.059  -3.923   0.027  0.00  0.00    +0.074 A 
ATOM     12  C   UNL     1      -6.113  -4.861   0.031  0.00  0.00    +0.102 A 
ATOM     13  N   UNL     1      -5.589  -6.069   0.020  0.00  0.00    -0.162 NA
ENDROOT
BRANCH  12  14
ATOM     14  C   UNL     1      -7.556  -4.542   0.045  0.00  0.00    +0.039 A 
ATOM     15  C   UNL     1      -8.628  -5.394   0.050  0.00  0.00    +0.018 A 
ATOM     16  C   UNL     1      -9.898  -4.861   0.064  0.00  0.00    +0.008 A 
ATOM     17  C   UNL     1     -10.049  -3.511   0.074  0.00  0.00    +0.046 A 
ATOM     18  S   UNL     1      -8.356  -2.946   0.069  0.00  0.00    -0.095 S 
ENDBRANCH  12  14
BRANCH  10  19
ATOM     19  N   UNL     1      -2.610  -4.061   0.004  0.00  0.00    -0.267 N 
ATOM     20  C   UNL     1      -2.453  -2.723   0.010  0.00  0.00    +0.256 C 
ATOM     21  O   UNL     1      -3.426  -1.998   0.023  0.00  0.00    -0.272 OA
ATOM     22  H   UNL     1      -1.833  -4.641  -0.006  0.00  0.00    +0.156 HD
BRANCH  20  23
ATOM     23  C   UNL     1      -1.069  -2.126   0.000  0.00  0.00    +0.324 C 
BRANCH  23  24
ATOM     24  O   UNL     1      -1.165  -0.701   0.009  0.00  0.00    -0.483 OA
BRANCH  24  25
ATOM     25  C   UNL     1       0.002  -0.004   0.002  0.00  0.00    +0.124 A 
ATOM     26  C   UNL     1       1.214  -0.679  -0.013  0.00  0.00    +0.046 A 
ATOM     27  C   UNL     1       2.399   0.031  -0.021  0.00  0.00    +0.004 A 
ATOM     28  C   UNL     1       2.377   1.414  -0.013  0.00  0.00    +0.000 A 
ATOM     29  C   UNL     1       1.171   2.089   0.002  0.00  0.00    +0.007 A 
ATOM     30  C   UNL     1      -0.017   1.383   0.010  0.00  0.00    -0.009 A 
ATOM     31  C   UNL     1      -1.332   2.119   0.020  0.00  0.00    +0.047 C 
ENDBRANCH  24  25
ENDBRANCH  23  24
ENDBRANCH  20  23
ENDBRANCH  10  19
BRANCH   1  32
ATOM     32  C   UNL     1       0.380  -7.345  -0.062  0.00  0.00    +0.055 C 
BRANCH  32  34
ATOM     33  C   UNL     1       2.322  -6.743  -1.515  0.00  0.00    +0.004 C 
ATOM     34  C   UNL     1       0.832  -7.092  -1.502  0.00  0.00    +0.003 C 
ENDBRANCH  32  34
ENDBRANCH   1  32
TORSDOF 7
