REMARK  Name = ZINC00001669
REMARK  6 active torsions:
REMARK  status: ('A' for Active; 'I' for Inactive)
REMARK    1  A    between atoms: C_1  and  C_2
REMARK    2  A    between atoms: C_2  and  C_3
REMARK    3  A    between atoms: C_2  and  C_7
REMARK    4  A    between atoms: C_2  and  O_11
REMARK    5  A    between atoms: C_3  and  C_4
REMARK    6  A    between atoms: C_7  and  C_8
REMARK                            x       y       z     vdW  Elec       q    Type
REMARK                         _______ _______ _______ _____ _____    ______ ____
ROOT
ATOM      1  C   UNL     1      -0.125   1.518   0.084  0.00  0.00    +0.042 C 
ATOM      2  C   UNL     1       0.001  -0.004   0.003  0.00  0.00    +0.084 C 
ENDROOT
BRANCH   2   3
ATOM      3  O   UNL     1       0.628  -0.365  -1.230  0.00  0.00    -0.388 OA
ATOM      4  H   UNL     1       0.741  -1.318  -1.349  0.00  0.00    +0.210 HD
ENDBRANCH   2   3
BRANCH   2   5
ATOM      5  C   UNL     1       0.848  -0.509   1.173  0.00  0.00    +0.160 C 
BRANCH   5   6
ATOM      6  C   UNL     1       0.970  -2.009   1.094  0.00  0.00    +0.359 C 
ATOM      7  O   UNL     1       0.509  -2.609   0.138  0.00  0.00    -0.246 OA
ATOM      8  O   UNL     1       1.529  -2.623   1.987  0.00  0.00    -0.246 OA
ENDBRANCH   5   6
ENDBRANCH   2   5
BRANCH   2   9
ATOM      9  C   UNL     1      -1.391  -0.636   0.071  0.00  0.00    +0.160 C 
BRANCH   9  10
ATOM     10  C   UNL     1      -2.225  -0.138  -1.082  0.00  0.00    +0.359 C 
ATOM     11  O   UNL     1      -1.750   0.648  -1.883  0.00  0.00    -0.246 OA
ATOM     12  O   UNL     1      -3.375  -0.522  -1.213  0.00  0.00    -0.246 OA
ENDBRANCH   9  10
ENDBRANCH   2   9
TORSDOF 5
