REMARK  Name = ZINC37264013
REMARK  12 active torsions:
REMARK  status: ('A' for Active; 'I' for Inactive)
REMARK    1  A    between atoms: C_1  and  C_2
REMARK    2  A    between atoms: C_2  and  C_3
REMARK    3  A    between atoms: C_3  and  N_4
REMARK    4  A    between atoms: C_5  and  C_7
REMARK    5  A    between atoms: C_7  and  N_8
REMARK    6  A    between atoms: C_11  and  C_21
REMARK    7  A    between atoms: N_13  and  C_14
REMARK    8  A    between atoms: C_19  and  C_20
REMARK    9  A    between atoms: C_21  and  C_22
REMARK   10  A    between atoms: C_21  and  C_23
REMARK   11  A    between atoms: C_21  and  C_24
REMARK   12  A    between atoms: C_25  and  C_31
REMARK                            x       y       z     vdW  Elec       q    Type
REMARK                         _______ _______ _______ _____ _____    ______ ____
ROOT
ATOM      1  N   UNL     1      -4.852 -10.651  -0.467  0.00  0.00    -0.246 N 
ATOM      2  C   UNL     1      -5.013  -9.578   0.422  0.00  0.00    +0.136 A 
ATOM      3  C   UNL     1      -5.945  -9.544   1.402  0.00  0.00    +0.034 A 
ATOM      4  C   UNL     1      -5.816  -8.329   2.076  0.00  0.00    +0.075 A 
ATOM      5  N   UNL     1      -4.837  -7.655   1.522  0.00  0.00    -0.169 NA
ATOM      6  N   UNL     1      -4.308  -8.422   0.472  0.00  0.00    -0.217 N 
ATOM      7  C   UNL     1      -6.931 -10.648   1.690  0.00  0.00    +0.112 C 
ATOM      8  S   UNL     1      -8.205 -10.650   0.378  0.00  0.00    -0.138 S 
ATOM      9  C   UNL     1      -7.205 -10.346  -1.117  0.00  0.00    +0.166 C 
ATOM     10  C   UNL     1      -5.935 -11.138  -1.082  0.00  0.00    +0.231 C 
ATOM     11  O   UNL     1      -5.890 -12.229  -1.610  0.00  0.00    -0.274 OA
ENDROOT
BRANCH   6  12
ATOM     12  C   UNL     1      -3.246  -8.060  -0.368  0.00  0.00    +0.070 A 
ATOM     13  C   UNL     1      -3.470  -7.858  -1.724  0.00  0.00    +0.028 A 
ATOM     14  C   UNL     1      -2.421  -7.502  -2.549  0.00  0.00    +0.002 A 
ATOM     15  C   UNL     1      -1.150  -7.346  -2.027  0.00  0.00    +0.000 A 
ATOM     16  C   UNL     1      -0.925  -7.547  -0.677  0.00  0.00    +0.005 A 
ATOM     17  C   UNL     1      -1.970  -7.898   0.154  0.00  0.00    -0.025 A 
ATOM     18  C   UNL     1      -1.725  -8.110   1.626  0.00  0.00    +0.046 C 
ENDBRANCH   6  12
BRANCH   7  19
ATOM     19  C   UNL     1      -7.579 -10.411   3.030  0.00  0.00    -0.030 A 
ATOM     20  C   UNL     1      -8.865  -9.909   3.095  0.00  0.00    +0.008 A 
ATOM     21  C   UNL     1      -9.461  -9.692   4.323  0.00  0.00    +0.038 A 
ATOM     22  C   UNL     1      -8.769  -9.976   5.488  0.00  0.00    +0.123 A 
ATOM     23  C   UNL     1      -7.480 -10.479   5.421  0.00  0.00    +0.038 A 
ATOM     24  C   UNL     1      -6.888 -10.700   4.192  0.00  0.00    +0.008 A 
ATOM     25  F   UNL     1      -9.350  -9.763   6.689  0.00  0.00    -0.205 F 
ENDBRANCH   7  19
BRANCH   4  26
ATOM     26  C   UNL     1      -6.657  -7.871   3.239  0.00  0.00    +0.007 C 
ATOM     27  C   UNL     1      -6.145  -8.520   4.526  0.00  0.00    +0.017 C 
ATOM     28  C   UNL     1      -6.566  -6.349   3.365  0.00  0.00    +0.017 C 
ATOM     29  C   UNL     1      -8.114  -8.277   3.007  0.00  0.00    +0.017 C 
ENDBRANCH   4  26
BRANCH   1  30
ATOM     30  C   UNL     1      -3.526 -11.221  -0.721  0.00  0.00    +0.210 C 
BRANCH  30  32
ATOM     31  N   UNL     1      -2.056 -12.931   0.296  0.00  0.00    -0.314 N 
ATOM     32  C   UNL     1      -3.270 -12.347   0.248  0.00  0.00    +0.231 C 
ATOM     33  O   UNL     1      -4.155 -12.726   0.984  0.00  0.00    -0.274 OA
ATOM     34  H   UNL     1      -1.322 -12.568  -0.224  0.00  0.00    +0.149 HD
BRANCH  31  35
ATOM     35  C   UNL     1      -1.845 -14.114   1.134  0.00  0.00    +0.104 C 
BRANCH  35  37
ATOM     36  C   UNL     1      -0.207 -15.880   1.794  0.00  0.00    +0.005 C 
ATOM     37  C   UNL     1      -0.427 -14.645   0.919  0.00  0.00    +0.015 C 
ENDBRANCH  35  37
ENDBRANCH  31  35
ENDBRANCH  30  32
ENDBRANCH   1  30
TORSDOF 7
