REMARK  Name = ZINC42855314
REMARK  9 active torsions:
REMARK  status: ('A' for Active; 'I' for Inactive)
REMARK    1  A    between atoms: C_1  and  C_2
REMARK    2  A    between atoms: C_2  and  C_4
REMARK    3  A    between atoms: C_2  and  N_13
REMARK    4  A    between atoms: N_9  and  C_10
REMARK    5  A    between atoms: C_10  and  C_11
REMARK    6  A    between atoms: C_10  and  C_12
REMARK    7  A    between atoms: N_13  and  C_14
REMARK    8  A    between atoms: C_18  and  N_20
REMARK    9  A    between atoms: C_21  and  C_23
REMARK                            x       y       z     vdW  Elec       q    Type
REMARK                         _______ _______ _______ _____ _____    ______ ____
ROOT
ATOM      1  N   UNL     1      -1.254  -0.854  -0.040  0.00  0.00    -0.333 N 
ATOM      2  H   UNL     1      -1.636  -1.208   0.778  0.00  0.00    +0.147 HD
ENDROOT
BRANCH   1   3
ATOM      3  C   UNL     1      -2.014  -0.824  -1.211  0.00  0.00    +0.029 A 
ATOM      4  C   UNL     1      -1.465  -0.322  -2.385  0.00  0.00    +0.023 A 
ATOM      5  C   UNL     1      -2.217  -0.291  -3.543  0.00  0.00    +0.004 A 
ATOM      6  C   UNL     1      -3.517  -0.758  -3.539  0.00  0.00    +0.023 A 
ATOM      7  C   UNL     1      -4.073  -1.261  -2.369  0.00  0.00    +0.035 A 
ATOM      8  C   UNL     1      -3.318  -1.299  -1.205  0.00  0.00    +0.046 A 
BRANCH   7   9
ATOM      9  N   UNL     1      -5.389  -1.734  -2.366  0.00  0.00    -0.281 N 
ATOM     10  C   UNL     1      -6.152  -1.593  -1.264  0.00  0.00    +0.255 C 
ATOM     11  O   UNL     1      -5.731  -0.972  -0.306  0.00  0.00    -0.269 OA
ATOM     12  H   UNL     1      -5.752  -2.162  -3.156  0.00  0.00    +0.155 HD
BRANCH  10  13
ATOM     13  C   UNL     1      -7.490  -2.190  -1.219  0.00  0.00    +0.074 A 
ATOM     14  C   UNL     1      -8.427  -2.159  -0.197  0.00  0.00    +0.021 A 
ATOM     15  C   UNL     1      -9.607  -2.816  -0.449  0.00  0.00    +0.008 A 
ATOM     16  C   UNL     1      -9.775  -3.434  -1.645  0.00  0.00    +0.046 A 
ATOM     17  S   UNL     1      -8.341  -3.138  -2.467  0.00  0.00    -0.092 S 
ENDBRANCH  10  13
ENDBRANCH   7   9
ENDBRANCH   1   3
BRANCH   1  19
ATOM     18  C   UNL     1       0.114   1.162   0.172  0.00  0.00    +0.038 C 
ATOM     19  C   UNL     1       0.122  -0.352  -0.047  0.00  0.00    +0.154 C 
BRANCH  19  20
ATOM     20  C   UNL     1       0.905  -1.015   1.057  0.00  0.00    +0.240 C 
ATOM     21  O   UNL     1       0.367  -1.827   1.778  0.00  0.00    -0.273 OA
ATOM     22  N   UNL     1       2.204  -0.706   1.242  0.00  0.00    -0.239 N 
ATOM     23  C   UNL     1       2.904  -1.299   2.229  0.00  0.00    +0.306 C 
ATOM     24  O   UNL     1       2.364  -2.113   2.952  0.00  0.00    -0.252 OA
ATOM     25  N   UNL     1       4.202  -0.989   2.414  0.00  0.00    -0.297 N 
ATOM     26  H   UNL     1       2.635  -0.056   0.665  0.00  0.00    +0.159 HD
ATOM     27  H   UNL     1       4.633  -0.340   1.837  0.00  0.00    +0.151 HD
BRANCH  25  28
ATOM     28  C   UNL     1       4.963  -1.634   3.487  0.00  0.00    +0.068 C 
ATOM     29  C   UNL     1       6.452  -1.626   3.133  0.00  0.00    +0.027 C 
ATOM     30  C   UNL     1       4.747  -0.871   4.796  0.00  0.00    +0.027 C 
ENDBRANCH  25  28
ENDBRANCH  19  20
ENDBRANCH   1  19
TORSDOF 6
