REMARK  Name = ZINC64143739
REMARK  9 active torsions:
REMARK  status: ('A' for Active; 'I' for Inactive)
REMARK    1  A    between atoms: C_1  and  C_2
REMARK    2  A    between atoms: C_2  and  C_3
REMARK    3  A    between atoms: C_8  and  N_9
REMARK    4  A    between atoms: C_10  and  C_12
REMARK    5  A    between atoms: C_12  and  N_13
REMARK    6  A    between atoms: C_14  and  C_16
REMARK    7  A    between atoms: C_21  and  N_22
REMARK    8  A    between atoms: N_22  and  S_23
REMARK    9  A    between atoms: S_23  and  C_26
REMARK                            x       y       z     vdW  Elec       q    Type
REMARK                         _______ _______ _______ _____ _____    ______ ____
ROOT
ATOM      1  C   UNL     1      -5.816  -0.974   6.639  0.00  0.00    +0.059 A 
ATOM      2  C   UNL     1      -4.941  -1.427   7.630  0.00  0.00    +0.015 A 
ATOM      3  C   UNL     1      -5.408  -1.658   8.905  0.00  0.00    +0.001 A 
ATOM      4  C   UNL     1      -6.743  -1.445   9.211  0.00  0.00    +0.002 A 
ATOM      5  C   UNL     1      -7.619  -0.998   8.244  0.00  0.00    +0.025 A 
ATOM      6  C   UNL     1      -7.165  -0.752   6.954  0.00  0.00    +0.060 A 
ENDROOT
BRANCH   1   8
ATOM      7  N   UNL     1      -4.025  -0.938   4.974  0.00  0.00    -0.303 N 
ATOM      8  C   UNL     1      -5.322  -0.724   5.272  0.00  0.00    +0.246 C 
ATOM      9  O   UNL     1      -6.085  -0.325   4.414  0.00  0.00    -0.270 OA
ATOM     10  H   UNL     1      -3.416  -1.256   5.659  0.00  0.00    +0.150 HD
BRANCH   7  11
ATOM     11  C   UNL     1      -3.535  -0.690   3.616  0.00  0.00    +0.200 C 
BRANCH  11  13
ATOM     12  N   UNL     1      -1.393  -0.849   2.389  0.00  0.00    -0.284 N 
ATOM     13  C   UNL     1      -2.062  -1.004   3.549  0.00  0.00    +0.234 C 
ATOM     14  O   UNL     1      -1.480  -1.397   4.537  0.00  0.00    -0.274 OA
ATOM     15  H   UNL     1      -1.843  -0.474   1.616  0.00  0.00    +0.155 HD
BRANCH  12  21
ATOM     16  C   UNL     1       0.448  -1.760   1.119  0.00  0.00    -0.026 A 
ATOM     17  C   UNL     1       1.777  -2.127   1.034  0.00  0.00    +0.005 A 
ATOM     18  C   UNL     1       2.610  -1.972   2.126  0.00  0.00    +0.000 A 
ATOM     19  C   UNL     1       2.117  -1.447   3.307  0.00  0.00    +0.002 A 
ATOM     20  C   UNL     1       0.790  -1.077   3.398  0.00  0.00    +0.023 A 
ATOM     21  C   UNL     1      -0.049  -1.228   2.302  0.00  0.00    +0.037 A 
BRANCH  16  23
ATOM     22  C   UNL     1      -0.519  -0.619  -0.859  0.00  0.00    +0.009 C 
ATOM     23  C   UNL     1      -0.459  -1.930  -0.072  0.00  0.00    +0.033 C 
ENDBRANCH  16  23
ENDBRANCH  12  21
ENDBRANCH  11  13
ENDBRANCH   7  11
ENDBRANCH   1   8
BRANCH   6  24
ATOM     24  N   UNL     1      -8.043  -0.296   5.979  0.00  0.00    -0.216 N 
ATOM     25  H   UNL     1      -7.944  -0.591   5.061  0.00  0.00    +0.174 HD
BRANCH  24  26
ATOM     26  S   UNL     1      -9.261   0.750   6.386  0.00  0.00    +0.072 S 
ATOM     27  O   UNL     1      -9.892   1.130   5.171  0.00  0.00    -0.150 OA
ATOM     28  O   UNL     1      -9.972   0.149   7.459  0.00  0.00    -0.150 OA
BRANCH  26  29
ATOM     29  C   UNL     1      -8.503   2.203   7.036  0.00  0.00    +0.110 A 
ATOM     30  C   UNL     1      -8.235   2.280   8.467  0.00  0.00    +0.031 A 
ATOM     31  C   UNL     1      -7.657   3.364   9.028  0.00  0.00    +0.027 A 
ATOM     32  C   UNL     1      -7.284   4.500   8.188  0.00  0.00    +0.056 A 
ATOM     33  N   UNL     1      -6.726   5.665   8.403  0.00  0.00    -0.268 N 
ATOM     34  C   UNL     1      -6.626   6.327   7.202  0.00  0.00    +0.308 C 
ATOM     35  O   UNL     1      -6.153   7.434   7.054  0.00  0.00    -0.252 OA
ATOM     36  N   UNL     1      -7.141   5.545   6.195  0.00  0.00    -0.267 N 
ATOM     37  C   UNL     1      -7.560   4.420   6.718  0.00  0.00    +0.058 A 
ATOM     38  C   UNL     1      -8.184   3.208   6.192  0.00  0.00    +0.054 A 
ATOM     39  H   UNL     1      -7.186   5.786   5.257  0.00  0.00    +0.156 HD
ATOM     40  H   UNL     1      -6.434   6.003   9.264  0.00  0.00    +0.156 HD
ENDBRANCH  26  29
ENDBRANCH  24  26
ENDBRANCH   6  24
TORSDOF 8
