REMARK  Name = ZINC13080519
REMARK  7 active torsions:
REMARK  status: ('A' for Active; 'I' for Inactive)
REMARK    1  A    between atoms: C_1  and  C_2
REMARK    2  A    between atoms: C_2  and  O_3
REMARK    3  A    between atoms: O_3  and  C_4
REMARK    4  A    between atoms: C_4  and  C_5
REMARK    5  A    between atoms: C_5  and  N_6
REMARK    6  A    between atoms: N_15  and  C_16
REMARK    7  A    between atoms: C_16  and  C_18
REMARK                            x       y       z     vdW  Elec       q    Type
REMARK                         _______ _______ _______ _____ _____    ______ ____
ROOT
ATOM      1  N   UNL     1      -1.269   1.965   0.015  0.00  0.00    -0.319 N 
ATOM      2  C   UNL     1      -0.003   1.409  -0.047  0.00  0.00    +0.058 A 
ATOM      3  C   UNL     1       1.235   2.069  -0.087  0.00  0.00    +0.030 A 
ATOM      4  C   UNL     1       2.410   1.357  -0.141  0.00  0.00    +0.040 A 
ATOM      5  C   UNL     1       2.409  -0.030  -0.159  0.00  0.00    +0.125 A 
ATOM      6  C   UNL     1       1.200  -0.706  -0.121  0.00  0.00    +0.055 A 
ATOM      7  C   UNL     1       0.026   0.007  -0.066  0.00  0.00    +0.042 A 
ATOM      8  S   UNL     1      -1.691  -0.437  -0.004  0.00  0.00    -0.052 S 
ATOM      9  C   UNL     1      -2.365   1.160   0.042  0.00  0.00    +0.167 A 
ATOM     10  N   UNL     1      -3.645   1.513   0.098  0.00  0.00    -0.152 NA
ATOM     11  F   UNL     1       3.573  -0.714  -0.214  0.00  0.00    -0.205 F 
ENDROOT
BRANCH  10  12
ATOM     12  C   UNL     1      -4.597   0.575   0.123  0.00  0.00    +0.269 C 
ATOM     13  O   UNL     1      -4.291  -0.604   0.095  0.00  0.00    -0.268 OA
BRANCH  12  14
ATOM     14  C   UNL     1      -6.024   0.969   0.184  0.00  0.00    +0.039 A 
ATOM     15  C   UNL     1      -6.380   2.317   0.216  0.00  0.00    +0.013 A 
ATOM     16  C   UNL     1      -7.710   2.668   0.275  0.00  0.00    +0.004 A 
ATOM     17  C   UNL     1      -8.702   1.694   0.301  0.00  0.00    -0.044 A 
ATOM     18  C   UNL     1      -8.356   0.360   0.267  0.00  0.00    -0.043 A 
ATOM     19  C   UNL     1      -7.019  -0.004   0.205  0.00  0.00    +0.017 A 
ATOM     20  C   UNL     1      -9.380  -0.744   0.283  0.00  0.00    +0.035 C 
ATOM     21  C   UNL     1     -10.728  -0.219   0.774  0.00  0.00    +0.005 C 
ATOM     22  C   UNL     1     -11.083   1.033  -0.037  0.00  0.00    +0.005 C 
ATOM     23  C   UNL     1     -10.134   2.157   0.372  0.00  0.00    +0.035 C 
ENDBRANCH  12  14
ENDBRANCH  10  12
BRANCH   1  24
ATOM     24  C   UNL     1      -1.429   3.421   0.040  0.00  0.00    +0.152 C 
BRANCH  24  25
ATOM     25  C   UNL     1      -2.668   3.812  -0.768  0.00  0.00    +0.181 C 
BRANCH  25  26
ATOM     26  O   UNL     1      -2.749   5.236  -0.856  0.00  0.00    -0.378 OA
BRANCH  26  28
ATOM     27  C   UNL     1      -3.862   7.239  -1.625  0.00  0.00    +0.034 C 
ATOM     28  C   UNL     1      -3.877   5.709  -1.595  0.00  0.00    +0.156 C 
ENDBRANCH  26  28
ENDBRANCH  25  26
ENDBRANCH  24  25
ENDBRANCH   1  24
TORSDOF 6
