REMARK  Name = ZINC36027156
REMARK  6 active torsions:
REMARK  status: ('A' for Active; 'I' for Inactive)
REMARK    1  A    between atoms: C_1  and  C_2
REMARK    2  A    between atoms: N_6  and  C_24
REMARK    3  A    between atoms: N_11  and  S_14
REMARK    4  A    between atoms: S_14  and  C_17
REMARK    5  A    between atoms: C_24  and  C_26
REMARK    6  A    between atoms: C_24  and  C_27
REMARK                            x       y       z     vdW  Elec       q    Type
REMARK                         _______ _______ _______ _____ _____    ______ ____
ROOT
ATOM      1  C   UNL     1      -0.403   1.998   0.330  0.00  0.00    -0.004 C 
ATOM      2  C   UNL     1      -0.588   0.565  -0.172  0.00  0.00    +0.016 C 
ATOM      3  C   UNL     1      -1.912   0.007   0.303  0.00  0.00    +0.201 C 
ATOM      4  O   UNL     1      -2.998   0.258  -0.174  0.00  0.00    -0.277 OA
ATOM      5  N   UNL     1      -1.680  -0.816   1.346  0.00  0.00    -0.307 N 
ATOM      6  C   UNL     1      -0.242  -0.854   1.629  0.00  0.00    +0.006 C 
ATOM      7  N   UNL     1       0.437  -0.327   0.423  0.00  0.00    +0.401 N 
ATOM      8  C   UNL     1       0.083   0.028   2.832  0.00  0.00    +0.023 C 
ATOM      9  C   UNL     1      -0.655  -0.502   4.066  0.00  0.00    +0.109 C 
ATOM     10  N   UNL     1      -0.323  -1.923   4.240  0.00  0.00    -0.177 NA
ATOM     11  C   UNL     1      -0.530  -2.842   3.112  0.00  0.00    +0.109 C 
ATOM     12  C   UNL     1       0.207  -2.291   1.887  0.00  0.00    +0.023 C 
ATOM     13  H   UNL     1       0.669  -1.076  -0.212  0.00  0.00    -0.082 HD
ATOM     14  H   UNL     1       1.261   0.197   0.676  0.00  0.00    -0.082 HD
ENDROOT
BRANCH  10  15
ATOM     15  S   UNL     1       0.273  -2.479   5.682  0.00  0.00    +0.061 S 
ATOM     16  O   UNL     1       0.994  -3.668   5.392  0.00  0.00    -0.153 OA
ATOM     17  O   UNL     1       0.871  -1.365   6.331  0.00  0.00    -0.153 OA
BRANCH  15  18
ATOM     18  C   UNL     1      -1.108  -2.954   6.668  0.00  0.00    +0.106 A 
ATOM     19  C   UNL     1      -1.712  -2.032   7.501  0.00  0.00    +0.030 A 
ATOM     20  C   UNL     1      -2.795  -2.405   8.275  0.00  0.00    +0.022 A 
ATOM     21  C   UNL     1      -3.275  -3.701   8.215  0.00  0.00    +0.041 A 
ATOM     22  C   UNL     1      -2.669  -4.624   7.380  0.00  0.00    +0.022 A 
ATOM     23  C   UNL     1      -1.590  -4.248   6.603  0.00  0.00    +0.030 A 
ATOM     24 CL   UNL     1      -4.635  -4.170   9.186  0.00  0.00    -0.084 Cl
ENDBRANCH  15  18
ENDBRANCH  10  15
BRANCH   5  25
ATOM     25  C   UNL     1      -2.707  -1.557   2.083  0.00  0.00    +0.101 C 
ATOM     26  C   UNL     1      -3.985  -0.720   2.158  0.00  0.00    +0.033 C 
BRANCH  25  27
ATOM     27  C   UNL     1      -2.996  -2.854   1.373  0.00  0.00    -0.027 A 
ATOM     28  C   UNL     1      -2.905  -2.924  -0.004  0.00  0.00    +0.005 A 
ATOM     29  C   UNL     1      -3.171  -4.114  -0.655  0.00  0.00    +0.000 A 
ATOM     30  C   UNL     1      -3.527  -5.235   0.071  0.00  0.00    +0.000 A 
ATOM     31  C   UNL     1      -3.618  -5.165   1.448  0.00  0.00    +0.000 A 
ATOM     32  C   UNL     1      -3.348  -3.977   2.100  0.00  0.00    +0.005 A 
ENDBRANCH  25  27
ENDBRANCH   5  25
TORSDOF 4
