REMARK  Name = ZINC04545449
REMARK  7 active torsions:
REMARK  status: ('A' for Active; 'I' for Inactive)
REMARK    1  A    between atoms: C_1  and  C_2
REMARK    2  A    between atoms: C_2  and  C_3
REMARK    3  A    between atoms: C_12  and  O_26
REMARK    4  A    between atoms: C_14  and  C_17
REMARK    5  A    between atoms: C_20  and  O_23
REMARK    6  A    between atoms: O_23  and  C_24
REMARK    7  A    between atoms: C_24  and  C_25
REMARK                            x       y       z     vdW  Elec       q    Type
REMARK                         _______ _______ _______ _____ _____    ______ ____
ROOT
ATOM      1  C   UNL     1       0.718  -0.497  -1.257  0.00  0.00    -0.006 C 
ATOM      2  C   UNL     1       0.845  -2.023  -1.210  0.00  0.00    +0.008 C 
ATOM      3  C   UNL     1       1.769  -2.503  -2.332  0.00  0.00    +0.037 C 
ATOM      4  C   UNL     1       1.283  -1.917  -3.650  0.00  0.00    -0.023 A 
ATOM      5  C   UNL     1       0.454  -0.849  -3.676  0.00  0.00    -0.004 A 
ATOM      6  S   UNL     1       0.171  -0.538  -5.398  0.00  0.00    -0.078 S 
ATOM      7  C   UNL     1       1.093  -1.752  -6.050  0.00  0.00    +0.080 A 
ATOM      8  C   UNL     1       1.650  -2.427  -4.958  0.00  0.00    +0.068 A 
ATOM      9  C   UNL     1       2.549  -3.574  -5.247  0.00  0.00    +0.220 C 
ATOM     10  N   UNL     1       2.568  -4.036  -6.468  0.00  0.00    -0.223 NA
ATOM     11  C   UNL     1       1.722  -3.546  -7.550  0.00  0.00    +0.224 C 
ATOM     12  N   UNL     1       1.344  -2.136  -7.348  0.00  0.00    -0.313 N 
ATOM     13  C   UNL     1      -0.094  -0.102  -2.499  0.00  0.00    +0.046 C 
ATOM     14  H   UNL     1       1.275  -1.513  -8.089  0.00  0.00    +0.149 HD
ENDROOT
BRANCH  11  15
ATOM     15  C   UNL     1       0.472  -4.385  -7.615  0.00  0.00    -0.005 A 
ATOM     16  C   UNL     1      -0.710  -3.829  -8.068  0.00  0.00    +0.011 A 
ATOM     17  C   UNL     1      -1.857  -4.595  -8.128  0.00  0.00    +0.046 A 
ATOM     18  C   UNL     1      -1.823  -5.925  -7.734  0.00  0.00    +0.121 A 
ATOM     19  C   UNL     1      -0.636  -6.481  -7.280  0.00  0.00    +0.046 A 
ATOM     20  C   UNL     1       0.510  -5.712  -7.227  0.00  0.00    +0.011 A 
BRANCH  18  21
ATOM     21  O   UNL     1      -2.951  -6.681  -7.792  0.00  0.00    -0.492 OA
BRANCH  21  22
ATOM     22  C   UNL     1      -2.842  -8.042  -7.370  0.00  0.00    +0.225 C 
ATOM     23  C   UNL     1      -4.202  -8.728  -7.505  0.00  0.00    +0.048 C 
ENDBRANCH  21  22
ENDBRANCH  18  21
ENDBRANCH  11  15
BRANCH   1  25
ATOM     24  C   UNL     1      -0.019   1.526   0.010  0.00  0.00    +0.004 C 
ATOM     25  C   UNL     1       0.002  -0.004   0.002  0.00  0.00    +0.000 C 
ENDBRANCH   1  25
BRANCH   9  26
ATOM     26  O   UNL     1       3.321  -4.121  -4.280  0.00  0.00    -0.492 OA
ATOM     27  H   UNL     1       3.865  -4.861  -4.582  0.00  0.00    +0.294 HD
ENDBRANCH   9  26
TORSDOF 5
