REMARK  Name = ZINC39702028
REMARK  5 active torsions:
REMARK  status: ('A' for Active; 'I' for Inactive)
REMARK    1  A    between atoms: C_1  and  O_2
REMARK    2  A    between atoms: O_2  and  C_3
REMARK    3  A    between atoms: C_8  and  C_9
REMARK    4  A    between atoms: C_12  and  C_15
REMARK    5  A    between atoms: C_17  and  C_28
REMARK                            x       y       z     vdW  Elec       q    Type
REMARK                         _______ _______ _______ _____ _____    ______ ____
ROOT
ATOM      1  C   UNL     1      -2.956  -5.234  -0.449  0.00  0.00    +0.154 C 
ATOM      2  C   UNL     1      -2.622  -6.556  -1.112  0.00  0.00    -0.014 C 
ATOM      3  C   UNL     1      -3.039  -7.718  -0.457  0.00  0.00    +0.002 A 
ATOM      4  C   UNL     1      -2.769  -8.990  -1.004  0.00  0.00    +0.025 A 
ATOM      5  C   UNL     1      -3.186 -10.106  -0.345  0.00  0.00    +0.019 A 
ATOM      6  C   UNL     1      -3.875 -10.018   0.863  0.00  0.00    +0.017 A 
ATOM      7  C   UNL     1      -4.163  -8.819   1.440  0.00  0.00    +0.025 A 
ATOM      8  C   UNL     1      -3.764  -7.625   0.815  0.00  0.00    +0.041 A 
ATOM      9  N   UNL     1      -4.048  -6.448   1.383  0.00  0.00    -0.284 N 
ATOM     10  C   UNL     1      -3.707  -5.286   0.862  0.00  0.00    +0.230 C 
ATOM     11  O   UNL     1      -4.000  -4.254   1.437  0.00  0.00    -0.274 OA
ATOM     12 BR   UNL     1      -2.823 -11.808  -1.084  0.00  0.00    -0.050 Br
ATOM     13  H   UNL     1      -4.531  -6.450   2.225  0.00  0.00    +0.155 HD
ENDROOT
BRANCH   2  14
ATOM     14  C   UNL     1      -1.920  -6.611  -2.343  0.00  0.00    -0.020 A 
ATOM     15  C   UNL     1      -0.659  -7.225  -2.410  0.00  0.00    +0.008 A 
ATOM     16  C   UNL     1       0.015  -7.274  -3.611  0.00  0.00    +0.001 A 
ATOM     17  C   UNL     1      -0.547  -6.719  -4.749  0.00  0.00    +0.000 A 
ATOM     18  C   UNL     1      -1.791  -6.110  -4.693  0.00  0.00    +0.001 A 
ATOM     19  C   UNL     1      -2.484  -6.056  -3.504  0.00  0.00    +0.008 A 
ENDBRANCH   2  14
BRANCH   1  22
ATOM     20  C   UNL     1      -0.056  -2.735  -0.060  0.00  0.00    +0.243 C 
ATOM     21  C   UNL     1      -1.535  -3.059   0.257  0.00  0.00    +0.107 C 
ATOM     22  C   UNL     1      -1.663  -4.497  -0.211  0.00  0.00    +0.078 C 
ATOM     23  N   UNL     1      -0.491  -4.976  -0.370  0.00  0.00    -0.092 NA
ATOM     24  O   UNL     1       0.535  -4.051  -0.065  0.00  0.00    -0.385 OA
BRANCH  20  30
ATOM     25  C   UNL     1       0.455  -0.492   0.939  0.00  0.00    +0.127 A 
ATOM     26  C   UNL     1       1.011   0.297   1.935  0.00  0.00    +0.046 A 
ATOM     27  C   UNL     1       1.663  -0.293   3.000  0.00  0.00    +0.004 A 
ATOM     28  C   UNL     1       1.762  -1.671   3.073  0.00  0.00    +0.001 A 
ATOM     29  C   UNL     1       1.210  -2.460   2.082  0.00  0.00    +0.011 A 
ATOM     30  C   UNL     1       0.552  -1.874   1.017  0.00  0.00    +0.037 A 
BRANCH  25  32
ATOM     31  C   UNL     1      -0.248   1.514  -0.126  0.00  0.00    +0.277 C 
ATOM     32  O   UNL     1      -0.187   0.086  -0.110  0.00  0.00    -0.495 OA
ENDBRANCH  25  32
ENDBRANCH  20  30
ENDBRANCH   1  22
TORSDOF 4
