REMARK  Name = ZINC38990309
REMARK  11 active torsions:
REMARK  status: ('A' for Active; 'I' for Inactive)
REMARK    1  A    between atoms: C_1  and  C_2
REMARK    2  A    between atoms: C_6  and  N_16
REMARK    3  A    between atoms: C_7  and  C_12
REMARK    4  A    between atoms: C_12  and  O_14
REMARK    5  A    between atoms: O_14  and  C_15
REMARK    6  A    between atoms: C_17  and  C_19
REMARK    7  A    between atoms: C_19  and  N_20
REMARK    8  A    between atoms: N_23  and  C_28
REMARK    9  A    between atoms: C_24  and  C_27
REMARK   10  A    between atoms: C_31  and  O_34
REMARK   11  A    between atoms: O_34  and  C_35
REMARK                            x       y       z     vdW  Elec       q    Type
REMARK                         _______ _______ _______ _____ _____    ______ ____
ROOT
ATOM      1  N   UNL     1       0.125  -4.078  -0.594  0.00  0.00    -0.285 N 
ATOM      2  C   UNL     1       0.349  -4.482  -1.860  0.00  0.00    +0.231 C 
ATOM      3  O   UNL     1       0.655  -3.673  -2.710  0.00  0.00    -0.274 OA
ATOM      4  H   UNL     1      -0.065  -4.731   0.097  0.00  0.00    +0.155 HD
ENDROOT
BRANCH   1  10
ATOM      5  C   UNL     1      -1.038   0.384   4.272  0.00  0.00    +0.044 C 
ATOM      6  C   UNL     1      -0.729  -0.486   3.080  0.00  0.00    -0.048 A 
ATOM      7  C   UNL     1      -0.914  -1.867   3.182  0.00  0.00    +0.004 A 
ATOM      8  C   UNL     1      -0.653  -2.698   2.142  0.00  0.00    +0.012 A 
ATOM      9  C   UNL     1      -0.180  -2.164   0.920  0.00  0.00    +0.018 A 
ATOM     10  C   UNL     1       0.165  -2.752  -0.285  0.00  0.00    +0.053 C 
ATOM     11  C   UNL     1       0.595  -1.617  -1.188  0.00  0.00    +0.234 C 
ATOM     12  N   UNL     1       0.459  -0.393  -0.391  0.00  0.00    -0.367 N 
ATOM     13  C   UNL     1       0.017  -0.708   0.809  0.00  0.00    +0.045 A 
ATOM     14  C   UNL     1      -0.284   0.095   1.940  0.00  0.00    +0.029 A 
ATOM     15  H   UNL     1       0.661   0.504  -0.699  0.00  0.00    +0.161 HD
BRANCH  11  16
ATOM     16  C   UNL     1       2.030  -1.805  -1.611  0.00  0.00    +0.335 C 
ATOM     17  O   UNL     1       2.923  -1.599  -0.824  0.00  0.00    -0.248 OA
BRANCH  16  18
ATOM     18  O   UNL     1       2.314  -2.202  -2.861  0.00  0.00    -0.466 OA
ATOM     19  C   UNL     1       3.695  -2.361  -3.193  0.00  0.00    +0.280 C 
ENDBRANCH  16  18
ENDBRANCH  11  16
ENDBRANCH   1  10
BRANCH   2  20
ATOM     20  C   UNL     1       0.219  -5.940  -2.220  0.00  0.00    +0.180 C 
BRANCH  20  21
ATOM     21  N   UNL     1       0.512  -6.119  -3.649  0.00  0.00    -0.291 NA
ATOM     22  C   UNL     1      -0.500  -5.455  -4.481  0.00  0.00    +0.104 C 
ATOM     23  C   UNL     1      -0.065  -5.509  -5.949  0.00  0.00    +0.121 C 
ATOM     24  N   UNL     1       0.210  -6.910  -6.303  0.00  0.00    -0.325 N 
ATOM     25  C   UNL     1       1.110  -7.684  -5.435  0.00  0.00    +0.084 C 
ATOM     26  C   UNL     1       0.629  -7.544  -3.987  0.00  0.00    +0.107 C 
ATOM     27  C   UNL     1       1.084  -9.156  -5.849  0.00  0.00    +0.029 C 
BRANCH  24  28
ATOM     28  C   UNL     1      -0.370  -7.492  -7.437  0.00  0.00    +0.030 A 
ATOM     29  C   UNL     1      -1.617  -8.095  -7.346  0.00  0.00    +0.027 A 
ATOM     30  C   UNL     1      -2.189  -8.668  -8.465  0.00  0.00    +0.047 A 
ATOM     31  C   UNL     1      -1.518  -8.641  -9.679  0.00  0.00    +0.120 A 
ATOM     32  C   UNL     1      -0.272  -8.039  -9.770  0.00  0.00    +0.047 A 
ATOM     33  C   UNL     1       0.299  -7.460  -8.653  0.00  0.00    +0.027 A 
BRANCH  31  34
ATOM     34  O   UNL     1      -2.082  -9.206 -10.780  0.00  0.00    -0.495 OA
ATOM     35  C   UNL     1      -1.335  -9.141 -11.997  0.00  0.00    +0.277 C 
ENDBRANCH  31  34
ENDBRANCH  24  28
ENDBRANCH  20  21
ENDBRANCH   2  20
TORSDOF 7
