REMARK  Name = ZINC08855315
REMARK  9 active torsions:
REMARK  status: ('A' for Active; 'I' for Inactive)
REMARK    1  A    between atoms: C_1  and  C_2
REMARK    2  A    between atoms: C_2  and  C_3
REMARK    3  A    between atoms: C_2  and  O_4
REMARK    4  A    between atoms: O_4  and  C_5
REMARK    5  A    between atoms: C_7  and  N_13
REMARK    6  A    between atoms: C_14  and  C_16
REMARK    7  A    between atoms: C_17  and  O_21
REMARK    8  A    between atoms: O_21  and  C_22
REMARK    9  A    between atoms: C_27  and  N_28
REMARK                            x       y       z     vdW  Elec       q    Type
REMARK                         _______ _______ _______ _____ _____    ______ ____
ROOT
ATOM      1  N   UNL     1       1.427   1.067  -0.670  0.00  0.00    -0.280 N 
ATOM      2  C   UNL     1       0.179   1.572  -0.596  0.00  0.00    +0.258 C 
ATOM      3  O   UNL     1      -0.004   2.766  -0.748  0.00  0.00    -0.269 OA
ATOM      4  H   UNL     1       1.566   0.109  -0.617  0.00  0.00    +0.155 HD
ENDROOT
BRANCH   1   7
ATOM      5  C   UNL     1       3.470   3.945  -1.714  0.00  0.00    +0.141 A 
ATOM      6  C   UNL     1       2.384   3.097  -1.560  0.00  0.00    +0.072 A 
ATOM      7  C   UNL     1       2.521   1.926  -0.828  0.00  0.00    +0.056 A 
ATOM      8  C   UNL     1       3.744   1.609  -0.248  0.00  0.00    +0.064 A 
ATOM      9  C   UNL     1       4.825   2.454  -0.409  0.00  0.00    +0.045 A 
ATOM     10  C   UNL     1       4.690   3.622  -1.138  0.00  0.00    +0.084 A 
ATOM     11 CL   UNL     1       6.050   4.684  -1.333  0.00  0.00    -0.080 Cl
ATOM     12 CL   UNL     1       3.914   0.148   0.674  0.00  0.00    -0.082 Cl
BRANCH   5  13
ATOM     13  O   UNL     1       3.338   5.093  -2.431  0.00  0.00    -0.488 OA
BRANCH  13  15
ATOM     14  C   UNL     1       1.881   6.934  -3.002  0.00  0.00    +0.051 C 
ATOM     15  C   UNL     1       2.030   5.415  -2.908  0.00  0.00    +0.167 C 
ATOM     16  C   UNL     1       1.825   4.795  -4.291  0.00  0.00    +0.051 C 
ENDBRANCH  13  15
ENDBRANCH   5  13
ENDBRANCH   1   7
BRANCH   2  17
ATOM     17  C   UNL     1      -0.918   0.713  -0.342  0.00  0.00    +0.116 A 
ATOM     18  C   UNL     1      -2.270   1.027  -0.222  0.00  0.00    +0.148 A 
ATOM     19  C   UNL     1      -3.132  -0.019   0.027  0.00  0.00    +0.054 A 
ATOM     20  C   UNL     1      -2.632  -1.274   0.150  0.00  0.00    +0.049 A 
ATOM     21  S   UNL     1      -0.929  -1.052  -0.083  0.00  0.00    -0.088 S 
BRANCH  18  22
ATOM     22  O   UNL     1      -2.717   2.303  -0.348  0.00  0.00    -0.452 OA
BRANCH  22  23
ATOM     23  C   UNL     1      -2.927   2.784  -1.601  0.00  0.00    +0.159 A 
ATOM     24  C   UNL     1      -2.793   1.946  -2.699  0.00  0.00    +0.048 A 
ATOM     25  C   UNL     1      -3.008   2.438  -3.972  0.00  0.00    +0.004 A 
ATOM     26  C   UNL     1      -3.356   3.764  -4.153  0.00  0.00    +0.002 A 
ATOM     27  C   UNL     1      -3.491   4.601  -3.061  0.00  0.00    +0.036 A 
ATOM     28  C   UNL     1      -3.281   4.113  -1.785  0.00  0.00    +0.168 A 
BRANCH  28  29
ATOM     29  N   UNL     1      -3.431   5.008  -0.616  0.00  0.00    +0.060 N 
ATOM     30  O   UNL     1      -3.742   6.175  -0.778  0.00  0.00    -0.126 OA
ATOM     31  O   UNL     1      -3.243   4.579   0.508  0.00  0.00    -0.126 OA
ENDBRANCH  28  29
ENDBRANCH  22  23
ENDBRANCH  18  22
ENDBRANCH   2  17
TORSDOF 7
