REMARK  Name = ZINC39487341
REMARK  9 active torsions:
REMARK  status: ('A' for Active; 'I' for Inactive)
REMARK    1  A    between atoms: C_1  and  C_2
REMARK    2  A    between atoms: C_2  and  C_3
REMARK    3  A    between atoms: C_3  and  C_4
REMARK    4  A    between atoms: C_4  and  C_31
REMARK    5  A    between atoms: N_9  and  C_10
REMARK    6  A    between atoms: C_10  and  C_11
REMARK    7  A    between atoms: C_11  and  C_24
REMARK    8  A    between atoms: N_14  and  C_17
REMARK    9  A    between atoms: C_17  and  C_18
REMARK                            x       y       z     vdW  Elec       q    Type
REMARK                         _______ _______ _______ _____ _____    ______ ____
ROOT
ATOM      1  C   UNL     1      -4.831  -1.357   0.757  0.00  0.00    -0.014 C 
ATOM      2  C   UNL     1      -3.999  -0.101   0.481  0.00  0.00    -0.010 C 
ATOM      3  C   UNL     1      -3.155  -0.322  -0.777  0.00  0.00    -0.078 C 
ATOM      4  N   UNL     1      -4.036  -0.589  -1.920  0.00  0.00    +0.382 N 
ATOM      5  C   UNL     1      -4.784  -1.831  -1.694  0.00  0.00    -0.078 C 
ATOM      6  C   UNL     1      -5.690  -1.669  -0.471  0.00  0.00    -0.010 C 
ATOM      7  H   UNL     1      -4.683   0.177  -2.031  0.00  0.00    -0.081 HD
ENDROOT
BRANCH   1   8
ATOM      8  C   UNL     1      -5.736  -1.118   1.967  0.00  0.00    -0.003 C 
ATOM      9  C   UNL     1      -6.729  -2.274   2.099  0.00  0.00    +0.004 C 
ATOM     10  C   UNL     1      -7.634  -2.034   3.309  0.00  0.00    +0.000 C 
ATOM     11  C   UNL     1      -8.399  -0.723   3.121  0.00  0.00    +0.000 C 
ATOM     12  C   UNL     1      -7.406   0.433   2.990  0.00  0.00    +0.000 C 
ATOM     13  C   UNL     1      -6.502   0.194   1.780  0.00  0.00    +0.004 C 
ENDBRANCH   1   8
BRANCH   1  14
ATOM     14  C   UNL     1      -3.898  -2.536   1.041  0.00  0.00    +0.117 C 
BRANCH  14  20
ATOM     15  C   UNL     1      -3.098  -2.699   3.519  0.00  0.00    +0.054 C 
ATOM     16  C   UNL     1      -1.919  -2.026   4.250  0.00  0.00    +0.172 C 
ATOM     17  N   UNL     1      -1.278  -1.210   3.207  0.00  0.00    -0.120 N 
ATOM     18  C   UNL     1      -1.947  -1.362   2.057  0.00  0.00    +0.332 C 
ATOM     19  O   UNL     1      -1.631  -0.798   1.027  0.00  0.00    -0.250 OA
ATOM     20  N   UNL     1      -2.996  -2.191   2.143  0.00  0.00    -0.276 N 
ATOM     21  F   UNL     1      -0.230  -0.461   3.376  0.00  0.00    -0.105 F 
ATOM     22  C   UNL     1      -2.949  -4.221   3.542  0.00  0.00    +0.033 C 
BRANCH  15  23
ATOM     23  C   UNL     1      -4.429  -2.281   4.148  0.00  0.00    +0.027 C 
BRANCH  23  25
ATOM     24  C   UNL     1      -5.735  -2.209   6.277  0.00  0.00    +0.004 C 
ATOM     25  C   UNL     1      -4.481  -2.766   5.599  0.00  0.00    -0.001 C 
ENDBRANCH  23  25
ENDBRANCH  15  23
ENDBRANCH  14  20
ENDBRANCH   1  14
BRANCH   4  26
ATOM     26  C   UNL     1      -3.226  -0.722  -3.139  0.00  0.00    -0.043 C 
BRANCH  26  27
ATOM     27  C   UNL     1      -4.133  -0.924  -4.325  0.00  0.00    -0.064 A 
ATOM     28  C   UNL     1      -4.503  -2.201  -4.703  0.00  0.00    +0.002 A 
ATOM     29  C   UNL     1      -5.336  -2.387  -5.791  0.00  0.00    +0.000 A 
ATOM     30  C   UNL     1      -5.798  -1.295  -6.501  0.00  0.00    +0.000 A 
ATOM     31  C   UNL     1      -5.428  -0.017  -6.123  0.00  0.00    +0.000 A 
ATOM     32  C   UNL     1      -4.600   0.168  -5.032  0.00  0.00    +0.002 A 
ENDBRANCH  26  27
ENDBRANCH   4  26
TORSDOF 7
