REMARK  Name = ZINC39484266
REMARK  8 active torsions:
REMARK  status: ('A' for Active; 'I' for Inactive)
REMARK    1  A    between atoms: C_1  and  C_2
REMARK    2  A    between atoms: C_2  and  C_3
REMARK    3  A    between atoms: C_3  and  C_4
REMARK    4  A    between atoms: C_4  and  C_6
REMARK    5  A    between atoms: C_8  and  C_24
REMARK    6  A    between atoms: C_18  and  O_20
REMARK    7  A    between atoms: C_28  and  C_30
REMARK    8  A    between atoms: C_30  and  C_31
REMARK                            x       y       z     vdW  Elec       q    Type
REMARK                         _______ _______ _______ _____ _____    ______ ____
ROOT
ATOM      1  C   UNL     1       1.391  -2.743  -2.406  0.00  0.00    +0.103 C 
ATOM      2  C   UNL     1       1.834  -4.124  -1.931  0.00  0.00    +0.063 C 
ATOM      3  C   UNL     1       2.371  -4.946  -3.071  0.00  0.00    -0.025 A 
ATOM      4  C   UNL     1       3.229  -5.993  -2.796  0.00  0.00    +0.054 A 
ATOM      5  C   UNL     1       3.740  -6.773  -3.824  0.00  0.00    +0.167 A 
ATOM      6  C   UNL     1       3.389  -6.505  -5.149  0.00  0.00    +0.167 A 
ATOM      7  C   UNL     1       2.533  -5.462  -5.435  0.00  0.00    +0.061 A 
ATOM      8  C   UNL     1       2.022  -4.675  -4.396  0.00  0.00    +0.028 A 
ATOM      9  C   UNL     1       1.117  -3.555  -4.708  0.00  0.00    +0.192 C 
ATOM     10  O   UNL     1       0.961  -3.173  -5.849  0.00  0.00    -0.289 OA
ATOM     11  C   UNL     1       0.387  -2.898  -3.555  0.00  0.00    +0.196 C 
ATOM     12  O   UNL     1       4.019  -7.408  -5.957  0.00  0.00    -0.453 OA
ATOM     13  C   UNL     1       5.075  -7.968  -5.156  0.00  0.00    +0.466 C 
ATOM     14  O   UNL     1       4.587  -7.841  -3.807  0.00  0.00    -0.453 OA
ENDROOT
BRANCH   2  15
ATOM     15  C   UNL     1       2.910  -3.966  -0.888  0.00  0.00    -0.039 A 
ATOM     16  C   UNL     1       4.089  -3.316  -1.204  0.00  0.00    +0.004 A 
ATOM     17  C   UNL     1       5.076  -3.171  -0.247  0.00  0.00    +0.001 A 
ATOM     18  C   UNL     1       4.884  -3.675   1.026  0.00  0.00    +0.004 A 
ATOM     19  C   UNL     1       3.705  -4.323   1.342  0.00  0.00    -0.043 A 
ATOM     20  C   UNL     1       2.716  -4.465   0.386  0.00  0.00    +0.008 A 
BRANCH  19  21
ATOM     21  C   UNL     1       3.497  -4.873   2.730  0.00  0.00    +0.070 C 
BRANCH  21  22
ATOM     22  C   UNL     1       2.855  -3.820   3.596  0.00  0.00    -0.043 A 
ATOM     23  C   UNL     1       3.644  -2.937   4.309  0.00  0.00    +0.004 A 
ATOM     24  C   UNL     1       3.055  -1.971   5.104  0.00  0.00    +0.000 A 
ATOM     25  C   UNL     1       1.678  -1.888   5.185  0.00  0.00    +0.000 A 
ATOM     26  C   UNL     1       0.889  -2.770   4.471  0.00  0.00    +0.000 A 
ATOM     27  C   UNL     1       1.477  -3.734   3.673  0.00  0.00    +0.004 A 
ENDBRANCH  21  22
ENDBRANCH  19  21
ENDBRANCH   2  15
BRANCH   1  28
ATOM     28  C   UNL     1       0.739  -2.004  -1.265  0.00  0.00    +0.140 C 
ATOM     29  O   UNL     1       0.233  -2.620  -0.358  0.00  0.00    -0.297 OA
BRANCH  28  30
ATOM     30  C   UNL     1       0.718  -0.497  -1.257  0.00  0.00    +0.074 C 
BRANCH  30  32
ATOM     31  C   UNL     1      -0.019   1.526   0.010  0.00  0.00    +0.004 C 
ATOM     32  C   UNL     1       0.002  -0.004   0.002  0.00  0.00    +0.004 C 
ENDBRANCH  30  32
ENDBRANCH  28  30
ENDBRANCH   1  28
BRANCH  11  33
ATOM     33  O   UNL     1      -0.705  -3.721  -3.140  0.00  0.00    -0.383 OA
ATOM     34  H   UNL     1      -1.376  -3.859  -3.822  0.00  0.00    +0.210 HD
ENDBRANCH  11  33
TORSDOF 7
