REMARK  Name = ZINC25784123
REMARK  6 active torsions:
REMARK  status: ('A' for Active; 'I' for Inactive)
REMARK    1  A    between atoms: C_1  and  O_2
REMARK    2  A    between atoms: O_2  and  C_3
REMARK    3  A    between atoms: C_7  and  C_9
REMARK    4  A    between atoms: C_26  and  C_28
REMARK    5  A    between atoms: C_31  and  O_35
REMARK    6  A    between atoms: O_35  and  C_36
REMARK                            x       y       z     vdW  Elec       q    Type
REMARK                         _______ _______ _______ _____ _____    ______ ____
ROOT
ATOM      1  C   UNL     1       1.366  -4.081  -2.311  0.00  0.00    +0.234 C 
ATOM      2  C   UNL     1       2.701  -4.570  -1.834  0.00  0.00    +0.027 C 
ATOM      3  C   UNL     1       3.728  -4.719  -2.696  0.00  0.00    +0.083 C 
ATOM      4  C   UNL     1       3.476  -4.392  -4.122  0.00  0.00    +0.042 A 
ATOM      5  C   UNL     1       4.519  -4.197  -5.017  0.00  0.00    +0.013 A 
ATOM      6  C   UNL     1       4.238  -3.893  -6.336  0.00  0.00    +0.001 A 
ATOM      7  C   UNL     1       2.926  -3.782  -6.762  0.00  0.00    +0.004 A 
ATOM      8  C   UNL     1       1.882  -3.976  -5.877  0.00  0.00    +0.046 A 
ATOM      9  C   UNL     1       2.147  -4.283  -4.553  0.00  0.00    +0.131 A 
ATOM     10  O   UNL     1       1.147  -4.482  -3.665  0.00  0.00    -0.479 OA
ATOM     11  N   UNL     1       4.944  -5.152  -2.282  0.00  0.00    -0.213 NA
ATOM     12  C   UNL     1       5.235  -5.468  -1.042  0.00  0.00    +0.237 C 
ATOM     13  N   UNL     1       6.375  -5.912  -0.468  0.00  0.00    -0.205 NA
ATOM     14  C   UNL     1       6.196  -6.099   0.811  0.00  0.00    +0.203 C 
ATOM     15  N   UNL     1       4.913  -5.783   1.141  0.00  0.00    -0.251 N 
ATOM     16  N   UNL     1       4.290  -5.376  -0.040  0.00  0.00    -0.208 N 
ATOM     17  C   UNL     1       2.939  -4.910  -0.379  0.00  0.00    +0.159 C 
ATOM     18  H   UNL     1       4.512  -5.831   2.023  0.00  0.00    +0.171 HD
ENDROOT
BRANCH  17  19
ATOM     19  C   UNL     1       2.644  -3.684   0.445  0.00  0.00    -0.020 A 
ATOM     20  C   UNL     1       3.526  -2.619   0.439  0.00  0.00    +0.009 A 
ATOM     21  C   UNL     1       3.258  -1.494   1.194  0.00  0.00    +0.047 A 
ATOM     22  C   UNL     1       2.103  -1.431   1.958  0.00  0.00    +0.134 A 
ATOM     23  C   UNL     1       1.218  -2.501   1.963  0.00  0.00    +0.060 A 
ATOM     24  C   UNL     1       1.488  -3.623   1.201  0.00  0.00    +0.024 A 
ATOM     25 BR   UNL     1      -0.359  -2.421   3.003  0.00  0.00    -0.047 Br
BRANCH  22  26
ATOM     26  O   UNL     1       1.837  -0.325   2.702  0.00  0.00    -0.494 OA
ATOM     27  C   UNL     1       2.792   0.736   2.650  0.00  0.00    +0.277 C 
ENDBRANCH  22  26
ENDBRANCH  17  19
BRANCH   1  32
ATOM     28  C   UNL     1       0.515  -0.577  -1.180  0.00  0.00    +0.120 A 
ATOM     29  C   UNL     1       1.257   0.186  -2.070  0.00  0.00    +0.045 A 
ATOM     30  C   UNL     1       2.030  -0.434  -3.032  0.00  0.00    +0.004 A 
ATOM     31  C   UNL     1       2.065  -1.814  -3.109  0.00  0.00    +0.008 A 
ATOM     32  C   UNL     1       1.326  -2.577  -2.224  0.00  0.00    +0.000 A 
ATOM     33  C   UNL     1       0.555  -1.962  -1.256  0.00  0.00    +0.053 A 
BRANCH  28  35
ATOM     34  C   UNL     1      -0.240   1.459  -0.213  0.00  0.00    +0.277 C 
ATOM     35  O   UNL     1      -0.246   0.030  -0.233  0.00  0.00    -0.495 OA
ENDBRANCH  28  35
ENDBRANCH   1  32
TORSDOF 4
