REMARK  Name = ZINC23437354
REMARK  13 active torsions:
REMARK  status: ('A' for Active; 'I' for Inactive)
REMARK    1  A    between atoms: C_1  and  C_2
REMARK    2  A    between atoms: C_2  and  N_3
REMARK    3  A    between atoms: C_7  and  C_9
REMARK    4  A    between atoms: C_9  and  N_10
REMARK    5  A    between atoms: C_11  and  C_13
REMARK    6  A    between atoms: C_13  and  C_14
REMARK    7  A    between atoms: C_14  and  C_15
REMARK    8  A    between atoms: C_18  and  C_28
REMARK    9  A    between atoms: N_19  and  C_20
REMARK   10  A    between atoms: C_23  and  S_26
REMARK   11  A    between atoms: S_26  and  C_27
REMARK   12  A    between atoms: C_31  and  O_34
REMARK   13  A    between atoms: O_34  and  C_35
REMARK                            x       y       z     vdW  Elec       q    Type
REMARK                         _______ _______ _______ _____ _____    ______ ____
ROOT
ATOM      1  C   UNL     1       1.574  -3.505   1.051  0.00  0.00    +0.025 A 
ATOM      2  C   UNL     1       1.252  -4.777   0.731  0.00  0.00    +0.024 A 
ATOM      3  C   UNL     1       0.352  -4.731  -0.347  0.00  0.00    +0.028 A 
ATOM      4  C   UNL     1       0.147  -3.419  -0.651  0.00  0.00    +0.054 A 
ATOM      5  N   UNL     1       0.899  -2.664   0.214  0.00  0.00    -0.313 N 
ENDROOT
BRANCH   5   6
ATOM      6  C   UNL     1       0.968  -1.262   0.232  0.00  0.00    +0.047 A 
ATOM      7  C   UNL     1      -0.137  -0.519   0.626  0.00  0.00    +0.027 A 
ATOM      8  C   UNL     1      -0.070   0.860   0.644  0.00  0.00    +0.017 A 
ATOM      9  C   UNL     1       1.103   1.503   0.267  0.00  0.00    +0.008 A 
ATOM     10  C   UNL     1       2.207   0.758  -0.129  0.00  0.00    +0.017 A 
ATOM     11  C   UNL     1       2.139  -0.620  -0.146  0.00  0.00    +0.027 A 
BRANCH   9  12
ATOM     12  S   UNL     1       1.189   3.263   0.289  0.00  0.00    -0.129 S 
ATOM     13  C   UNL     1       2.876   3.627  -0.270  0.00  0.00    +0.090 C 
ENDBRANCH   9  12
ENDBRANCH   5   6
BRANCH   4  14
ATOM     14  C   UNL     1      -0.730  -2.900  -1.722  0.00  0.00    -0.001 A 
ATOM     15  C   UNL     1      -1.727  -3.712  -2.265  0.00  0.00    +0.013 A 
ATOM     16  C   UNL     1      -2.547  -3.223  -3.260  0.00  0.00    +0.046 A 
ATOM     17  C   UNL     1      -2.374  -1.927  -3.729  0.00  0.00    +0.120 A 
ATOM     18  C   UNL     1      -1.380  -1.118  -3.196  0.00  0.00    +0.046 A 
ATOM     19  C   UNL     1      -0.560  -1.598  -2.197  0.00  0.00    +0.013 A 
BRANCH  17  20
ATOM     20  O   UNL     1      -3.180  -1.450  -4.714  0.00  0.00    -0.495 OA
ATOM     21  C   UNL     1      -4.182  -2.336  -5.218  0.00  0.00    +0.277 C 
ENDBRANCH  17  20
ENDBRANCH   4  14
BRANCH   1  22
ATOM     22  C   UNL     1       2.517  -3.086   2.149  0.00  0.00    +0.063 C 
BRANCH  22  23
ATOM     23  C   UNL     1       3.954  -3.106   1.623  0.00  0.00    +0.102 C 
BRANCH  23  25
ATOM     24  N   UNL     1       6.223  -2.630   2.486  0.00  0.00    -0.317 N 
ATOM     25  C   UNL     1       4.897  -2.687   2.722  0.00  0.00    +0.213 C 
ATOM     26  O   UNL     1       4.463  -2.400   3.817  0.00  0.00    -0.276 OA
ATOM     27  H   UNL     1       6.617  -2.890   1.493  0.00  0.00    +0.149 HD
BRANCH  24  28
ATOM     28  C   UNL     1       7.139  -2.223   3.554  0.00  0.00    +0.089 C 
BRANCH  28  33
ATOM     29  N   UNL     1       8.837  -3.824   2.745  0.00  0.00    +0.382 N 
ATOM     30  C   UNL     1      10.209  -4.168   3.161  0.00  0.00    -0.078 C 
ATOM     31  C   UNL     1      10.820  -2.908   3.810  0.00  0.00    -0.020 C 
ATOM     32  C   UNL     1       9.570  -2.091   4.236  0.00  0.00    -0.016 C 
ATOM     33  C   UNL     1       8.584  -2.408   3.084  0.00  0.00    -0.051 C 
ATOM     34  H   UNL     1       8.119  -4.469   3.272  0.00  0.00    -0.081 HD
BRANCH  29  36
ATOM     35  C   UNL     1       9.032  -5.507   0.977  0.00  0.00    -0.017 C 
ATOM     36  C   UNL     1       8.648  -4.064   1.308  0.00  0.00    -0.082 C 
ENDBRANCH  29  36
ENDBRANCH  28  33
ENDBRANCH  24  28
ENDBRANCH  23  25
ENDBRANCH  22  23
ENDBRANCH   1  22
TORSDOF 10
