REMARK  Name = ZINC06196073
REMARK  16 active torsions:
REMARK  status: ('A' for Active; 'I' for Inactive)
REMARK    1  A    between atoms: C_1  and  C_2
REMARK    2  A    between atoms: C_2  and  O_3
REMARK    3  A    between atoms: O_3  and  C_4
REMARK    4  A    between atoms: C_6  and  C_14
REMARK    5  A    between atoms: C_9  and  O_10
REMARK    6  A    between atoms: O_10  and  C_11
REMARK    7  A    between atoms: C_11  and  C_13
REMARK    8  A    between atoms: C_19  and  C_24
REMARK    9  A    between atoms: C_27  and  O_32
REMARK   10  A    between atoms: C_28  and  O_30
REMARK   11  A    between atoms: O_30  and  C_31
REMARK   12  A    between atoms: O_32  and  C_33
REMARK   13  A    between atoms: C_35  and  C_41
REMARK   14  A    between atoms: C_36  and  C_37
REMARK   15  A    between atoms: C_37  and  O_39
REMARK   16  A    between atoms: O_39  and  C_40
REMARK                            x       y       z     vdW  Elec       q    Type
REMARK                         _______ _______ _______ _____ _____    ______ ____
ROOT
ATOM      1  C   UNL     1      -0.067   3.692  -0.824  0.00  0.00    +0.073 C 
ATOM      2  C   UNL     1       1.208   3.016  -0.390  0.00  0.00    +0.112 C 
ATOM      3  C   UNL     1       1.205   1.726   0.007  0.00  0.00    +0.031 C 
ATOM      4  C   UNL     1       2.478   1.044   0.443  0.00  0.00    +0.060 C 
ATOM      5  C   UNL     1       3.668   1.650  -0.299  0.00  0.00    +0.032 C 
ATOM      6  C   UNL     1       3.711   3.154  -0.008  0.00  0.00    +0.083 C 
ATOM      7  C   UNL     1       2.397   3.767  -0.409  0.00  0.00    +0.143 C 
ATOM      8  O   UNL     1       2.362   4.931  -0.754  0.00  0.00    -0.297 OA
ATOM      9  N   UNL     1       0.040   1.007   0.021  0.00  0.00    -0.260 NA
ATOM     10  C   UNL     1      -1.171   1.642   0.028  0.00  0.00    +0.049 C 
ATOM     11  C   UNL     1      -1.270   2.923  -0.363  0.00  0.00    +0.066 C 
ATOM     12  C   UNL     1      -2.404   0.897   0.470  0.00  0.00    +0.066 C 
ENDROOT
BRANCH   1  15
ATOM     13  C   UNL     1      -0.166   5.092  -4.332  0.00  0.00    +0.163 A 
ATOM     14  C   UNL     1      -0.157   5.011  -2.948  0.00  0.00    +0.053 A 
ATOM     15  C   UNL     1      -0.081   3.778  -2.329  0.00  0.00    -0.035 A 
ATOM     16  C   UNL     1      -0.025   2.622  -3.086  0.00  0.00    +0.008 A 
ATOM     17  C   UNL     1      -0.038   2.695  -4.466  0.00  0.00    +0.050 A 
ATOM     18  C   UNL     1      -0.109   3.929  -5.094  0.00  0.00    +0.173 A 
BRANCH  13  19
ATOM     19  O   UNL     1      -0.236   6.304  -4.943  0.00  0.00    -0.489 OA
BRANCH  19  21
ATOM     20  C   UNL     1      -0.366   8.717  -4.958  0.00  0.00    +0.048 C 
ATOM     21  C   UNL     1      -0.292   7.455  -4.097  0.00  0.00    +0.226 C 
ENDBRANCH  19  21
ENDBRANCH  13  19
BRANCH  18  22
ATOM     22  O   UNL     1      -0.123   4.002  -6.452  0.00  0.00    -0.422 OA
BRANCH  22  23
ATOM     23  C   UNL     1       1.041   4.283  -7.059  0.00  0.00    +0.309 C 
ATOM     24  O   UNL     1       2.057   4.360  -6.410  0.00  0.00    -0.251 OA
ATOM     25  C   UNL     1       1.080   4.501  -8.549  0.00  0.00    +0.136 C 
ENDBRANCH  22  23
ENDBRANCH  18  22
ENDBRANCH   1  15
BRANCH   5  26
ATOM     26  C   UNL     1       4.944   1.006   0.178  0.00  0.00    -0.040 A 
ATOM     27  C   UNL     1       5.309   1.099   1.509  0.00  0.00    +0.008 A 
ATOM     28  C   UNL     1       6.476   0.505   1.953  0.00  0.00    +0.049 A 
ATOM     29  C   UNL     1       7.288  -0.176   1.061  0.00  0.00    +0.161 A 
ATOM     30  C   UNL     1       6.925  -0.266  -0.279  0.00  0.00    +0.162 A 
ATOM     31  C   UNL     1       5.751   0.327  -0.716  0.00  0.00    +0.053 A 
BRANCH  30  32
ATOM     32  O   UNL     1       7.719  -0.934  -1.158  0.00  0.00    -0.491 OA
ATOM     33  C   UNL     1       7.282  -0.986  -2.517  0.00  0.00    +0.277 C 
ENDBRANCH  30  32
BRANCH  29  34
ATOM     34  O   UNL     1       8.440  -0.756   1.495  0.00  0.00    -0.491 OA
ATOM     35  C   UNL     1       8.749  -0.624   2.884  0.00  0.00    +0.277 C 
ENDBRANCH  29  34
ENDBRANCH   5  26
BRANCH  11  36
ATOM     36  C   UNL     1      -2.532   3.561  -0.337  0.00  0.00    +0.337 C 
ATOM     37  O   UNL     1      -3.515   2.950   0.039  0.00  0.00    -0.245 OA
BRANCH  36  38
ATOM     38  O   UNL     1      -2.647   4.847  -0.730  0.00  0.00    -0.465 OA
ATOM     39  C   UNL     1      -3.952   5.428  -0.678  0.00  0.00    +0.280 C 
ENDBRANCH  36  38
ENDBRANCH  11  36
TORSDOF 10
