REMARK  Name = ZINC35471555
REMARK  13 active torsions:
REMARK  status: ('A' for Active; 'I' for Inactive)
REMARK    1  A    between atoms: C_1  and  C_2
REMARK    2  A    between atoms: C_2  and  C_3
REMARK    3  A    between atoms: C_2  and  C_4
REMARK    4  A    between atoms: C_2  and  N_5
REMARK    5  A    between atoms: N_8  and  C_9
REMARK    6  A    between atoms: N_8  and  C_13
REMARK    7  A    between atoms: C_9  and  C_10
REMARK    8  A    between atoms: C_10  and  O_11
REMARK    9  A    between atoms: O_11  and  C_12
REMARK   10  A    between atoms: C_13  and  C_14
REMARK   11  A    between atoms: C_24  and  C_26
REMARK   12  A    between atoms: C_30  and  O_32
REMARK   13  A    between atoms: O_32  and  C_33
REMARK                            x       y       z     vdW  Elec       q    Type
REMARK                         _______ _______ _______ _____ _____    ______ ____
ROOT
ATOM      1  C   UNL     1       4.860  -1.493  -1.839  0.00  0.00    +0.234 C 
ATOM      2  O   UNL     1       4.559  -2.461  -1.172  0.00  0.00    -0.274 OA
ATOM      3  N   UNL     1       6.156  -1.230  -2.098  0.00  0.00    -0.286 N 
ATOM      4  C   UNL     1       6.545  -0.059  -2.899  0.00  0.00    +0.130 C 
ATOM      5  C   UNL     1       7.359   0.903  -2.026  0.00  0.00    +0.140 C 
ATOM      6  N   UNL     1       8.368   0.143  -1.281  0.00  0.00    -0.347 N 
ATOM      7  C   UNL     1       9.491   0.635  -0.689  0.00  0.00    +0.086 A 
ATOM      8  C   UNL     1      10.144  -0.389  -0.102  0.00  0.00    +0.019 A 
ATOM      9  C   UNL     1       9.397  -1.561  -0.343  0.00  0.00    +0.025 A 
ATOM     10  C   UNL     1       8.323  -1.208  -1.067  0.00  0.00    +0.044 A 
ATOM     11  C   UNL     1       7.226  -2.104  -1.583  0.00  0.00    +0.153 C 
ENDROOT
BRANCH  11  12
ATOM     12  C   UNL     1       7.758  -2.975  -2.691  0.00  0.00    -0.018 A 
ATOM     13  C   UNL     1       8.379  -2.399  -3.784  0.00  0.00    +0.006 A 
ATOM     14  C   UNL     1       8.868  -3.195  -4.803  0.00  0.00    +0.004 A 
ATOM     15  C   UNL     1       8.737  -4.569  -4.732  0.00  0.00    +0.046 A 
ATOM     16  C   UNL     1       8.114  -5.149  -3.636  0.00  0.00    +0.129 A 
ATOM     17  C   UNL     1       7.629  -4.348  -2.612  0.00  0.00    +0.052 A 
BRANCH  16  18
ATOM     18  O   UNL     1       7.984  -6.500  -3.564  0.00  0.00    -0.456 OA
BRANCH  18  19
ATOM     19  C   UNL     1       6.767  -7.039  -3.837  0.00  0.00    +0.128 A 
ATOM     20  C   UNL     1       5.736  -6.231  -4.296  0.00  0.00    +0.046 A 
ATOM     21  C   UNL     1       4.500  -6.781  -4.573  0.00  0.00    +0.004 A 
ATOM     22  C   UNL     1       4.289  -8.136  -4.393  0.00  0.00    +0.000 A 
ATOM     23  C   UNL     1       5.314  -8.943  -3.936  0.00  0.00    +0.004 A 
ATOM     24  C   UNL     1       6.554  -8.399  -3.664  0.00  0.00    +0.046 A 
ENDBRANCH  18  19
ENDBRANCH  16  18
ENDBRANCH  11  12
BRANCH   1  25
ATOM     25  C   UNL     1       3.784  -0.585  -2.377  0.00  0.00    +0.205 C 
BRANCH  25  29
ATOM     26  N   UNL     1       0.721  -1.121  -0.415  0.00  0.00    -0.294 N 
ATOM     27  C   UNL     1       1.929  -0.663  -0.799  0.00  0.00    +0.303 C 
ATOM     28  O   UNL     1       2.530   0.128  -0.098  0.00  0.00    -0.253 OA
ATOM     29  N   UNL     1       2.471  -1.083  -1.960  0.00  0.00    -0.275 N 
ATOM     30  H   UNL     1       0.242  -1.752  -0.974  0.00  0.00    +0.151 HD
BRANCH  26  32
ATOM     31  C   UNL     1      -0.043   0.854   0.808  0.00  0.00    +0.031 C 
ATOM     32  C   UNL     1       0.132  -0.666   0.847  0.00  0.00    +0.028 C 
ATOM     33  C   UNL     1       1.056  -1.043   2.006  0.00  0.00    +0.031 C 
ATOM     34  C   UNL     1      -1.231  -1.332   1.043  0.00  0.00    +0.031 C 
ENDBRANCH  26  32
BRANCH  29  35
ATOM     35  C   UNL     1       1.747  -2.036  -2.804  0.00  0.00    +0.138 C 
BRANCH  35  36
ATOM     36  C   UNL     1       0.860  -1.272  -3.790  0.00  0.00    +0.178 C 
BRANCH  36  37
ATOM     37  O   UNL     1       1.681  -0.521  -4.686  0.00  0.00    -0.381 OA
ATOM     38  C   UNL     1       0.947   0.233  -5.653  0.00  0.00    +0.194 C 
ENDBRANCH  36  37
ENDBRANCH  35  36
ENDBRANCH  29  35
ENDBRANCH  25  29
ENDBRANCH   1  25
TORSDOF 9
