REMARK  Name = ZINC19419447
REMARK  3 active torsions:
REMARK  status: ('A' for Active; 'I' for Inactive)
REMARK    1  A    between atoms: C_3  and  C_9
REMARK    2  A    between atoms: N_10  and  N_11
REMARK    3  A    between atoms: C_12  and  C_14
REMARK                            x       y       z     vdW  Elec       q    Type
REMARK                         _______ _______ _______ _____ _____    ______ ____
ROOT
ATOM      1  N   UNL     1       4.751   4.033  -0.020  0.00  0.00    -0.203 N 
ATOM      2  C   UNL     1       5.931   3.381  -0.035  0.00  0.00    +0.258 C 
ATOM      3  O   UNL     1       5.952   2.168  -0.041  0.00  0.00    -0.269 OA
ATOM      4  H   UNL     1       4.731   5.133  -0.014  0.00  0.00    +0.178 HD
ENDROOT
BRANCH   2   5
ATOM      5  C   UNL     1       7.222   4.157  -0.042  0.00  0.00    +0.089 C 
ATOM      6  C   UNL     1       8.385   3.199  -0.058  0.00  0.00    +0.036 C 
ATOM      7  N   UNL     1       8.316   1.925  -0.065  0.00  0.00    -0.268 N 
ATOM      8  N   UNL     1       9.564   1.310  -0.082  0.00  0.00    -0.236 N 
ATOM      9  C   UNL     1      10.557   2.224  -0.079  0.00  0.00    +0.235 C 
ATOM     10  O   UNL     1      11.752   2.016  -0.087  0.00  0.00    -0.274 OA
ATOM     11  C   UNL     1       9.854   3.568  -0.070  0.00  0.00    +0.149 C 
ATOM     12  H   UNL     1       7.402   1.314  -0.058  0.00  0.00    +0.170 HD
ATOM     13  H   UNL     1       9.636   0.213  -0.095  0.00  0.00    +0.173 HD
ENDBRANCH   2   5
BRANCH   1  15
ATOM     14  C   UNL     1       2.416   3.939   0.001  0.00  0.00    +0.139 C 
ATOM     15  N   UNL     1       3.551   3.311  -0.013  0.00  0.00    -0.187 NA
BRANCH  14  18
ATOM     16  C   UNL     1      -1.250   3.135   0.031  0.00  0.00    +0.021 A 
ATOM     17  C   UNL     1      -0.071   3.852   0.023  0.00  0.00    +0.012 A 
ATOM     18  C   UNL     1       1.152   3.179   0.008  0.00  0.00    +0.013 A 
ATOM     19  C   UNL     1       1.174   1.781   0.000  0.00  0.00    +0.051 A 
ATOM     20  C   UNL     1      -0.013   1.076   0.008  0.00  0.00    +0.040 A 
ATOM     21  C   UNL     1      -1.222   1.750   0.017  0.00  0.00    +0.042 A 
ATOM     22 CL   UNL     1      -2.710   0.857   0.019  0.00  0.00    -0.083 Cl
ATOM     23 CL   UNL     1       2.689   0.934  -0.018  0.00  0.00    -0.083 Cl
ENDBRANCH  14  18
ENDBRANCH   1  15
TORSDOF 3
