REMARK  Name = ZINC09116548
REMARK  6 active torsions:
REMARK  status: ('A' for Active; 'I' for Inactive)
REMARK    1  A    between atoms: C_1  and  C_2
REMARK    2  A    between atoms: C_2  and  C_3
REMARK    3  A    between atoms: C_8  and  N_9
REMARK    4  A    between atoms: C_10  and  C_12
REMARK    5  A    between atoms: C_12  and  N_13
REMARK    6  A    between atoms: N_25  and  C_28
REMARK                            x       y       z     vdW  Elec       q    Type
REMARK                         _______ _______ _______ _____ _____    ______ ____
ROOT
ATOM      1  N   UNL     1      -0.006   0.013   0.217  0.00  0.00    -0.280 N 
ATOM      2  C   UNL     1      -0.001  -0.459  -1.080  0.00  0.00    +0.105 A 
ATOM      3  C   UNL     1       0.057   0.176  -2.398  0.00  0.00    +0.045 A 
ATOM      4  C   UNL     1       0.118   1.499  -2.840  0.00  0.00    +0.014 A 
ATOM      5  C   UNL     1       0.158   1.767  -4.179  0.00  0.00    +0.001 A 
ATOM      6  C   UNL     1       0.139   0.732  -5.103  0.00  0.00    +0.004 A 
ATOM      7  C   UNL     1       0.079  -0.581  -4.687  0.00  0.00    +0.047 A 
ATOM      8  C   UNL     1       0.037  -0.877  -3.329  0.00  0.00    +0.138 A 
ATOM      9  O   UNL     1      -0.022  -2.038  -2.647  0.00  0.00    -0.448 OA
ATOM     10  C   UNL     1      -0.043  -1.820  -1.313  0.00  0.00    +0.217 A 
ATOM     11  C   UNL     1      -0.100  -2.693  -0.198  0.00  0.00    +0.304 A 
ATOM     12  O   UNL     1      -0.142  -3.899  -0.364  0.00  0.00    -0.263 OA
ATOM     13  N   UNL     1      -0.108  -2.178   1.047  0.00  0.00    -0.226 N 
ATOM     14  C   UNL     1      -0.062  -0.850   1.250  0.00  0.00    +0.338 A 
ATOM     15  O   UNL     1      -0.070  -0.419   2.387  0.00  0.00    -0.246 OA
ENDROOT
BRANCH  13  16
ATOM     16  C   UNL     1      -0.166  -3.042   2.149  0.00  0.00    +0.055 A 
ATOM     17  C   UNL     1       0.789  -4.039   2.302  0.00  0.00    +0.028 A 
ATOM     18  C   UNL     1       0.733  -4.885   3.392  0.00  0.00    +0.022 A 
ATOM     19  C   UNL     1      -0.279  -4.747   4.326  0.00  0.00    +0.041 A 
ATOM     20  C   UNL     1      -1.235  -3.758   4.173  0.00  0.00    +0.022 A 
ATOM     21  C   UNL     1      -1.180  -2.906   3.087  0.00  0.00    +0.028 A 
ATOM     22 CL   UNL     1      -0.350  -5.817   5.691  0.00  0.00    -0.084 Cl
ENDBRANCH  13  16
BRANCH   1  23
ATOM     23  C   UNL     1       0.043   1.455   0.471  0.00  0.00    +0.223 C 
BRANCH  23  25
ATOM     24  N   UNL     1       1.770   3.190   0.824  0.00  0.00    -0.284 N 
ATOM     25  C   UNL     1       1.479   1.895   0.589  0.00  0.00    +0.237 C 
ATOM     26  O   UNL     1       2.374   1.085   0.473  0.00  0.00    -0.274 OA
ATOM     27  H   UNL     1       1.055   3.829   0.968  0.00  0.00    +0.155 HD
BRANCH  24  33
ATOM     28  C   UNL     1       3.422   4.934   0.572  0.00  0.00    -0.026 A 
ATOM     29  C   UNL     1       4.740   5.348   0.608  0.00  0.00    +0.005 A 
ATOM     30  C   UNL     1       5.740   4.449   0.929  0.00  0.00    +0.000 A 
ATOM     31  C   UNL     1       5.426   3.133   1.215  0.00  0.00    +0.002 A 
ATOM     32  C   UNL     1       4.110   2.714   1.186  0.00  0.00    +0.023 A 
ATOM     33  C   UNL     1       3.103   3.613   0.859  0.00  0.00    +0.037 A 
BRANCH  28  35
ATOM     34  C   UNL     1       1.735   6.491   1.508  0.00  0.00    +0.009 C 
ATOM     35  C   UNL     1       2.333   5.914   0.223  0.00  0.00    +0.033 C 
ENDBRANCH  28  35
ENDBRANCH  24  33
ENDBRANCH  23  25
ENDBRANCH   1  23
TORSDOF 5
