REMARK  Name = ZINC03595845
REMARK  4 active torsions:
REMARK  status: ('A' for Active; 'I' for Inactive)
REMARK    1  A    between atoms: C_1  and  C_2
REMARK    2  A    between atoms: N_11  and  C_15
REMARK    3  A    between atoms: C_15  and  C_16
REMARK    4  A    between atoms: N_18  and  C_19
REMARK                            x       y       z     vdW  Elec       q    Type
REMARK                         _______ _______ _______ _____ _____    ______ ____
ROOT
ATOM      1  C   UNL     1      -3.242   5.478   0.460  0.00  0.00    +0.010 C 
ATOM      2  C   UNL     1      -4.604   5.168   1.084  0.00  0.00    +0.018 C 
ATOM      3  C   UNL     1      -5.649   6.147   0.541  0.00  0.00    +0.006 C 
ATOM      4  C   UNL     1      -7.014   5.823   1.150  0.00  0.00    +0.000 C 
ATOM      5  C   UNL     1      -7.419   4.397   0.773  0.00  0.00    +0.003 C 
ATOM      6  C   UNL     1      -6.381   3.412   1.317  0.00  0.00    +0.035 C 
ATOM      7  C   UNL     1      -5.011   3.741   0.734  0.00  0.00    +0.115 C 
ATOM      8  C   UNL     1      -3.979   2.756   1.232  0.00  0.00    +0.247 C 
ATOM      9  O   UNL     1      -3.644   2.562   2.380  0.00  0.00    -0.273 OA
ATOM     10  N   UNL     1      -3.508   2.140   0.128  0.00  0.00    -0.215 N 
ATOM     11  C   UNL     1      -4.102   2.594  -0.982  0.00  0.00    +0.310 C 
ATOM     12  O   UNL     1      -3.847   2.189  -2.100  0.00  0.00    -0.252 OA
ATOM     13  N   UNL     1      -5.014   3.551  -0.722  0.00  0.00    -0.285 N 
ATOM     14  H   UNL     1      -5.563   4.021  -1.369  0.00  0.00    +0.151 HD
ENDROOT
BRANCH  10  15
ATOM     15  C   UNL     1      -2.477   1.099   0.143  0.00  0.00    +0.214 C 
BRANCH  15  16
ATOM     16  C   UNL     1      -1.117   1.736   0.017  0.00  0.00    +0.235 C 
ATOM     17  O   UNL     1      -1.019   2.941  -0.077  0.00  0.00    -0.274 OA
ATOM     18  N   UNL     1      -0.011   0.966   0.007  0.00  0.00    -0.283 N 
ATOM     19  H   UNL     1      -0.092  -0.001   0.017  0.00  0.00    +0.155 HD
BRANCH  18  20
ATOM     20  C   UNL     1       1.255   1.561  -0.022  0.00  0.00    +0.053 A 
ATOM     21  C   UNL     1       1.453   2.743  -0.723  0.00  0.00    +0.044 A 
ATOM     22  C   UNL     1       2.704   3.329  -0.749  0.00  0.00    +0.043 A 
ATOM     23  C   UNL     1       3.760   2.738  -0.077  0.00  0.00    +0.021 A 
ATOM     24  C   UNL     1       3.567   1.561   0.622  0.00  0.00    +0.023 A 
ATOM     25  C   UNL     1       2.317   0.974   0.657  0.00  0.00    +0.062 A 
ATOM     26 CL   UNL     1       2.073  -0.500   1.541  0.00  0.00    -0.082 Cl
ATOM     27 CL   UNL     1       2.952   4.806  -1.626  0.00  0.00    -0.083 Cl
ENDBRANCH  18  20
ENDBRANCH  15  16
ENDBRANCH  10  15
TORSDOF 3
