REMARK  Name = ZINC11983187
REMARK  7 active torsions:
REMARK  status: ('A' for Active; 'I' for Inactive)
REMARK    1  A    between atoms: C_1  and  C_2
REMARK    2  A    between atoms: C_7  and  C_8
REMARK    3  A    between atoms: C_11  and  C_14
REMARK    4  A    between atoms: C_14  and  N_64
REMARK    5  A    between atoms: C_16  and  N_33
REMARK    6  A    between atoms: C_19  and  C_21
REMARK    7  A    between atoms: N_23  and  C_24
REMARK                            x       y       z     vdW  Elec       q    Type
REMARK                         _______ _______ _______ _____ _____    ______ ____
ROOT
ATOM      1  C   UNL     1      -4.470   4.525   8.447  0.00  0.00    -0.050 C 
ATOM      2  C   UNL     1      -5.106   5.512   7.451  0.00  0.00    +0.093 C 
ATOM      3  C   UNL     1      -4.601   5.065   6.058  0.00  0.00    +0.019 C 
ATOM      4  C   UNL     1      -4.206   3.585   6.293  0.00  0.00    +0.022 C 
ATOM      5  N   UNL     1      -3.639   3.618   7.646  0.00  0.00    +0.391 N 
ATOM      6  H   UNL     1      -2.676   3.972   7.610  0.00  0.00    -0.080 HD
ENDROOT
BRANCH   2   7
ATOM      7  N   UNL     1      -6.567   5.425   7.512  0.00  0.00    -0.231 N 
ATOM      8  C   UNL     1      -7.293   4.319   7.758  0.00  0.00    +0.245 A 
ATOM      9  N   UNL     1      -8.553   4.679   7.722  0.00  0.00    -0.117 NA
ATOM     10  N   UNL     1      -8.598   5.941   7.467  0.00  0.00    -0.023 NA
ATOM     11  N   UNL     1      -7.400   6.396   7.345  0.00  0.00    -0.044 NA
ENDBRANCH   2   7
BRANCH   4  12
ATOM     12  C   UNL     1      -3.177   3.142   5.285  0.00  0.00    +0.204 C 
ATOM     13  O   UNL     1      -2.068   2.817   5.653  0.00  0.00    -0.277 OA
ATOM     14  N   UNL     1      -3.490   3.108   3.974  0.00  0.00    -0.287 N 
ATOM     15  H   UNL     1      -4.353   3.431   3.673  0.00  0.00    +0.155 HD
BRANCH  14  16
ATOM     16  C   UNL     1      -2.569   2.606   3.048  0.00  0.00    +0.034 A 
ATOM     17  C   UNL     1      -1.209   2.814   3.237  0.00  0.00    +0.023 A 
ATOM     18  C   UNL     1      -0.301   2.317   2.322  0.00  0.00    +0.008 A 
ATOM     19  C   UNL     1      -0.744   1.615   1.221  0.00  0.00    -0.016 A 
ATOM     20  C   UNL     1      -2.102   1.404   1.030  0.00  0.00    -0.015 A 
ATOM     21  C   UNL     1      -3.013   1.897   1.939  0.00  0.00    +0.029 A 
ATOM     22  C   UNL     1      -2.258   0.613  -0.248  0.00  0.00    +0.196 C 
ATOM     23  O   UNL     1      -1.015   0.758  -0.958  0.00  0.00    -0.371 OA
ATOM     24  C   UNL     1      -0.023   0.958   0.066  0.00  0.00    +0.195 C 
ENDBRANCH  14  16
ENDBRANCH   4  12
BRANCH   5  25
ATOM     25  C   UNL     1      -3.636   2.251   8.249  0.00  0.00    -0.042 C 
BRANCH  25  29
ATOM     26  C   UNL     1      -1.344   2.256  11.858  0.00  0.00    -0.018 A 
ATOM     27  C   UNL     1      -2.709   2.536  11.896  0.00  0.00    +0.009 A 
ATOM     28  C   UNL     1      -3.444   2.533  10.728  0.00  0.00    +0.002 A 
ATOM     29  C   UNL     1      -2.829   2.253   9.521  0.00  0.00    -0.064 A 
ATOM     30  C   UNL     1      -1.475   1.969   9.478  0.00  0.00    +0.002 A 
ATOM     31  C   UNL     1      -0.730   1.974  10.640  0.00  0.00    +0.009 A 
BRANCH  26  38
ATOM     32  C   UNL     1       0.373   0.009  12.470  0.00  0.00    +0.044 C 
ATOM     33  C   UNL     1       0.281   1.181  13.414  0.00  0.00    -0.043 A 
ATOM     34  C   UNL     1       1.019   1.188  14.580  0.00  0.00    +0.004 A 
ATOM     35  C   UNL     1       0.936   2.262  15.447  0.00  0.00    +0.000 A 
ATOM     36  C   UNL     1       0.114   3.334  15.152  0.00  0.00    +0.001 A 
ATOM     37  C   UNL     1      -0.624   3.340  13.985  0.00  0.00    +0.009 A 
ATOM     38  C   UNL     1      -0.549   2.258  13.111  0.00  0.00    -0.015 A 
ENDBRANCH  26  38
ENDBRANCH  25  29
ENDBRANCH   5  25
TORSDOF 6
