REMARK  Name = ZINC34953616
REMARK  10 active torsions:
REMARK  status: ('A' for Active; 'I' for Inactive)
REMARK    1  A    between atoms: C_1  and  C_2
REMARK    2  A    between atoms: C_5  and  C_36
REMARK    3  A    between atoms: C_6  and  C_8
REMARK    4  A    between atoms: C_8  and  C_9
REMARK    5  A    between atoms: C_10  and  C_29
REMARK    6  A    between atoms: C_19  and  C_28
REMARK    7  A    between atoms: C_20  and  C_22
REMARK    8  A    between atoms: C_22  and  O_24
REMARK    9  A    between atoms: O_24  and  C_25
REMARK   10  A    between atoms: C_25  and  C_26
REMARK                            x       y       z     vdW  Elec       q    Type
REMARK                         _______ _______ _______ _____ _____    ______ ____
ROOT
ATOM      1  C   UNL     1      -0.087  -2.407   3.688  0.00  0.00    +0.077 C 
ATOM      2  C   UNL     1      -0.051  -0.917   3.935  0.00  0.00    +0.152 C 
ATOM      3  N   UNL     1      -0.171  -0.740   5.387  0.00  0.00    -0.232 N 
ATOM      4  C   UNL     1      -0.266  -1.960   5.946  0.00  0.00    +0.293 C 
ATOM      5  O   UNL     1      -0.378  -2.175   7.137  0.00  0.00    -0.266 OA
ATOM      6  C   UNL     1      -0.221  -3.000   4.898  0.00  0.00    +0.250 C 
ATOM      7  O   UNL     1      -0.297  -4.334   5.112  0.00  0.00    -0.282 OA
ATOM      8  C   UNL     1      -0.183   0.466   6.062  0.00  0.00    +0.169 A 
ATOM      9  N   UNL     1      -0.283   0.674   7.362  0.00  0.00    -0.229 NA
ATOM     10  C   UNL     1      -0.281   1.882   7.864  0.00  0.00    +0.062 A 
ATOM     11  C   UNL     1      -0.169   2.927   6.955  0.00  0.00    +0.120 A 
ATOM     12  S   UNL     1      -0.068   2.018   5.421  0.00  0.00    -0.045 S 
ATOM     13  C   UNL     1      -0.395   2.128   9.347  0.00  0.00    +0.067 C 
ENDROOT
BRANCH   2  14
ATOM     14  C   UNL     1       1.254  -0.342   3.449  0.00  0.00    -0.022 A 
ATOM     15  C   UNL     1       2.420  -0.582   4.152  0.00  0.00    +0.006 A 
ATOM     16  C   UNL     1       3.617  -0.055   3.706  0.00  0.00    +0.000 A 
ATOM     17  C   UNL     1       3.649   0.713   2.557  0.00  0.00    +0.000 A 
ATOM     18  C   UNL     1       2.483   0.953   1.853  0.00  0.00    +0.000 A 
ATOM     19  C   UNL     1       1.286   0.422   2.297  0.00  0.00    +0.006 A 
ENDBRANCH   2  14
BRANCH   1  20
ATOM     20  C   UNL     1       0.000  -3.080   2.389  0.00  0.00    +0.195 C 
ATOM     21  O   UNL     1       0.051  -4.294   2.335  0.00  0.00    -0.287 OA
BRANCH  20  27
ATOM     22  C   UNL     1       2.533  -1.177  -1.468  0.00  0.00    +0.044 C 
ATOM     23  C   UNL     1       1.241  -1.365  -0.714  0.00  0.00    -0.050 A 
ATOM     24  C   UNL     1       0.075  -0.790  -1.188  0.00  0.00    +0.003 A 
ATOM     25  C   UNL     1      -1.115  -0.957  -0.503  0.00  0.00    +0.004 A 
ATOM     26  C   UNL     1      -1.147  -1.699   0.660  0.00  0.00    -0.040 A 
ATOM     27  C   UNL     1       0.026  -2.283   1.144  0.00  0.00    +0.025 A 
ATOM     28  C   UNL     1       1.223  -2.114   0.444  0.00  0.00    +0.015 A 
ATOM     29  C   UNL     1      -2.443  -1.880   1.405  0.00  0.00    +0.044 C 
ENDBRANCH  20  27
ENDBRANCH   1  20
BRANCH  11  30
ATOM     30  C   UNL     1      -0.137   4.369   7.189  0.00  0.00    +0.348 C 
ATOM     31  O   UNL     1      -0.215   4.803   8.323  0.00  0.00    -0.244 OA
BRANCH  30  32
ATOM     32  O   UNL     1      -0.021   5.219   6.148  0.00  0.00    -0.457 OA
BRANCH  32  33
ATOM     33  C   UNL     1       0.004   6.616   6.450  0.00  0.00    +0.259 C 
BRANCH  33  34
ATOM     34  C   UNL     1       0.137   7.404   5.173  0.00  0.00    +0.006 C 
ATOM     35  C   UNL     1      -0.614   8.458   4.972  0.00  0.00    +0.007 C 
ENDBRANCH  33  34
ENDBRANCH  32  33
ENDBRANCH  30  32
ENDBRANCH  11  30
TORSDOF 7
