REMARK  Name = ZINC59489259
REMARK  11 active torsions:
REMARK  status: ('A' for Active; 'I' for Inactive)
REMARK    1  A    between atoms: C_1  and  C_2
REMARK    2  A    between atoms: C_2  and  O_3
REMARK    3  A    between atoms: O_3  and  C_4
REMARK    4  A    between atoms: C_8  and  N_10
REMARK    5  A    between atoms: C_14  and  S_18
REMARK    6  A    between atoms: S_18  and  C_19
REMARK    7  A    between atoms: N_21  and  N_22
REMARK    8  A    between atoms: C_23  and  C_24
REMARK    9  A    between atoms: C_23  and  C_25
REMARK   10  A    between atoms: C_28  and  O_32
REMARK   11  A    between atoms: O_32  and  C_33
REMARK                            x       y       z     vdW  Elec       q    Type
REMARK                         _______ _______ _______ _____ _____    ______ ____
ROOT
ATOM      1  C   UNL     1       1.814  -8.262   5.815  0.00  0.00    +0.146 C 
ATOM      2  N   UNL     1       2.367  -8.610   4.686  0.00  0.00    -0.380 N 
ATOM      3  N   UNL     1       1.064  -9.174   6.524  0.00  0.00    -0.217 N 
ATOM      4  H   UNL     1       2.249  -9.510   4.345  0.00  0.00    +0.158 HD
ATOM      5  H   UNL     1       0.653  -8.916   7.364  0.00  0.00    +0.176 HD
ATOM      6  H   UNL     1       2.895  -7.967   4.186  0.00  0.00    +0.158 HD
ENDROOT
BRANCH   3   7
ATOM      7  N   UNL     1       0.895 -10.475   6.032  0.00  0.00    -0.185 NA
ATOM      8  C   UNL     1       0.188 -11.334   6.699  0.00  0.00    +0.063 C 
ATOM      9  C   UNL     1      -0.451 -10.933   8.004  0.00  0.00    +0.068 C 
BRANCH   8  10
ATOM     10  C   UNL     1       0.010 -12.703   6.181  0.00  0.00    -0.001 A 
ATOM     11  C   UNL     1      -0.756 -13.629   6.896  0.00  0.00    +0.013 A 
ATOM     12  C   UNL     1      -0.920 -14.907   6.408  0.00  0.00    +0.047 A 
ATOM     13  C   UNL     1      -0.327 -15.277   5.208  0.00  0.00    +0.134 A 
ATOM     14  C   UNL     1       0.435 -14.360   4.494  0.00  0.00    +0.060 A 
ATOM     15  C   UNL     1       0.601 -13.077   4.972  0.00  0.00    +0.028 A 
ATOM     16 BR   UNL     1       1.242 -14.871   2.861  0.00  0.00    -0.046 Br
BRANCH  13  17
ATOM     17  O   UNL     1      -0.492 -16.538   4.731  0.00  0.00    -0.494 OA
ATOM     18  C   UNL     1      -1.287 -17.430   5.515  0.00  0.00    +0.277 C 
ENDBRANCH  13  17
ENDBRANCH   8  10
ENDBRANCH   3   7
BRANCH   1  19
ATOM     19  S   UNL     1       2.027  -6.626   6.434  0.00  0.00    -0.078 S 
BRANCH  19  24
ATOM     20  N   UNL     1       2.224  -4.264   3.669  0.00  0.00    -0.209 N 
ATOM     21  C   UNL     1       2.849  -3.504   4.577  0.00  0.00    +0.228 C 
ATOM     22  O   UNL     1       2.919  -2.294   4.551  0.00  0.00    -0.275 OA
ATOM     23  C   UNL     1       3.452  -4.395   5.641  0.00  0.00    +0.120 C 
ATOM     24  C   UNL     1       3.064  -5.816   5.186  0.00  0.00    +0.149 C 
ATOM     25  C   UNL     1       2.278  -5.579   3.915  0.00  0.00    +0.240 C 
ATOM     26  O   UNL     1       1.777  -6.443   3.227  0.00  0.00    -0.274 OA
BRANCH  20  31
ATOM     27  C   UNL     1      -0.465  -3.285   1.352  0.00  0.00    +0.122 A 
ATOM     28  C   UNL     1       0.267  -2.664   0.350  0.00  0.00    +0.046 A 
ATOM     29  C   UNL     1       1.642  -2.576   0.450  0.00  0.00    +0.005 A 
ATOM     30  C   UNL     1       2.292  -3.105   1.549  0.00  0.00    +0.024 A 
ATOM     31  C   UNL     1       1.565  -3.727   2.554  0.00  0.00    +0.047 A 
ATOM     32  C   UNL     1       0.183  -3.812   2.458  0.00  0.00    +0.069 A 
BRANCH  27  33
ATOM     33  O   UNL     1      -1.818  -3.370   1.252  0.00  0.00    -0.492 OA
BRANCH  33  35
ATOM     34  C   UNL     1      -3.936  -2.997   0.150  0.00  0.00    +0.048 C 
ATOM     35  C   UNL     1      -2.419  -2.806   0.085  0.00  0.00    +0.225 C 
ENDBRANCH  33  35
ENDBRANCH  27  33
ENDBRANCH  20  31
ENDBRANCH  19  24
ENDBRANCH   1  19
TORSDOF 8
