REMARK  Name = ZINC09357666
REMARK  5 active torsions:
REMARK  status: ('A' for Active; 'I' for Inactive)
REMARK    1  A    between atoms: C_1  and  C_2
REMARK    2  A    between atoms: C_2  and  C_4
REMARK    3  A    between atoms: C_7  and  N_10
REMARK    4  A    between atoms: C_25  and  C_31
REMARK    5  A    between atoms: N_33  and  C_34
REMARK                            x       y       z     vdW  Elec       q    Type
REMARK                         _______ _______ _______ _____ _____    ______ ____
ROOT
ATOM      1  N   UNL     1       0.656  -1.827  -3.428  0.00  0.00    -0.210 N 
ATOM      2  C   UNL     1       1.705  -2.627  -3.178  0.00  0.00    +0.232 C 
ATOM      3  O   UNL     1       2.133  -3.488  -3.917  0.00  0.00    -0.274 OA
ATOM      4  C   UNL     1       2.265  -2.267  -1.811  0.00  0.00    +0.113 C 
ATOM      5  C   UNL     1       1.524  -3.095  -0.753  0.00  0.00    +0.100 C 
ATOM      6  C   UNL     1       2.444  -4.084  -0.087  0.00  0.00    -0.021 A 
ATOM      7  C   UNL     1       3.458  -4.697  -0.786  0.00  0.00    +0.006 A 
ATOM      8  C   UNL     1       4.292  -5.599  -0.146  0.00  0.00    +0.000 A 
ATOM      9  C   UNL     1       4.110  -5.888   1.195  0.00  0.00    +0.001 A 
ATOM     10  C   UNL     1       3.096  -5.281   1.906  0.00  0.00    +0.008 A 
ATOM     11  C   UNL     1       2.248  -4.372   1.269  0.00  0.00    -0.019 A 
ATOM     12  C   UNL     1       1.155  -3.722   2.020  0.00  0.00    +0.022 C 
ATOM     13  C   UNL     1       0.578  -2.611   1.519  0.00  0.00    +0.054 C 
ATOM     14  C   UNL     1       1.254  -0.791  -0.147  0.00  0.00    +0.156 C 
ATOM     15  C   UNL     1       1.697  -0.828  -1.616  0.00  0.00    +0.118 C 
ATOM     16  C   UNL     1       0.493  -0.839  -2.533  0.00  0.00    +0.232 C 
ATOM     17  O   UNL     1      -0.454  -0.086  -2.471  0.00  0.00    -0.274 OA
ATOM     18  N   UNL     1       0.777  -2.182   0.077  0.00  0.00    -0.383 NA
ATOM     19  H   UNL     1      -0.172  -2.196  -0.315  0.00  0.00    +0.127 HD
ENDROOT
BRANCH   1  23
ATOM     20  C   UNL     1      -1.878  -2.368  -6.694  0.00  0.00    +0.017 A 
ATOM     21  C   UNL     1      -1.819  -3.335  -5.683  0.00  0.00    +0.013 A 
ATOM     22  C   UNL     1      -0.981  -3.152  -4.607  0.00  0.00    +0.024 A 
ATOM     23  C   UNL     1      -0.193  -2.009  -4.522  0.00  0.00    +0.044 A 
ATOM     24  C   UNL     1      -0.252  -1.042  -5.521  0.00  0.00    +0.024 A 
ATOM     25  C   UNL     1      -1.083  -1.218  -6.604  0.00  0.00    +0.013 A 
BRANCH  20  27
ATOM     26  C   UNL     1      -2.832  -1.516  -8.932  0.00  0.00    +0.091 C 
ATOM     27  C   UNL     1      -2.771  -2.558  -7.845  0.00  0.00    +0.160 C 
ATOM     28  O   UNL     1      -3.458  -3.554  -7.921  0.00  0.00    -0.292 OA
ENDBRANCH  20  27
ENDBRANCH   1  23
BRANCH  14  29
ATOM     29  C   UNL     1      -0.039  -0.027  -0.024  0.00  0.00    +0.237 C 
ATOM     30  O   UNL     1      -1.091  -0.625   0.068  0.00  0.00    -0.273 OA
ATOM     31  N   UNL     1      -0.027   1.321  -0.015  0.00  0.00    -0.284 N 
ATOM     32  H   UNL     1       0.817   1.799  -0.021  0.00  0.00    +0.155 HD
BRANCH  31  33
ATOM     33  C   UNL     1      -1.233   2.031  -0.002  0.00  0.00    +0.034 A 
ATOM     34  C   UNL     1      -1.336   3.239  -0.680  0.00  0.00    +0.025 A 
ATOM     35  C   UNL     1      -2.529   3.935  -0.671  0.00  0.00    +0.022 A 
ATOM     36  C   UNL     1      -3.618   3.436   0.022  0.00  0.00    +0.041 A 
ATOM     37  C   UNL     1      -3.516   2.235   0.703  0.00  0.00    +0.022 A 
ATOM     38  C   UNL     1      -2.328   1.532   0.692  0.00  0.00    +0.025 A 
ATOM     39 CL   UNL     1      -5.114   4.316   0.037  0.00  0.00    -0.084 Cl
ENDBRANCH  31  33
ENDBRANCH  14  29
TORSDOF 4
