REMARK  Name = ZINC19869138
REMARK  4 active torsions:
REMARK  status: ('A' for Active; 'I' for Inactive)
REMARK    1  A    between atoms: C_1  and  C_2
REMARK    2  A    between atoms: C_11  and  O_13
REMARK    3  A    between atoms: O_13  and  C_14
REMARK    4  A    between atoms: C_19  and  N_20
REMARK                            x       y       z     vdW  Elec       q    Type
REMARK                         _______ _______ _______ _____ _____    ______ ____
ROOT
ATOM      1  C   UNL     1       2.541  -0.413   0.206  0.00  0.00    +0.045 C 
ATOM      2  C   UNL     1       2.460   1.085   0.349  0.00  0.00    -0.033 A 
ATOM      3  C   UNL     1       3.579   1.827   0.556  0.00  0.00    +0.096 A 
ATOM      4  C   UNL     1       3.478   3.228   0.687  0.00  0.00    +0.337 A 
ATOM      5  O   UNL     1       4.489   3.881   0.873  0.00  0.00    -0.245 OA
ATOM      6  O   UNL     1       2.296   3.859   0.611  0.00  0.00    -0.422 OA
ATOM      7  C   UNL     1       1.147   3.181   0.406  0.00  0.00    +0.143 A 
ATOM      8  C   UNL     1       1.174   1.781   0.267  0.00  0.00    +0.021 A 
ATOM      9  C   UNL     1      -0.015   1.074   0.054  0.00  0.00    +0.015 A 
ATOM     10  C   UNL     1      -1.199   1.747  -0.023  0.00  0.00    +0.047 A 
ATOM     11  C   UNL     1      -1.234   3.133   0.118  0.00  0.00    +0.132 A 
ATOM     12  C   UNL     1      -0.066   3.849   0.330  0.00  0.00    +0.093 A 
ENDROOT
BRANCH  11  13
ATOM     13  O   UNL     1      -2.420   3.788   0.044  0.00  0.00    -0.454 OA
BRANCH  13  14
ATOM     14  C   UNL     1      -3.555   3.044  -0.054  0.00  0.00    +0.149 A 
ATOM     15  C   UNL     1      -4.095   2.763  -1.299  0.00  0.00    +0.051 A 
ATOM     16  C   UNL     1      -5.248   2.006  -1.398  0.00  0.00    +0.042 A 
ATOM     17  C   UNL     1      -5.867   1.528  -0.256  0.00  0.00    +0.125 A 
ATOM     18  C   UNL     1      -5.334   1.806   0.991  0.00  0.00    +0.064 A 
ATOM     19  C   UNL     1      -4.174   2.559   1.096  0.00  0.00    +0.070 A 
ATOM     20  F   UNL     1      -6.994   0.790  -0.358  0.00  0.00    -0.205 F 
BRANCH  19  21
ATOM     21  N   UNL     1      -3.629   2.836   2.355  0.00  0.00    -0.355 N 
ATOM     22  H   UNL     1      -4.118   2.453   3.262  0.00  0.00    +0.142 HD
ATOM     23  H   UNL     1      -2.712   3.438   2.437  0.00  0.00    +0.142 HD
ENDBRANCH  19  21
ENDBRANCH  13  14
ENDBRANCH  11  13
TORSDOF 3
