REMARK  Name = ZINC36313970
REMARK  17 active torsions:
REMARK  status: ('A' for Active; 'I' for Inactive)
REMARK    1  A    between atoms: C_1  and  C_2
REMARK    2  A    between atoms: C_2  and  C_3
REMARK    3  A    between atoms: C_3  and  C_4
REMARK    4  A    between atoms: C_4  and  O_5
REMARK    5  A    between atoms: O_5  and  C_6
REMARK    6  A    between atoms: C_6  and  C_7
REMARK    7  A    between atoms: C_7  and  C_9
REMARK    8  A    between atoms: C_7  and  O_36
REMARK    9  A    between atoms: C_9  and  N_10
REMARK   10  A    between atoms: N_10  and  C_11
REMARK   11  A    between atoms: N_10  and  C_32
REMARK   12  A    between atoms: C_11  and  C_12
REMARK   13  A    between atoms: C_13  and  C_26
REMARK   14  A    between atoms: N_15  and  C_25
REMARK   15  A    between atoms: C_16  and  O_17
REMARK   16  A    between atoms: O_17  and  C_18
REMARK   17  A    between atoms: C_32  and  C_33
REMARK                            x       y       z     vdW  Elec       q    Type
REMARK                         _______ _______ _______ _____ _____    ______ ____
ROOT
ATOM      1  C   UNL     1      -7.798  -7.911   0.942  0.00  0.00    +0.025 A 
ATOM      2  C   UNL     1      -8.355  -7.147   1.985  0.00  0.00    +0.098 A 
ATOM      3  N   UNL     1      -9.592  -7.554   2.175  0.00  0.00    -0.168 NA
ATOM      4  N   UNL     1      -9.860  -8.585   1.265  0.00  0.00    -0.235 N 
ATOM      5  C   UNL     1      -8.746  -8.783   0.514  0.00  0.00    +0.221 A 
ATOM      6  C   UNL     1     -11.123  -9.316   1.141  0.00  0.00    +0.176 C 
ENDROOT
BRANCH   2   7
ATOM      7  C   UNL     1      -7.667  -6.069   2.739  0.00  0.00    +0.002 A 
ATOM      8  C   UNL     1      -6.350  -6.242   3.160  0.00  0.00    +0.010 A 
ATOM      9  C   UNL     1      -5.715  -5.237   3.861  0.00  0.00    +0.001 A 
ATOM     10  C   UNL     1      -6.383  -4.060   4.145  0.00  0.00    +0.000 A 
ATOM     11  C   UNL     1      -7.691  -3.883   3.729  0.00  0.00    +0.001 A 
ATOM     12  C   UNL     1      -8.334  -4.880   3.022  0.00  0.00    +0.010 A 
ENDBRANCH   2   7
BRANCH   1  13
ATOM     13  C   UNL     1      -6.400  -7.780   0.394  0.00  0.00    -0.035 C 
BRANCH  13  14
ATOM     14  N   UNL     1      -6.267  -6.495  -0.306  0.00  0.00    +0.384 N 
ATOM     15  H   UNL     1      -6.566  -5.748   0.302  0.00  0.00    -0.081 HD
BRANCH  14  16
ATOM     16  C   UNL     1      -4.863  -6.287  -0.684  0.00  0.00    -0.044 C 
BRANCH  16  17
ATOM     17  C   UNL     1      -4.694  -4.879  -1.260  0.00  0.00    +0.124 C 
BRANCH  17  18
ATOM     18  O   UNL     1      -5.390  -4.786  -2.504  0.00  0.00    -0.391 OA
ATOM     19  H   UNL     1      -5.079  -5.409  -3.176  0.00  0.00    +0.210 HD
ENDBRANCH  17  18
BRANCH  17  20
ATOM     20  C   UNL     1      -3.207  -4.596  -1.485  0.00  0.00    +0.189 C 
BRANCH  20  21
ATOM     21  O   UNL     1      -3.039  -3.242  -1.912  0.00  0.00    -0.377 OA
BRANCH  21  22
ATOM     22  C   UNL     1      -1.680  -2.873  -2.151  0.00  0.00    +0.160 C 
BRANCH  22  23
ATOM     23  C   UNL     1      -1.620  -1.411  -2.601  0.00  0.00    +0.028 C 
BRANCH  23  25
ATOM     24  C   UNL     1      -0.105   0.446  -3.307  0.00  0.00    +0.004 C 
ATOM     25  C   UNL     1      -0.165  -1.016  -2.857  0.00  0.00    -0.001 C 
ENDBRANCH  23  25
ENDBRANCH  22  23
ENDBRANCH  21  22
ENDBRANCH  20  21
ENDBRANCH  17  20
ENDBRANCH  16  17
ENDBRANCH  14  16
BRANCH  14  26
ATOM     26  C   UNL     1      -7.103  -6.508  -1.515  0.00  0.00    -0.075 C 
BRANCH  26  27
ATOM     27  C   UNL     1      -6.569  -7.556  -2.493  0.00  0.00    -0.028 C 
ATOM     28  C   UNL     1      -7.497  -8.715  -2.862  0.00  0.00    +0.002 C 
ATOM     29  C   UNL     1      -7.205  -7.613  -3.883  0.00  0.00    +0.002 C 
ENDBRANCH  26  27
ENDBRANCH  14  26
ENDBRANCH  13  14
ENDBRANCH   1  13
BRANCH   5  30
ATOM     30  O   UNL     1      -8.605  -9.692  -0.484  0.00  0.00    -0.435 OA
BRANCH  30  31
ATOM     31  C   UNL     1      -8.252 -10.960  -0.147  0.00  0.00    +0.165 A 
ATOM     32  C   UNL     1      -8.138 -11.318   1.188  0.00  0.00    +0.049 A 
ATOM     33  C   UNL     1      -7.779 -12.608   1.528  0.00  0.00    +0.004 A 
ATOM     34  C   UNL     1      -7.532 -13.543   0.540  0.00  0.00    +0.003 A 
ATOM     35  C   UNL     1      -7.644 -13.191  -0.792  0.00  0.00    +0.042 A 
ATOM     36  C   UNL     1      -8.009 -11.902  -1.139  0.00  0.00    +0.165 A 
ATOM     37  F   UNL     1      -8.124 -11.559  -2.441  0.00  0.00    -0.202 F 
ENDBRANCH  30  31
ENDBRANCH   5  30
TORSDOF 15
