REMARK  Name = ZINC17123782
REMARK  8 active torsions:
REMARK  status: ('A' for Active; 'I' for Inactive)
REMARK    1  A    between atoms: C_1  and  C_2
REMARK    2  A    between atoms: C_3  and  C_14
REMARK    3  A    between atoms: N_5  and  C_7
REMARK    4  A    between atoms: C_14  and  C_16
REMARK    5  A    between atoms: C_14  and  C_25
REMARK    6  A    between atoms: C_20  and  N_22
REMARK    7  A    between atoms: C_27  and  C_38
REMARK    8  A    between atoms: N_29  and  C_32
REMARK                            x       y       z     vdW  Elec       q    Type
REMARK                         _______ _______ _______ _____ _____    ______ ____
ROOT
ATOM      1  C   UNL     1      -0.489   4.072  -0.737  0.00  0.00    +0.074 C 
ENDROOT
BRANCH   1   4
ATOM      2  C   UNL     1       0.155   1.157   0.150  0.00  0.00    +0.065 C 
ATOM      3  C   UNL     1      -0.584   1.555  -1.101  0.00  0.00    +0.039 A 
ATOM      4  C   UNL     1      -0.862   2.818  -1.485  0.00  0.00    +0.047 A 
ATOM      5  C   UNL     1      -1.564   2.760  -2.711  0.00  0.00    +0.276 A 
ATOM      6  N   UNL     1      -1.696   1.460  -3.045  0.00  0.00    -0.219 N 
ATOM      7  N   UNL     1      -1.080   0.699  -2.043  0.00  0.00    -0.294 N 
ATOM      8  O   UNL     1      -1.975   3.712  -3.350  0.00  0.00    -0.266 OA
ATOM      9  H   UNL     1      -1.018  -0.269  -2.021  0.00  0.00    +0.187 HD
BRANCH   6  10
ATOM     10  C   UNL     1      -2.330   0.962  -4.187  0.00  0.00    +0.067 A 
ATOM     11  C   UNL     1      -2.893   1.836  -5.108  0.00  0.00    +0.028 A 
ATOM     12  C   UNL     1      -3.518   1.341  -6.236  0.00  0.00    +0.002 A 
ATOM     13  C   UNL     1      -3.585  -0.024  -6.448  0.00  0.00    +0.000 A 
ATOM     14  C   UNL     1      -3.025  -0.897  -5.533  0.00  0.00    +0.002 A 
ATOM     15  C   UNL     1      -2.394  -0.408  -4.407  0.00  0.00    +0.028 A 
ENDBRANCH   6  10
ENDBRANCH   1   4
BRANCH   1  16
ATOM     16  C   UNL     1      -1.738   4.931  -0.527  0.00  0.00    +0.135 C 
ATOM     17  C   UNL     1      -1.402   6.174   0.270  0.00  0.00    +0.047 C 
ATOM     18  N   UNL     1      -2.083   6.127   1.347  0.00  0.00    -0.181 NA
ATOM     19  N   UNL     1      -2.883   4.992   1.440  0.00  0.00    -0.160 N 
ATOM     20  C   UNL     1      -2.743   4.206   0.347  0.00  0.00    +0.249 C 
ATOM     21  O   UNL     1      -3.298   3.152   0.116  0.00  0.00    -0.273 OA
ATOM     22  C   UNL     1      -0.442   7.263  -0.135  0.00  0.00    +0.063 C 
BRANCH  19  23
ATOM     23  C   UNL     1      -3.724   4.702   2.520  0.00  0.00    +0.060 A 
ATOM     24  C   UNL     1      -4.481   3.538   2.521  0.00  0.00    +0.025 A 
ATOM     25  C   UNL     1      -5.310   3.255   3.588  0.00  0.00    +0.002 A 
ATOM     26  C   UNL     1      -5.388   4.130   4.656  0.00  0.00    +0.000 A 
ATOM     27  C   UNL     1      -4.636   5.291   4.659  0.00  0.00    +0.002 A 
ATOM     28  C   UNL     1      -3.800   5.577   3.597  0.00  0.00    +0.025 A 
ENDBRANCH  19  23
ENDBRANCH   1  16
BRANCH   1  29
ATOM     29  C   UNL     1       0.527   4.849  -1.534  0.00  0.00    -0.036 A 
ATOM     30  C   UNL     1       0.152   5.473  -2.710  0.00  0.00    +0.004 A 
ATOM     31  C   UNL     1       1.084   6.186  -3.441  0.00  0.00    +0.003 A 
ATOM     32  C   UNL     1       2.390   6.276  -2.996  0.00  0.00    +0.033 A 
ATOM     33  C   UNL     1       2.764   5.652  -1.821  0.00  0.00    +0.126 A 
ATOM     34  C   UNL     1       1.831   4.943  -1.087  0.00  0.00    +0.037 A 
BRANCH  33  35
ATOM     35  N   UNL     1       4.163   5.748  -1.345  0.00  0.00    +0.056 N 
ATOM     36  O   UNL     1       4.978   6.370  -1.985  0.00  0.00    -0.126 OA
ATOM     37  O   UNL     1       4.490   5.203  -0.317  0.00  0.00    -0.126 OA
ENDBRANCH  33  35
ENDBRANCH   1  29
TORSDOF 6
