REMARK  Name = ZINC63993617
REMARK  9 active torsions:
REMARK  status: ('A' for Active; 'I' for Inactive)
REMARK    1  A    between atoms: C_1  and  C_2
REMARK    2  A    between atoms: C_2  and  C_4
REMARK    3  A    between atoms: C_2  and  N_10
REMARK    4  A    between atoms: C_11  and  C_13
REMARK    5  A    between atoms: N_16  and  C_18
REMARK    6  A    between atoms: C_18  and  C_19
REMARK    7  A    between atoms: C_19  and  O_20
REMARK    8  A    between atoms: N_23  and  C_25
REMARK    9  A    between atoms: C_25  and  C_26
REMARK                            x       y       z     vdW  Elec       q    Type
REMARK                         _______ _______ _______ _____ _____    ______ ____
ROOT
ATOM      1  C   UNL     1       2.768  -1.089   2.370  0.00  0.00    +0.152 A 
ATOM      2  C   UNL     1       4.154  -1.253   2.510  0.00  0.00    +0.020 A 
ATOM      3  C   UNL     1       4.348  -1.724   3.769  0.00  0.00    +0.046 A 
ATOM      4  N   UNL     1       3.143  -1.831   4.345  0.00  0.00    -0.265 N 
ATOM      5  N   UNL     1       2.226  -1.453   3.521  0.00  0.00    -0.166 NA
ATOM      6  C   UNL     1       5.714  -2.044   4.323  0.00  0.00    +0.071 C 
ATOM      7  C   UNL     1       6.692  -2.127   3.142  0.00  0.00    +0.091 C 
ATOM      8  N   UNL     1       6.535  -0.945   2.282  0.00  0.00    -0.294 NA
ATOM      9  C   UNL     1       5.266  -0.987   1.534  0.00  0.00    +0.124 C 
ENDROOT
BRANCH   1  11
ATOM     10  N   UNL     1       0.711  -0.489   1.189  0.00  0.00    -0.303 N 
ATOM     11  C   UNL     1       2.054  -0.600   1.174  0.00  0.00    +0.265 C 
ATOM     12  O   UNL     1       2.677  -0.297   0.175  0.00  0.00    -0.268 OA
ATOM     13  H   UNL     1       0.213  -0.731   1.986  0.00  0.00    +0.150 HD
BRANCH  10  15
ATOM     14  C   UNL     1      -0.019   1.526   0.010  0.00  0.00    +0.033 C 
ATOM     15  C   UNL     1       0.002  -0.004   0.002  0.00  0.00    +0.100 C 
BRANCH  15  16
ATOM     16  C   UNL     1      -1.412  -0.526   0.013  0.00  0.00    -0.027 A 
ATOM     17  C   UNL     1      -2.123  -0.571   1.197  0.00  0.00    +0.005 A 
ATOM     18  C   UNL     1      -3.420  -1.049   1.207  0.00  0.00    +0.000 A 
ATOM     19  C   UNL     1      -4.006  -1.482   0.032  0.00  0.00    +0.000 A 
ATOM     20  C   UNL     1      -3.295  -1.436  -1.153  0.00  0.00    +0.000 A 
ATOM     21  C   UNL     1      -2.000  -0.954  -1.163  0.00  0.00    +0.005 A 
ENDBRANCH  15  16
ENDBRANCH  10  15
ENDBRANCH   1  11
BRANCH   4  22
ATOM     22  C   UNL     1       2.903  -2.302   5.711  0.00  0.00    +0.171 C 
BRANCH  22  23
ATOM     23  C   UNL     1       2.932  -1.112   6.673  0.00  0.00    +0.179 C 
BRANCH  23  24
ATOM     24  O   UNL     1       2.697  -1.572   8.005  0.00  0.00    -0.393 OA
ATOM     25  H   UNL     1       2.702  -0.869   8.670  0.00  0.00    +0.209 HD
ENDBRANCH  23  24
ENDBRANCH  22  23
ENDBRANCH   4  22
BRANCH   8  26
ATOM     26  C   UNL     1       7.679  -0.802   1.371  0.00  0.00    +0.118 C 
BRANCH  26  27
ATOM     27  C   UNL     1       8.922  -0.503   2.169  0.00  0.00    -0.028 C 
ATOM     28  C   UNL     1       9.845  -1.393   2.600  0.00  0.00    +0.000 A 
ATOM     29  C   UNL     1       9.964  -2.849   2.461  0.00  0.00    +0.010 A 
ATOM     30  C   UNL     1      11.026  -3.477   3.015  0.00  0.00    +0.001 A 
ATOM     31  C   UNL     1      12.014  -2.773   3.717  0.00  0.00    +0.002 A 
ATOM     32  C   UNL     1      11.975  -1.434   3.886  0.00  0.00    +0.026 A 
ATOM     33  C   UNL     1      10.902  -0.673   3.345  0.00  0.00    +0.043 A 
ATOM     34  N   UNL     1      10.643   0.612   3.375  0.00  0.00    -0.380 N 
ATOM     35  C   UNL     1       9.393   0.853   2.645  0.00  0.00    +0.146 C 
ATOM     36  H   UNL     1      11.188   1.290   3.804  0.00  0.00    +0.160 HD
ENDBRANCH  26  27
ENDBRANCH   8  26
TORSDOF 8
