REMARK  Name = ZINC35559221
REMARK  5 active torsions:
REMARK  status: ('A' for Active; 'I' for Inactive)
REMARK    1  A    between atoms: C_5  and  N_7
REMARK    2  A    between atoms: C_8  and  C_14
REMARK    3  A    between atoms: C_18  and  N_20
REMARK    4  A    between atoms: N_23  and  C_24
REMARK    5  A    between atoms: C_27  and  C_30
REMARK                            x       y       z     vdW  Elec       q    Type
REMARK                         _______ _______ _______ _____ _____    ______ ____
ROOT
ATOM      1  C   UNL     1       0.344  -2.242   2.302  0.00  0.00    -0.015 A 
ATOM      2  C   UNL     1      -0.869  -1.696   1.925  0.00  0.00    +0.006 A 
ATOM      3  C   UNL     1      -1.701  -1.131   2.875  0.00  0.00    +0.002 A 
ATOM      4  C   UNL     1      -1.322  -1.111   4.203  0.00  0.00    +0.023 A 
ATOM      5  C   UNL     1      -0.105  -1.659   4.585  0.00  0.00    +0.035 A 
ATOM      6  C   UNL     1       0.726  -2.230   3.629  0.00  0.00    +0.029 A 
ENDROOT
BRANCH   1   8
ATOM      7  N   UNL     1       1.266  -2.046   0.032  0.00  0.00    -0.251 N 
ATOM      8  C   UNL     1       1.248  -2.856   1.264  0.00  0.00    +0.170 C 
ATOM      9  S   UNL     1       0.556  -4.449   0.641  0.00  0.00    -0.124 S 
ATOM     10  C   UNL     1       0.941  -4.158  -1.140  0.00  0.00    +0.167 C 
ATOM     11  C   UNL     1       1.118  -2.648  -1.141  0.00  0.00    +0.231 C 
ATOM     12  O   UNL     1       1.128  -2.017  -2.177  0.00  0.00    -0.274 OA
BRANCH   7  17
ATOM     13  C   UNL     1       0.492   1.548   0.125  0.00  0.00    +0.002 A 
ATOM     14  C   UNL     1       1.760   2.088   0.231  0.00  0.00    +0.003 A 
ATOM     15  C   UNL     1       2.867   1.260   0.271  0.00  0.00    +0.040 A 
ATOM     16  C   UNL     1       2.707  -0.113   0.205  0.00  0.00    +0.145 A 
ATOM     17  C   UNL     1       1.432  -0.657   0.099  0.00  0.00    +0.073 A 
ATOM     18  C   UNL     1       0.325   0.178   0.059  0.00  0.00    +0.026 A 
ATOM     19  F   UNL     1       3.788  -0.922   0.244  0.00  0.00    -0.204 F 
ENDBRANCH   7  17
ENDBRANCH   1   8
BRANCH   5  20
ATOM     20  N   UNL     1       0.282  -1.641   5.929  0.00  0.00    -0.269 N 
ATOM     21  C   UNL     1       1.577  -1.465   6.256  0.00  0.00    +0.308 C 
ATOM     22  O   UNL     1       2.416  -1.359   5.381  0.00  0.00    -0.252 OA
ATOM     23  N   UNL     1       1.944  -1.406   7.551  0.00  0.00    -0.269 N 
ATOM     24  H   UNL     1      -0.383  -1.754   6.627  0.00  0.00    +0.156 HD
ATOM     25  H   UNL     1       1.300  -1.611   8.247  0.00  0.00    +0.156 HD
BRANCH  23  26
ATOM     26  C   UNL     1       3.250  -1.052   7.891  0.00  0.00    +0.035 A 
ATOM     27  C   UNL     1       3.958  -0.160   7.092  0.00  0.00    +0.024 A 
ATOM     28  C   UNL     1       5.246   0.192   7.424  0.00  0.00    +0.020 A 
ATOM     29  C   UNL     1       5.843  -0.347   8.567  0.00  0.00    +0.052 A 
ATOM     30  C   UNL     1       5.129  -1.242   9.369  0.00  0.00    +0.020 A 
ATOM     31  C   UNL     1       3.839  -1.586   9.033  0.00  0.00    +0.024 A 
BRANCH  29  32
ATOM     32  C   UNL     1       7.184   0.017   8.916  0.00  0.00    +0.099 C 
ATOM     33  N   UNL     1       8.247   0.305   9.193  0.00  0.00    -0.191 NA
ENDBRANCH  29  32
ENDBRANCH  23  26
ENDBRANCH   5  20
TORSDOF 5
