REMARK  Name = ZINC06632150
REMARK  13 active torsions:
REMARK  status: ('A' for Active; 'I' for Inactive)
REMARK    1  A    between atoms: C_1  and  C_2
REMARK    2  A    between atoms: C_2  and  C_3
REMARK    3  A    between atoms: C_3  and  C_5
REMARK    4  A    between atoms: C_3  and  N_12
REMARK    5  A    between atoms: N_7  and  C_8
REMARK    6  A    between atoms: C_8  and  C_9
REMARK    7  A    between atoms: C_8  and  C_10
REMARK    8  A    between atoms: C_8  and  C_11
REMARK    9  A    between atoms: N_12  and  C_13
REMARK   10  A    between atoms: C_13  and  C_14
REMARK   11  A    between atoms: C_19  and  C_21
REMARK   12  A    between atoms: C_21  and  N_22
REMARK   13  A    between atoms: C_24  and  C_27
REMARK                            x       y       z     vdW  Elec       q    Type
REMARK                         _______ _______ _______ _____ _____    ______ ____
ROOT
ATOM      1  N   UNL     1      -1.508  -0.216  -1.357  0.00  0.00    -0.281 N 
ATOM      2  C   UNL     1      -2.163   0.958  -1.443  0.00  0.00    +0.240 C 
ATOM      3  O   UNL     1      -2.587   1.492  -0.440  0.00  0.00    -0.273 OA
ENDROOT
BRANCH   1   4
ATOM      4  C   UNL     1      -1.308  -0.849  -0.050  0.00  0.00    +0.162 C 
BRANCH   4   5
ATOM      5  C   UNL     1      -0.428   0.028   0.803  0.00  0.00    +0.234 C 
ATOM      6  O   UNL     1      -0.212   1.175   0.473  0.00  0.00    -0.274 OA
ATOM      7  N   UNL     1       0.119  -0.463   1.933  0.00  0.00    -0.309 N 
ATOM      8  H   UNL     1      -0.054  -1.380   2.197  0.00  0.00    +0.149 HD
BRANCH   7   9
ATOM      9  C   UNL     1       0.974   0.390   2.762  0.00  0.00    +0.026 C 
ATOM     10  C   UNL     1       0.176   1.606   3.236  0.00  0.00    +0.031 C 
ATOM     11  C   UNL     1       1.462  -0.404   3.976  0.00  0.00    +0.031 C 
ATOM     12  C   UNL     1       2.178   0.857   1.942  0.00  0.00    +0.031 C 
ENDBRANCH   7   9
ENDBRANCH   4   5
BRANCH   4  14
ATOM     13  C   UNL     1      -3.509  -2.026  -0.165  0.00  0.00    +0.006 C 
ATOM     14  C   UNL     1      -2.662  -1.037   0.638  0.00  0.00    +0.028 C 
ENDBRANCH   4  14
ENDBRANCH   1   4
BRANCH   1  15
ATOM     15  C   UNL     1      -0.996  -0.861  -2.568  0.00  0.00    +0.182 C 
BRANCH  15  16
ATOM     16  C   UNL     1      -1.993  -1.880  -3.055  0.00  0.00    +0.122 A 
ATOM     17  C   UNL     1      -2.972  -1.657  -3.951  0.00  0.00    +0.046 A 
ATOM     18  C   UNL     1      -3.664  -2.879  -4.114  0.00  0.00    +0.041 A 
ATOM     19  C   UNL     1      -3.068  -3.775  -3.307  0.00  0.00    +0.195 A 
ATOM     20  O   UNL     1      -2.053  -3.166  -2.673  0.00  0.00    -0.466 OA
ENDBRANCH  15  16
ENDBRANCH   1  15
BRANCH   2  21
ATOM     21  C   UNL     1      -2.369   1.609  -2.787  0.00  0.00    +0.264 C 
BRANCH  21  22
ATOM     22  N   UNL     1      -3.102   2.865  -2.614  0.00  0.00    -0.154 N 
ATOM     23  N   UNL     1      -4.384   2.989  -2.631  0.00  0.00    -0.130 NA
ATOM     24  C   UNL     1      -4.670   4.262  -2.443  0.00  0.00    +0.205 A 
ATOM     25  N   UNL     1      -3.500   4.902  -2.311  0.00  0.00    -0.108 NA
ATOM     26  N   UNL     1      -2.566   4.019  -2.415  0.00  0.00    -0.045 NA
BRANCH  24  27
ATOM     27  C   UNL     1      -6.024   4.868  -2.388  0.00  0.00    +0.023 A 
ATOM     28  C   UNL     1      -7.154   4.068  -2.538  0.00  0.00    +0.014 A 
ATOM     29  C   UNL     1      -8.411   4.635  -2.487  0.00  0.00    +0.039 A 
ATOM     30  C   UNL     1      -8.549   5.999  -2.286  0.00  0.00    +0.123 A 
ATOM     31  C   UNL     1      -7.428   6.799  -2.136  0.00  0.00    +0.039 A 
ATOM     32  C   UNL     1      -6.168   6.238  -2.181  0.00  0.00    +0.014 A 
ATOM     33  F   UNL     1      -9.781   6.551  -2.237  0.00  0.00    -0.205 F 
ENDBRANCH  24  27
ENDBRANCH  21  22
ENDBRANCH   2  21
TORSDOF 9
