REMARK  Name = ZINC22380568
REMARK  6 active torsions:
REMARK  status: ('A' for Active; 'I' for Inactive)
REMARK    1  A    between atoms: C_10  and  N_11
REMARK    2  A    between atoms: C_12  and  C_14
REMARK    3  A    between atoms: C_14  and  N_15
REMARK    4  A    between atoms: N_15  and  C_16
REMARK    5  A    between atoms: N_15  and  S_23
REMARK    6  A    between atoms: S_23  and  C_26
REMARK                            x       y       z     vdW  Elec       q    Type
REMARK                         _______ _______ _______ _____ _____    ______ ____
ROOT
ATOM      1  N   UNL     1       4.338  -1.105  -1.826  0.00  0.00    -0.194 N 
ENDROOT
BRANCH   1   2
ATOM      2  C   UNL     1       4.912  -0.273  -2.790  0.00  0.00    +0.055 A 
ATOM      3  C   UNL     1       5.380  -0.810  -3.983  0.00  0.00    +0.025 A 
ATOM      4  C   UNL     1       5.947   0.014  -4.935  0.00  0.00    +0.005 A 
ATOM      5  C   UNL     1       6.050   1.373  -4.703  0.00  0.00    +0.038 A 
ATOM      6  C   UNL     1       5.585   1.913  -3.515  0.00  0.00    +0.125 A 
ATOM      7  C   UNL     1       5.011   1.092  -2.560  0.00  0.00    +0.063 A 
ATOM      8  F   UNL     1       5.686   3.241  -3.291  0.00  0.00    -0.205 F 
ENDBRANCH   1   2
BRANCH   1   9
ATOM      9  S   UNL     1       5.038  -1.248  -0.332  0.00  0.00    +0.075 S 
ATOM     10  O   UNL     1       6.410  -0.912  -0.493  0.00  0.00    -0.150 OA
ATOM     11  O   UNL     1       4.616  -2.497   0.197  0.00  0.00    -0.150 OA
BRANCH   9  12
ATOM     12  C   UNL     1       4.332  -0.002   0.695  0.00  0.00    +0.112 A 
ATOM     13  C   UNL     1       3.124  -0.231   1.326  0.00  0.00    +0.032 A 
ATOM     14  C   UNL     1       2.566   0.744   2.131  0.00  0.00    +0.051 A 
ATOM     15  C   UNL     1       3.218   1.956   2.307  0.00  0.00    +0.162 A 
ATOM     16  C   UNL     1       4.434   2.185   1.674  0.00  0.00    +0.164 A 
ATOM     17  C   UNL     1       4.987   1.203   0.867  0.00  0.00    +0.078 A 
ATOM     18  O   UNL     1       5.094   3.364   1.840  0.00  0.00    -0.485 OA
ATOM     19  C   UNL     1       4.331   4.462   2.353  0.00  0.00    +0.270 C 
ATOM     20  C   UNL     1       3.513   3.961   3.551  0.00  0.00    +0.270 C 
ATOM     21  O   UNL     1       2.652   2.910   3.096  0.00  0.00    -0.485 OA
ENDBRANCH   9  12
ENDBRANCH   1   9
BRANCH   1  22
ATOM     22  C   UNL     1       3.117  -1.852  -2.137  0.00  0.00    +0.227 C 
BRANCH  22  24
ATOM     23  N   UNL     1       0.675  -1.456  -2.107  0.00  0.00    -0.284 N 
ATOM     24  C   UNL     1       1.915  -0.977  -1.888  0.00  0.00    +0.236 C 
ATOM     25  O   UNL     1       2.065   0.159  -1.490  0.00  0.00    -0.274 OA
ATOM     26  H   UNL     1       0.541  -2.462  -2.534  0.00  0.00    +0.155 HD
BRANCH  23  36
ATOM     27  C   UNL     1      -4.049  -2.449  -0.633  0.00  0.00    +0.001 A 
ATOM     28  C   UNL     1      -2.948  -3.245  -0.943  0.00  0.00    +0.001 A 
ATOM     29  C   UNL     1      -1.765  -2.687  -1.322  0.00  0.00    +0.010 A 
ATOM     30  C   UNL     1      -1.651  -1.291  -1.409  0.00  0.00    +0.003 A 
ATOM     31  C   UNL     1      -2.769  -0.480  -1.089  0.00  0.00    -0.016 A 
ATOM     32  C   UNL     1      -3.974  -1.091  -0.701  0.00  0.00    +0.008 A 
ATOM     33  C   UNL     1      -2.655   0.918  -1.171  0.00  0.00    +0.008 A 
ATOM     34  C   UNL     1      -1.475   1.483  -1.550  0.00  0.00    +0.002 A 
ATOM     35  C   UNL     1      -0.370   0.697  -1.861  0.00  0.00    +0.024 A 
ATOM     36  C   UNL     1      -0.440  -0.677  -1.793  0.00  0.00    +0.041 A 
ENDBRANCH  23  36
ENDBRANCH  22  24
ENDBRANCH   1  22
TORSDOF 6
