REMARK  Name = ZINC20589417
REMARK  6 active torsions:
REMARK  status: ('A' for Active; 'I' for Inactive)
REMARK    1  A    between atoms: C_1  and  C_2
REMARK    2  A    between atoms: N_9  and  C_12
REMARK    3  A    between atoms: C_12  and  C_13
REMARK    4  A    between atoms: C_13  and  O_14
REMARK    5  A    between atoms: O_14  and  C_15
REMARK    6  A    between atoms: C_17  and  C_18
REMARK                            x       y       z     vdW  Elec       q    Type
REMARK                         _______ _______ _______ _____ _____    ______ ____
ROOT
ATOM      1  C   UNL     1       4.908   1.686  -0.036  0.00  0.00    +0.046 C 
ATOM      2  C   UNL     1       3.513   2.256  -0.020  0.00  0.00    -0.015 A 
ATOM      3  C   UNL     1       2.396   1.413  -0.014  0.00  0.00    +0.074 A 
ATOM      4  C   UNL     1       1.147   2.054   0.002  0.00  0.00    +0.095 A 
ATOM      5  N   UNL     1      -0.016   1.343   0.009  0.00  0.00    -0.301 N 
ATOM      6  H   UNL     1      -0.983   1.868   0.021  0.00  0.00    +0.171 HD
ATOM      7  C   UNL     1       0.002  -0.004   0.002  0.00  0.00    +0.330 A 
ATOM      8  O   UNL     1      -1.050  -0.613   0.009  0.00  0.00    -0.246 OA
ATOM      9  N   UNL     1       1.157  -0.689  -0.013  0.00  0.00    -0.258 N 
ATOM     10  C   UNL     1       2.351  -0.070  -0.022  0.00  0.00    +0.265 A 
ATOM     11  O   UNL     1       3.381  -0.718  -0.035  0.00  0.00    -0.267 OA
ATOM     12  S   UNL     1       1.531   3.735   0.009  0.00  0.00    -0.063 S 
ATOM     13  C   UNL     1       3.310   3.606  -0.009  0.00  0.00    +0.106 A 
ENDROOT
BRANCH  13  14
ATOM     14  C   UNL     1       4.304   4.679  -0.013  0.00  0.00    +0.393 C 
ATOM     15  O   UNL     1       5.490   4.410  -0.027  0.00  0.00    -0.240 OA
ATOM     16  O   UNL     1       3.905   5.968  -0.001  0.00  0.00    -0.240 OA
ENDBRANCH  13  14
BRANCH   9  17
ATOM     17  C   UNL     1       1.115  -2.153  -0.021  0.00  0.00    +0.158 C 
BRANCH  17  18
ATOM     18  C   UNL     1       1.087  -2.655  -1.466  0.00  0.00    +0.181 C 
BRANCH  18  19
ATOM     19  O   UNL     1       2.312  -2.308  -2.115  0.00  0.00    -0.381 OA
ATOM     20  C   UNL     1       2.389  -2.732  -3.477  0.00  0.00    +0.194 C 
ENDBRANCH  18  19
ENDBRANCH  17  18
ENDBRANCH   9  17
TORSDOF 4
