REMARK  Name = ZINC33324906
REMARK  8 active torsions:
REMARK  status: ('A' for Active; 'I' for Inactive)
REMARK    1  A    between atoms: C_1  and  C_2
REMARK    2  A    between atoms: C_10  and  C_12
REMARK    3  A    between atoms: C_16  and  O_18
REMARK    4  A    between atoms: C_22  and  C_25
REMARK    5  A    between atoms: C_28  and  O_33
REMARK    6  A    between atoms: C_29  and  O_31
REMARK    7  A    between atoms: O_31  and  C_32
REMARK    8  A    between atoms: O_33  and  C_34
REMARK                            x       y       z     vdW  Elec       q    Type
REMARK                         _______ _______ _______ _____ _____    ______ ____
ROOT
ATOM      1  C   UNL     1       0.828   5.403  -3.152  0.00  0.00    +0.069 C 
ATOM      2  C   UNL     1      -0.459   5.882  -2.530  0.00  0.00    +0.087 A 
ATOM      3  C   UNL     1      -0.801   5.843  -1.181  0.00  0.00    +0.049 A 
ATOM      4  C   UNL     1      -2.057   6.391  -1.131  0.00  0.00    +0.226 A 
ATOM      5  O   UNL     1      -2.377   6.706  -2.381  0.00  0.00    -0.339 OA
ATOM      6  N   UNL     1      -1.480   6.419  -3.150  0.00  0.00    -0.081 NA
ATOM      7  N   UNL     1      -2.730   6.525   0.067  0.00  0.00    -0.286 N 
ATOM      8  C   UNL     1      -2.027   6.370   1.238  0.00  0.00    +0.019 C 
ATOM      9  C   UNL     1      -0.787   5.838   1.276  0.00  0.00    +0.024 C 
ATOM     10  C   UNL     1      -0.076   5.351   0.029  0.00  0.00    +0.091 C 
ATOM     11  C   UNL     1      -0.090   5.713   2.491  0.00  0.00    +0.162 C 
ATOM     12  O   UNL     1       1.020   5.218   2.491  0.00  0.00    -0.292 OA
ATOM     13  C   UNL     1      -0.685   6.178   3.791  0.00  0.00    +0.088 C 
ATOM     14  C   UNL     1      -1.666   7.322   3.506  0.00  0.00    +0.032 C 
ATOM     15  C   UNL     1      -2.711   6.821   2.508  0.00  0.00    +0.059 C 
ATOM     16  H   UNL     1      -3.807   6.750   0.070  0.00  0.00    +0.155 HD
ENDROOT
BRANCH  10  17
ATOM     17  C   UNL     1      -0.051   3.844   0.022  0.00  0.00    -0.032 A 
ATOM     18  C   UNL     1      -1.237   3.133   0.030  0.00  0.00    +0.005 A 
ATOM     19  C   UNL     1      -1.218   1.751   0.017  0.00  0.00    +0.004 A 
ATOM     20  C   UNL     1      -0.013   1.076   0.008  0.00  0.00    +0.045 A 
ATOM     21  C   UNL     1       1.179   1.786   0.000  0.00  0.00    +0.117 A 
ATOM     22  C   UNL     1       1.157   3.174   0.008  0.00  0.00    +0.050 A 
BRANCH  21  23
ATOM     23  O   UNL     1       2.366   1.125  -0.015  0.00  0.00    -0.507 OA
ATOM     24  H   UNL     1       3.310   1.689  -0.021  0.00  0.00    +0.292 HD
ENDBRANCH  21  23
ENDBRANCH  10  17
BRANCH  14  25
ATOM     25  C   UNL     1      -2.344   7.739   4.786  0.00  0.00    -0.040 A 
ATOM     26  C   UNL     1      -3.083   6.819   5.506  0.00  0.00    +0.008 A 
ATOM     27  C   UNL     1      -3.703   7.196   6.683  0.00  0.00    +0.049 A 
ATOM     28  C   UNL     1      -3.592   8.500   7.138  0.00  0.00    +0.161 A 
ATOM     29  C   UNL     1      -2.853   9.427   6.410  0.00  0.00    +0.162 A 
ATOM     30  C   UNL     1      -2.230   9.042   5.234  0.00  0.00    +0.053 A 
BRANCH  29  31
ATOM     31  O   UNL     1      -2.742  10.709   6.852  0.00  0.00    -0.491 OA
ATOM     32  C   UNL     1      -1.968  11.605   6.053  0.00  0.00    +0.277 C 
ENDBRANCH  29  31
BRANCH  28  33
ATOM     33  O   UNL     1      -4.206   8.874   8.293  0.00  0.00    -0.491 OA
ATOM     34  C   UNL     1      -4.948   7.869   8.987  0.00  0.00    +0.277 C 
ENDBRANCH  28  33
ENDBRANCH  14  25
TORSDOF 5
