REMARK  Name = ZINC58168795
REMARK  6 active torsions:
REMARK  status: ('A' for Active; 'I' for Inactive)
REMARK    1  A    between atoms: C_1  and  C_2
REMARK    2  A    between atoms: C_4  and  C_14
REMARK    3  A    between atoms: C_8  and  C_13
REMARK    4  A    between atoms: C_9  and  C_12
REMARK    5  A    between atoms: C_14  and  N_15
REMARK    6  A    between atoms: C_22  and  C_25
REMARK                            x       y       z     vdW  Elec       q    Type
REMARK                         _______ _______ _______ _____ _____    ______ ____
ROOT
ATOM      1  N   UNL     1      -1.328  -3.258  -2.860  0.00  0.00    -0.295 N 
ATOM      2  C   UNL     1      -1.569  -3.935  -4.000  0.00  0.00    +0.303 C 
ATOM      3  O   UNL     1      -0.682  -4.082  -4.819  0.00  0.00    -0.253 OA
ATOM      4  N   UNL     1      -2.793  -4.449  -4.233  0.00  0.00    -0.281 N 
ATOM      5  C   UNL     1      -3.049  -5.292  -5.412  0.00  0.00    +0.137 C 
ATOM      6  C   UNL     1      -4.286  -4.749  -6.136  0.00  0.00    +0.179 C 
ATOM      7  O   UNL     1      -5.360  -4.622  -5.201  0.00  0.00    -0.369 OA
ATOM      8  C   UNL     1      -5.108  -3.695  -4.142  0.00  0.00    +0.166 C 
ATOM      9  C   UNL     1      -3.912  -4.188  -3.313  0.00  0.00    +0.145 C 
ATOM     10  H   UNL     1      -2.053  -3.079  -2.240  0.00  0.00    +0.151 HD
ENDROOT
BRANCH   8  11
ATOM     11  C   UNL     1      -6.325  -3.596  -3.259  0.00  0.00    -0.017 A 
ATOM     12  C   UNL     1      -7.043  -4.735  -2.942  0.00  0.00    +0.009 A 
ATOM     13  C   UNL     1      -8.159  -4.646  -2.132  0.00  0.00    +0.039 A 
ATOM     14  C   UNL     1      -8.558  -3.416  -1.637  0.00  0.00    +0.123 A 
ATOM     15  C   UNL     1      -7.839  -2.276  -1.955  0.00  0.00    +0.039 A 
ATOM     16  C   UNL     1      -6.720  -2.369  -2.761  0.00  0.00    +0.009 A 
ATOM     17  F   UNL     1      -9.649  -3.328  -0.845  0.00  0.00    -0.205 F 
ENDBRANCH   8  11
BRANCH   1  18
ATOM     18  C   UNL     1       0.028  -2.794  -2.556  0.00  0.00    +0.143 C 
BRANCH  18  22
ATOM     19  C   UNL     1      -0.017   1.490   0.027  0.00  0.00    +0.044 C 
ATOM     20  C   UNL     1       0.005  -0.017   0.013  0.00  0.00    -0.049 A 
ATOM     21  C   UNL     1       0.007  -0.694  -1.198  0.00  0.00    +0.010 A 
ATOM     22  C   UNL     1       0.026  -2.071  -1.233  0.00  0.00    -0.006 A 
ATOM     23  C   UNL     1       0.044  -2.792  -0.044  0.00  0.00    +0.052 A 
ATOM     24  C   UNL     1       0.043  -2.101   1.181  0.00  0.00    +0.003 A 
ATOM     25  C   UNL     1       0.028  -0.705   1.193  0.00  0.00    +0.013 A 
ATOM     26  C   UNL     1       0.064  -3.128   2.226  0.00  0.00    -0.022 A 
ATOM     27  C   UNL     1       0.077  -4.318   1.605  0.00  0.00    +0.017 A 
ATOM     28  N   UNL     1       0.066  -4.138   0.249  0.00  0.00    -0.358 N 
ATOM     29  H   UNL     1       0.072  -4.851  -0.408  0.00  0.00    +0.166 HD
ATOM     30  C   UNL     1       0.100  -5.655   2.300  0.00  0.00    +0.063 C 
ATOM     31  C   UNL     1       0.071  -2.893   3.714  0.00  0.00    +0.046 C 
ENDBRANCH  18  22
ENDBRANCH   1  18
TORSDOF 3
