REMARK  Name = ZINC28955951
REMARK  7 active torsions:
REMARK  status: ('A' for Active; 'I' for Inactive)
REMARK    1  A    between atoms: C_5  and  C_6
REMARK    2  A    between atoms: C_7  and  S_8
REMARK    3  A    between atoms: S_8  and  N_11
REMARK    4  A    between atoms: N_11  and  C_12
REMARK    5  A    between atoms: C_12  and  C_13
REMARK    6  A    between atoms: C_19  and  C_21
REMARK    7  A    between atoms: N_24  and  C_27
REMARK                            x       y       z     vdW  Elec       q    Type
REMARK                         _______ _______ _______ _____ _____    ______ ____
ROOT
ATOM      1  C   UNL     1       0.484  10.239   3.079  0.00  0.00    +0.023 C 
ATOM      2  C   UNL     1      -0.332   9.034   3.618  0.00  0.00    +0.025 C 
ATOM      3  C   UNL     1       0.339   7.827   2.930  0.00  0.00    +0.108 C 
ATOM      4  N   UNL     1       1.023   8.333   1.731  0.00  0.00    -0.301 N 
ATOM      5  C   UNL     1       0.793   9.785   1.633  0.00  0.00    +0.112 C 
ATOM      6  C   UNL     1       1.746   7.592   0.868  0.00  0.00    +0.219 C 
ATOM      7  O   UNL     1       2.343   8.130  -0.041  0.00  0.00    -0.275 OA
ENDROOT
BRANCH   6   8
ATOM      8  C   UNL     1       1.812   6.095   1.031  0.00  0.00    +0.078 C 
ATOM      9  C   UNL     1       3.190   5.593   0.592  0.00  0.00    +0.031 C 
ATOM     10  C   UNL     1       3.231   4.067   0.702  0.00  0.00    +0.106 C 
ATOM     11  N   UNL     1       2.184   3.485  -0.148  0.00  0.00    -0.330 N 
ATOM     12  C   UNL     1       0.848   3.916   0.285  0.00  0.00    +0.106 C 
ATOM     13  C   UNL     1       0.737   5.437   0.162  0.00  0.00    +0.031 C 
BRANCH  11  14
ATOM     14  C   UNL     1       2.276   2.097  -0.173  0.00  0.00    +0.032 A 
ATOM     15  C   UNL     1       1.379   1.334  -0.920  0.00  0.00    +0.040 A 
ATOM     16  C   UNL     1       1.505  -0.039  -0.919  0.00  0.00    +0.084 A 
ATOM     17  N   UNL     1       2.458  -0.631  -0.224  0.00  0.00    -0.367 N 
ATOM     18  C   UNL     1       3.326   0.056   0.495  0.00  0.00    +0.084 A 
ATOM     19  C   UNL     1       3.268   1.433   0.547  0.00  0.00    +0.040 A 
ATOM     20  H   UNL     1       2.546  -1.728  -0.233  0.00  0.00    +0.165 HD
ENDBRANCH  11  14
ENDBRANCH   6   8
BRANCH   1  21
ATOM     21  C   UNL     1      -0.356  11.518   3.088  0.00  0.00    +0.111 C 
BRANCH  21  22
ATOM     22  N   UNL     1      -0.650  11.899   4.472  0.00  0.00    -0.190 NA
ATOM     23  H   UNL     1      -0.656  11.134   5.263  0.00  0.00    +0.148 HD
BRANCH  22  24
ATOM     24  S   UNL     1      -1.214  13.418   4.811  0.00  0.00    +0.052 S 
ATOM     25  O   UNL     1      -1.426  13.469   6.215  0.00  0.00    -0.154 OA
ATOM     26  O   UNL     1      -0.357  14.329   4.136  0.00  0.00    -0.154 OA
BRANCH  24  28
ATOM     27  C   UNL     1      -3.884  13.716   4.812  0.00  0.00    +0.035 C 
ATOM     28  C   UNL     1      -2.800  13.566   4.057  0.00  0.00    +0.154 C 
BRANCH  27  33
ATOM     29  C   UNL     1      -6.435  13.993   4.775  0.00  0.00    +0.017 A 
ATOM     30  C   UNL     1      -7.549  14.091   3.971  0.00  0.00    +0.028 A 
ATOM     31  C   UNL     1      -7.400  14.021   2.622  0.00  0.00    +0.079 A 
ATOM     32  S   UNL     1      -5.635  13.818   2.449  0.00  0.00    -0.077 S 
ATOM     33  C   UNL     1      -5.208  13.839   4.183  0.00  0.00    +0.015 A 
ATOM     34 CL   UNL     1      -8.615  14.108   1.384  0.00  0.00    -0.076 Cl
ENDBRANCH  27  33
ENDBRANCH  24  28
ENDBRANCH  22  24
ENDBRANCH  21  22
ENDBRANCH   1  21
TORSDOF 7
