REMARK  Name = ZINC39454215
REMARK  0 active torsions:
REMARK  status: ('A' for Active; 'I' for Inactive)
REMARK                            x       y       z     vdW  Elec       q    Type
REMARK                         _______ _______ _______ _____ _____    ______ ____
ROOT
ATOM      1  C   UNL     1      -0.017   1.387   0.010  0.00  0.00    +0.005 A 
ATOM      2  C   UNL     1       1.130   2.121   0.003  0.00  0.00    +0.028 A 
ATOM      3  C   UNL     1       2.374   1.466  -0.013  0.00  0.00    +0.075 A 
ATOM      4  C   UNL     1       2.394   0.001  -0.020  0.00  0.00    +0.036 A 
ATOM      5  C   UNL     1       3.631  -0.661  -0.035  0.00  0.00    +0.028 A 
ATOM      6  C   UNL     1       4.780   0.116  -0.044  0.00  0.00    +0.068 A 
ATOM      7  C   UNL     1       4.687   1.533  -0.039  0.00  0.00    +0.100 A 
ATOM      8  N   UNL     1       3.519   2.148  -0.022  0.00  0.00    -0.245 NA
ATOM      9  C   UNL     1       5.941   2.307  -0.054  0.00  0.00    +0.082 A 
ATOM     10  C   UNL     1       7.155   1.650  -0.067  0.00  0.00    +0.120 A 
ATOM     11  N   UNL     1       7.217   0.260  -0.072  0.00  0.00    -0.243 N 
ATOM     12  C   UNL     1       6.113  -0.507  -0.061  0.00  0.00    +0.270 A 
ATOM     13  O   UNL     1       6.216  -1.720  -0.064  0.00  0.00    -0.266 OA
ATOM     14  I   UNL     1       9.054  -0.649  -0.098  0.00  0.00    +0.068 I 
ATOM     15  C   UNL     1       8.357   2.394  -0.072  0.00  0.00    +0.185 C 
ATOM     16  O   UNL     1       9.423   1.815  -0.134  0.00  0.00    -0.290 OA
ATOM     17  C   UNL     1       8.329   3.899  -0.003  0.00  0.00    +0.115 C 
ATOM     18  C   UNL     1       7.038   4.413  -0.651  0.00  0.00    +0.146 C 
ATOM     19  N   UNL     1       5.904   3.688  -0.058  0.00  0.00    -0.328 N 
ATOM     20 BR   UNL     1       7.095   4.087  -2.589  0.00  0.00    -0.067 Br
ATOM     21  C   UNL     1       1.175  -0.701  -0.012  0.00  0.00    +0.133 A 
ATOM     22  C   UNL     1       0.002  -0.004   0.002  0.00  0.00    +0.039 A 
ATOM     23  F   UNL     1       1.166  -2.052  -0.019  0.00  0.00    -0.205 F 
ATOM     24  H   UNL     1       5.150   4.167   0.320  0.00  0.00    +0.147 HD
ENDROOT
TORSDOF 0
