REMARK  Name = ZINC39757177
REMARK  8 active torsions:
REMARK  status: ('A' for Active; 'I' for Inactive)
REMARK    1  A    between atoms: C_1  and  C_2
REMARK    2  A    between atoms: C_5  and  C_9
REMARK    3  A    between atoms: C_7  and  C_8
REMARK    4  A    between atoms: C_12  and  S_15
REMARK    5  A    between atoms: N_13  and  C_14
REMARK    6  A    between atoms: S_15  and  C_16
REMARK    7  A    between atoms: C_16  and  C_17
REMARK    8  A    between atoms: N_19  and  C_20
REMARK                            x       y       z     vdW  Elec       q    Type
REMARK                         _______ _______ _______ _____ _____    ______ ____
ROOT
ATOM      1  S   UNL     1      -1.371  -7.998  -1.585  0.00  0.00    -0.077 S 
ENDROOT
BRANCH   1   5
ATOM      2  C   UNL     1      -1.125  -4.338  -0.241  0.00  0.00    +0.165 A 
ATOM      3  N   UNL     1      -0.876  -5.055   0.830  0.00  0.00    -0.128 NA
ATOM      4  N   UNL     1      -0.922  -6.306   0.540  0.00  0.00    -0.122 NA
ATOM      5  C   UNL     1      -1.204  -6.464  -0.734  0.00  0.00    +0.192 A 
ATOM      6  N   UNL     1      -1.348  -5.218  -1.274  0.00  0.00    -0.305 N 
ATOM      7  C   UNL     1      -1.670  -4.888  -2.664  0.00  0.00    +0.153 C 
BRANCH   2  12
ATOM      8  C   UNL     1      -1.284   1.407  -0.550  0.00  0.00    +0.044 C 
ATOM      9  C   UNL     1      -1.242  -0.098  -0.469  0.00  0.00    -0.047 A 
ATOM     10  C   UNL     1      -1.091  -0.846  -1.623  0.00  0.00    +0.004 A 
ATOM     11  C   UNL     1      -1.052  -2.223  -1.556  0.00  0.00    +0.012 A 
ATOM     12  C   UNL     1      -1.165  -2.862  -0.320  0.00  0.00    +0.020 A 
ATOM     13  C   UNL     1      -1.317  -2.101   0.840  0.00  0.00    +0.015 A 
ATOM     14  C   UNL     1      -1.349  -0.724   0.760  0.00  0.00    -0.047 A 
ATOM     15  C   UNL     1      -1.506   0.099   2.013  0.00  0.00    +0.044 C 
ENDBRANCH   2  12
ENDBRANCH   1   5
BRANCH   1  16
ATOM     16  C   UNL     1      -1.067  -9.246  -0.303  0.00  0.00    +0.173 C 
BRANCH  16  17
ATOM     17  C   UNL     1      -1.181 -10.623  -0.906  0.00  0.00    +0.228 C 
ATOM     18  O   UNL     1      -1.441 -10.749  -2.084  0.00  0.00    -0.275 OA
ATOM     19  N   UNL     1      -0.993 -11.713  -0.136  0.00  0.00    -0.282 N 
ATOM     20  H   UNL     1      -0.832 -11.613   0.815  0.00  0.00    +0.155 HD
BRANCH  19  21
ATOM     21  C   UNL     1      -1.031 -12.991  -0.710  0.00  0.00    +0.083 A 
ATOM     22  C   UNL     1      -0.564 -13.187  -2.005  0.00  0.00    +0.148 A 
ATOM     23  C   UNL     1      -0.602 -14.449  -2.569  0.00  0.00    +0.078 A 
ATOM     24  C   UNL     1      -1.106 -15.517  -1.844  0.00  0.00    +0.127 A 
ATOM     25  C   UNL     1      -1.571 -15.323  -0.555  0.00  0.00    +0.055 A 
ATOM     26  C   UNL     1      -1.529 -14.065   0.016  0.00  0.00    +0.045 A 
ATOM     27 BR   UNL     1      -2.157 -13.804   1.780  0.00  0.00    -0.048 Br
ATOM     28  F   UNL     1      -1.143 -16.749  -2.397  0.00  0.00    -0.205 F 
ATOM     29  F   UNL     1      -0.074 -12.145  -2.712  0.00  0.00    -0.203 F 
ENDBRANCH  19  21
ENDBRANCH  16  17
ENDBRANCH   1  16
TORSDOF 5
