REMARK  Name = ZINC63808296
REMARK  6 active torsions:
REMARK  status: ('A' for Active; 'I' for Inactive)
REMARK    1  A    between atoms: C_7  and  C_10
REMARK    2  A    between atoms: C_10  and  C_11
REMARK    3  A    between atoms: C_11  and  N_12
REMARK    4  A    between atoms: C_13  and  C_15
REMARK    5  A    between atoms: N_17  and  C_18
REMARK    6  A    between atoms: C_27  and  O_28
REMARK                            x       y       z     vdW  Elec       q    Type
REMARK                         _______ _______ _______ _____ _____    ______ ____
ROOT
ATOM      1  N   UNL     1      -0.474  -4.786  -1.461  0.00  0.00    -0.307 N 
ATOM      2  C   UNL     1      -0.823  -5.371  -2.624  0.00  0.00    +0.299 C 
ATOM      3  O   UNL     1      -0.386  -4.945  -3.673  0.00  0.00    -0.265 OA
ATOM      4  H   UNL     1      -0.823  -5.127  -0.623  0.00  0.00    +0.149 HD
ENDROOT
BRANCH   2   5
ATOM      5  C   UNL     1      -1.747  -6.544  -2.622  0.00  0.00    +0.303 C 
ATOM      6  O   UNL     1      -2.184  -6.971  -1.573  0.00  0.00    -0.265 OA
ATOM      7  N   UNL     1      -2.095  -7.129  -3.785  0.00  0.00    -0.277 N 
ATOM      8  H   UNL     1      -1.800  -6.749  -4.627  0.00  0.00    +0.155 HD
BRANCH   7   9
ATOM      9  C   UNL     1      -2.881  -8.280  -3.778  0.00  0.00    +0.042 A 
ATOM     10  C   UNL     1      -3.860  -8.449  -2.821  0.00  0.00    +0.024 A 
ATOM     11  C   UNL     1      -4.650  -9.594  -2.806  0.00  0.00    +0.003 A 
ATOM     12  C   UNL     1      -4.479 -10.578  -3.732  0.00  0.00    +0.012 A 
ATOM     13  C   UNL     1      -3.493 -10.445  -4.723  0.00  0.00    +0.025 A 
ATOM     14  C   UNL     1      -2.686  -9.282  -4.753  0.00  0.00    +0.007 A 
ATOM     15  C   UNL     1      -1.704  -9.148  -5.747  0.00  0.00    +0.010 A 
ATOM     16  C   UNL     1      -1.541 -10.133  -6.673  0.00  0.00    +0.004 A 
ATOM     17  C   UNL     1      -2.335 -11.277  -6.653  0.00  0.00    +0.046 A 
ATOM     18  C   UNL     1      -3.294 -11.448  -5.694  0.00  0.00    +0.125 A 
BRANCH  18  19
ATOM     19  O   UNL     1      -4.060 -12.570  -5.686  0.00  0.00    -0.506 OA
ATOM     20  H   UNL     1      -4.867 -12.498  -6.213  0.00  0.00    +0.292 HD
ENDBRANCH  18  19
ENDBRANCH   7   9
ENDBRANCH   2   5
BRANCH   1  21
ATOM     21  C   UNL     1       0.433  -3.636  -1.463  0.00  0.00    +0.109 C 
BRANCH  21  22
ATOM     22  C   UNL     1       0.664  -3.166  -0.025  0.00  0.00    +0.052 C 
BRANCH  22  29
ATOM     23  C   UNL     1      -0.074   1.363   0.009  0.00  0.00    +0.001 A 
ATOM     24  C   UNL     1       1.103   2.124   0.001  0.00  0.00    +0.002 A 
ATOM     25  C   UNL     1       2.332   1.567  -0.014  0.00  0.00    +0.026 A 
ATOM     26  C   UNL     1       2.479   0.152  -0.024  0.00  0.00    +0.043 A 
ATOM     27  N   UNL     1       3.543  -0.615  -0.039  0.00  0.00    -0.380 N 
ATOM     28  C   UNL     1       3.109  -2.016  -0.043  0.00  0.00    +0.144 C 
ATOM     29  C   UNL     1       1.597  -1.982  -0.027  0.00  0.00    -0.040 C 
ATOM     30  C   UNL     1       1.252  -0.675  -0.016  0.00  0.00    -0.001 A 
ATOM     31  C   UNL     1      -0.046   0.010   0.001  0.00  0.00    +0.010 A 
ATOM     32  H   UNL     1       4.463  -0.307  -0.048  0.00  0.00    +0.160 HD
ENDBRANCH  22  29
ENDBRANCH  21  22
ENDBRANCH   1  21
TORSDOF 6
