REMARK  Name = ZINC40384590
REMARK  14 active torsions:
REMARK  status: ('A' for Active; 'I' for Inactive)
REMARK    1  A    between atoms: C_1  and  C_2
REMARK    2  A    between atoms: C_2  and  N_3
REMARK    3  A    between atoms: C_4  and  C_38
REMARK    4  A    between atoms: C_5  and  C_13
REMARK    5  A    between atoms: C_6  and  C_12
REMARK    6  A    between atoms: C_7  and  C_8
REMARK    7  A    between atoms: C_8  and  O_10
REMARK    8  A    between atoms: O_10  and  C_11
REMARK    9  A    between atoms: C_13  and  C_15
REMARK   10  A    between atoms: C_15  and  N_16
REMARK   11  A    between atoms: N_16  and  C_17
REMARK   12  A    between atoms: C_17  and  C_18
REMARK   13  A    between atoms: C_18  and  N_19
REMARK   14  A    between atoms: N_27  and  C_28
REMARK                            x       y       z     vdW  Elec       q    Type
REMARK                         _______ _______ _______ _____ _____    ______ ____
ROOT
ATOM      1  N   UNL     1       5.245  -2.208   4.734  0.00  0.00    -0.277 N 
ATOM      2  C   UNL     1       5.756  -3.446   4.586  0.00  0.00    +0.303 C 
ATOM      3  O   UNL     1       5.038  -4.361   4.231  0.00  0.00    -0.253 OA
ATOM      4  N   UNL     1       7.062  -3.670   4.831  0.00  0.00    -0.294 N 
ATOM      5  H   UNL     1       7.634  -2.940   5.114  0.00  0.00    +0.151 HD
ENDROOT
BRANCH   4   6
ATOM      6  C   UNL     1       7.617  -5.016   4.670  0.00  0.00    +0.037 C 
ATOM      7  C   UNL     1       6.893  -5.982   5.611  0.00  0.00    +0.029 C 
ATOM      8  C   UNL     1       7.473  -7.388   5.443  0.00  0.00    -0.008 C 
ATOM      9  C   UNL     1       8.965  -7.368   5.781  0.00  0.00    +0.007 C 
ATOM     10  C   UNL     1       9.689  -6.402   4.841  0.00  0.00    -0.008 C 
ATOM     11  C   UNL     1       9.109  -4.997   5.008  0.00  0.00    +0.029 C 
ATOM     12  C   UNL     1       9.500  -6.862   3.394  0.00  0.00    +0.007 C 
ATOM     13  C   UNL     1       8.008  -6.882   3.055  0.00  0.00    -0.008 C 
ATOM     14  C   UNL     1       7.284  -7.848   3.996  0.00  0.00    +0.007 C 
ATOM     15  C   UNL     1       7.428  -5.476   3.223  0.00  0.00    +0.029 C 
ENDBRANCH   4   6
BRANCH   1  16
ATOM     16  C   UNL     1       3.825  -1.964   4.467  0.00  0.00    +0.189 C 
BRANCH  16  17
ATOM     17  C   UNL     1       3.642  -1.593   3.018  0.00  0.00    +0.182 C 
ATOM     18  O   UNL     1       4.589  -1.626   2.260  0.00  0.00    -0.290 OA
BRANCH  17  21
ATOM     19  N   UNL     1       0.551   0.035   2.024  0.00  0.00    -0.338 N 
ATOM     20  C   UNL     1       1.772   0.080   2.577  0.00  0.00    +0.027 A 
ATOM     21  C   UNL     1       2.321  -1.192   2.525  0.00  0.00    +0.043 A 
ATOM     22  C   UNL     1       1.364  -2.031   1.904  0.00  0.00    -0.008 A 
ATOM     23  C   UNL     1       0.283  -1.253   1.612  0.00  0.00    +0.131 A 
ATOM     24  C   UNL     1       1.510  -3.505   1.626  0.00  0.00    +0.047 C 
ATOM     25  C   UNL     1       2.434   1.303   3.155  0.00  0.00    +0.064 C 
BRANCH  19  27
ATOM     26  C   UNL     1      -1.243   1.277   3.129  0.00  0.00    +0.027 C 
ATOM     27  C   UNL     1      -0.358   1.176   1.885  0.00  0.00    +0.119 C 
ENDBRANCH  19  27
BRANCH  23  28
ATOM     28  C   UNL     1      -0.952  -1.708   0.965  0.00  0.00    +0.356 C 
ATOM     29  O   UNL     1      -1.076  -2.874   0.644  0.00  0.00    -0.243 OA
BRANCH  28  30
ATOM     30  O   UNL     1      -1.950  -0.833   0.727  0.00  0.00    -0.463 OA
ATOM     31  C   UNL     1      -3.124  -1.345   0.094  0.00  0.00    +0.280 C 
ENDBRANCH  28  30
ENDBRANCH  23  28
ENDBRANCH  17  21
ENDBRANCH  16  17
ENDBRANCH   1  16
BRANCH   1  32
ATOM     32  C   UNL     1       6.110  -1.105   5.161  0.00  0.00    +0.125 C 
BRANCH  32  33
ATOM     33  C   UNL     1       6.102  -1.013   6.688  0.00  0.00    +0.103 C 
BRANCH  33  34
ATOM     34  N   UNL     1       6.969   0.093   7.117  0.00  0.00    -0.297 NA
ATOM     35  C   UNL     1       8.376  -0.187   6.797  0.00  0.00    +0.112 C 
ATOM     36  C   UNL     1       9.235   1.013   7.205  0.00  0.00    +0.175 C 
ATOM     37  O   UNL     1       9.039   1.282   8.596  0.00  0.00    -0.377 OA
ATOM     38  C   UNL     1       7.679   1.559   8.943  0.00  0.00    +0.175 C 
ATOM     39  C   UNL     1       6.805   0.365   8.552  0.00  0.00    +0.112 C 
ENDBRANCH  33  34
ENDBRANCH  32  33
ENDBRANCH   1  32
TORSDOF 10
