REMARK  Name = ZINC40993827
REMARK  8 active torsions:
REMARK  status: ('A' for Active; 'I' for Inactive)
REMARK    1  A    between atoms: C_1  and  C_2
REMARK    2  A    between atoms: C_5  and  C_8
REMARK    3  A    between atoms: C_10  and  C_13
REMARK    4  A    between atoms: C_17  and  N_18
REMARK    5  A    between atoms: C_19  and  C_21
REMARK    6  A    between atoms: C_23  and  C_28
REMARK    7  A    between atoms: C_25  and  C_26
REMARK    8  A    between atoms: C_25  and  C_27
REMARK                            x       y       z     vdW  Elec       q    Type
REMARK                         _______ _______ _______ _____ _____    ______ ____
ROOT
ATOM      1  C   UNL     1       0.101  -7.465   1.610  0.00  0.00    +0.071 A 
ATOM      2  C   UNL     1       0.123  -8.822   1.093  0.00  0.00    -0.023 A 
ATOM      3  C   UNL     1       0.137  -9.812   2.014  0.00  0.00    -0.004 A 
ATOM      4  S   UNL     1       0.119  -8.978   3.577  0.00  0.00    -0.077 S 
ATOM      5  C   UNL     1       0.100  -7.295   2.987  0.00  0.00    +0.085 A 
ATOM      6  C   UNL     1       0.159 -11.287   1.759  0.00  0.00    +0.043 C 
ATOM      7  C   UNL     1      -0.209 -11.530   0.288  0.00  0.00    +0.005 C 
ATOM      8  C   UNL     1       0.616 -10.584  -0.588  0.00  0.00    +0.005 C 
ATOM      9  C   UNL     1       0.133  -9.146  -0.398  0.00  0.00    +0.037 C 
ENDROOT
BRANCH   1  12
ATOM     10  C   UNL     1       0.058  -4.256  -0.021  0.00  0.00    +0.202 A 
ATOM     11  N   UNL     1       0.069  -5.042   1.066  0.00  0.00    -0.187 NA
ATOM     12  C   UNL     1       0.085  -6.308   0.703  0.00  0.00    +0.261 A 
ATOM     13  O   UNL     1       0.085  -6.359  -0.642  0.00  0.00    -0.332 OA
ATOM     14  N   UNL     1       0.062  -5.013  -1.092  0.00  0.00    -0.056 NA
BRANCH  10  19
ATOM     15  C   UNL     1      -0.018   1.503   0.010  0.00  0.00    +0.044 C 
ATOM     16  C   UNL     1       0.002  -0.004   0.002  0.00  0.00    -0.050 A 
ATOM     17  C   UNL     1       0.006  -0.687  -1.201  0.00  0.00    +0.004 A 
ATOM     18  C   UNL     1       0.024  -2.067  -1.214  0.00  0.00    +0.012 A 
ATOM     19  C   UNL     1       0.039  -2.772  -0.013  0.00  0.00    +0.022 A 
ATOM     20  C   UNL     1       0.036  -2.080   1.196  0.00  0.00    +0.012 A 
ATOM     21  C   UNL     1       0.023  -0.700   1.198  0.00  0.00    +0.004 A 
ENDBRANCH  10  19
ENDBRANCH   1  12
BRANCH   5  22
ATOM     22  N   UNL     1       0.085  -6.115   3.719  0.00  0.00    -0.279 N 
ATOM     23  C   UNL     1       0.086  -6.157   5.066  0.00  0.00    +0.222 C 
ATOM     24  O   UNL     1       0.101  -7.226   5.639  0.00  0.00    -0.275 OA
ATOM     25  H   UNL     1       0.073  -5.260   3.261  0.00  0.00    +0.155 HD
BRANCH  23  26
ATOM     26  C   UNL     1       0.070  -4.877   5.860  0.00  0.00    +0.089 C 
ATOM     27  C   UNL     1       1.331  -4.519   6.650  0.00  0.00    +0.033 C 
ATOM     28  C   UNL     1       0.075  -4.992   7.386  0.00  0.00    -0.016 C 
ATOM     29  C   UNL     1      -0.716  -3.947   8.176  0.00  0.00    +0.012 C 
ATOM     30  C   UNL     1       0.096  -6.398   7.988  0.00  0.00    +0.012 C 
BRANCH  27  31
ATOM     31  C   UNL     1       2.495  -5.474   6.573  0.00  0.00    +0.010 C 
ATOM     32  C   UNL     1       3.655  -5.138   7.088  0.00  0.00    +0.103 C 
ATOM     33 CL   UNL     1       3.849  -3.595   7.858  0.00  0.00    -0.071 Cl
ATOM     34 CL   UNL     1       4.995  -6.239   7.000  0.00  0.00    -0.071 Cl
ENDBRANCH  27  31
ENDBRANCH  23  26
ENDBRANCH   5  22
TORSDOF 5
