REMARK  Name = ZINC09579101
REMARK  7 active torsions:
REMARK  status: ('A' for Active; 'I' for Inactive)
REMARK    1  A    between atoms: C_1  and  C_2
REMARK    2  A    between atoms: C_15  and  C_17
REMARK    3  A    between atoms: C_17  and  S_18
REMARK    4  A    between atoms: S_18  and  C_19
REMARK    5  A    between atoms: C_22  and  C_27
REMARK    6  A    between atoms: N_23  and  C_24
REMARK    7  A    between atoms: C_24  and  C_25
REMARK                            x       y       z     vdW  Elec       q    Type
REMARK                         _______ _______ _______ _____ _____    ______ ____
ROOT
ATOM      1  S   UNL     1       6.317   4.293  -2.513  0.00  0.00    -0.077 S 
ENDROOT
BRANCH   1   2
ATOM      2  C   UNL     1       5.216   3.211  -1.662  0.00  0.00    +0.192 A 
ATOM      3  N   UNL     1       5.454   2.585  -0.533  0.00  0.00    -0.122 NA
ATOM      4  N   UNL     1       4.430   1.884  -0.198  0.00  0.00    -0.129 NA
ATOM      5  C   UNL     1       3.489   2.013  -1.090  0.00  0.00    +0.179 A 
ATOM      6  N   UNL     1       3.954   2.865  -2.053  0.00  0.00    -0.299 N 
BRANCH   5   7
ATOM      7  C   UNL     1       2.136   1.350  -1.063  0.00  0.00    +0.278 C 
ATOM      8  C   UNL     1       1.254   2.018   0.001  0.00  0.00    +0.281 C 
ATOM      9  O   UNL     1      -0.016   1.357   0.009  0.00  0.00    -0.484 OA
ATOM     10  C   UNL     1       0.002  -0.004   0.002  0.00  0.00    +0.162 A 
ATOM     11  C   UNL     1      -1.140  -0.703   0.365  0.00  0.00    +0.049 A 
ATOM     12  C   UNL     1      -1.138  -2.084   0.359  0.00  0.00    +0.004 A 
ATOM     13  C   UNL     1       0.003  -2.775  -0.007  0.00  0.00    +0.004 A 
ATOM     14  C   UNL     1       1.145  -2.085  -0.368  0.00  0.00    +0.049 A 
ATOM     15  C   UNL     1       1.149  -0.698  -0.364  0.00  0.00    +0.163 A 
ATOM     16  O   UNL     1       2.282  -0.033  -0.719  0.00  0.00    -0.474 OA
ENDBRANCH   5   7
BRANCH   6  17
ATOM     17  C   UNL     1       3.245   3.315  -3.254  0.00  0.00    +0.152 C 
BRANCH  17  18
ATOM     18  C   UNL     1       2.476   4.573  -2.942  0.00  0.00    -0.013 C 
ATOM     19  C   UNL     1       2.663   5.650  -3.663  0.00  0.00    +0.005 C 
ENDBRANCH  17  18
ENDBRANCH   6  17
ENDBRANCH   1   2
BRANCH   1  20
ATOM     20  C   UNL     1       7.738   4.237  -1.394  0.00  0.00    +0.173 C 
BRANCH  20  34
ATOM     21  C   UNL     1      12.149   5.193  -2.428  0.00  0.00    +0.029 C 
ATOM     22  C   UNL     1      11.079   6.074  -1.780  0.00  0.00    +0.087 C 
ATOM     23  C   UNL     1      11.702   6.875  -0.630  0.00  0.00    +0.118 C 
ATOM     24  C   UNL     1      10.624   7.428   0.264  0.00  0.00    +0.219 C 
ATOM     25  O   UNL     1      10.338   8.606   0.206  0.00  0.00    -0.275 OA
ATOM     26  N   UNL     1       9.973   6.622   1.130  0.00  0.00    -0.284 N 
ATOM     27  C   UNL     1      10.223   5.245   1.142  0.00  0.00    +0.055 A 
ATOM     28  C   UNL     1      10.456   4.576   2.332  0.00  0.00    +0.025 A 
ATOM     29  C   UNL     1      10.646   3.206   2.326  0.00  0.00    +0.002 A 
ATOM     30  C   UNL     1      10.605   2.503   1.136  0.00  0.00    +0.002 A 
ATOM     31  C   UNL     1      10.384   3.165  -0.058  0.00  0.00    +0.025 A 
ATOM     32  C   UNL     1      10.202   4.538  -0.061  0.00  0.00    +0.058 A 
ATOM     33  N   UNL     1      10.001   5.230  -1.264  0.00  0.00    -0.266 N 
ATOM     34  C   UNL     1       8.838   5.115  -1.935  0.00  0.00    +0.230 C 
ATOM     35  O   UNL     1       8.675   5.719  -2.974  0.00  0.00    -0.274 OA
ATOM     36  H   UNL     1       9.327   6.999   1.748  0.00  0.00    +0.155 HD
ENDBRANCH  20  34
ENDBRANCH   1  20
TORSDOF 6
