REMARK  Name = ZINC62203346
REMARK  4 active torsions:
REMARK  status: ('A' for Active; 'I' for Inactive)
REMARK    1  A    between atoms: C_1  and  C_2
REMARK    2  A    between atoms: C_4  and  C_16
REMARK    3  A    between atoms: C_9  and  N_15
REMARK    4  A    between atoms: C_10  and  C_13
REMARK                            x       y       z     vdW  Elec       q    Type
REMARK                         _______ _______ _______ _____ _____    ______ ____
ROOT
ATOM      1  C   UNL     1      -0.018   1.503   0.010  0.00  0.00    +0.066 C 
ATOM      2  C   UNL     1       0.002  -0.004   0.002  0.00  0.00    +0.044 A 
ATOM      3  C   UNL     1       0.006  -0.699  -1.198  0.00  0.00    +0.055 A 
ATOM      4  C   UNL     1       0.025  -2.085  -1.159  0.00  0.00    +0.149 A 
ATOM      5  N   UNL     1       0.040  -2.697   0.013  0.00  0.00    -0.207 NA
ATOM      6  C   UNL     1       0.035  -2.003   1.140  0.00  0.00    +0.254 A 
ATOM      7  N   UNL     1       0.022  -0.680   1.139  0.00  0.00    -0.216 NA
ATOM      8  N   UNL     1       0.051  -2.682   2.356  0.00  0.00    -0.183 N 
ATOM      9  C   UNL     1       0.043  -2.108   3.589  0.00  0.00    +0.140 A 
ATOM     10  C   UNL     1       0.064  -3.143   4.519  0.00  0.00    +0.111 A 
ATOM     11  C   UNL     1       0.085  -4.355   3.791  0.00  0.00    +0.155 A 
ATOM     12  N   UNL     1       0.070  -4.072   2.519  0.00  0.00    -0.169 NA
ENDROOT
BRANCH   4  13
ATOM     13  C   UNL     1       0.030  -2.883  -2.438  0.00  0.00    +0.434 C 
ATOM     14  F   UNL     1       1.350  -3.112  -2.840  0.00  0.00    -0.164 F 
ATOM     15  F   UNL     1      -0.612  -4.108  -2.225  0.00  0.00    -0.164 F 
ATOM     16  F   UNL     1      -0.645  -2.171  -3.435  0.00  0.00    -0.164 F 
ENDBRANCH   4  13
BRANCH   9  17
ATOM     17  N   UNL     1       0.020  -0.755   3.865  0.00  0.00    -0.342 N 
ATOM     18  H   UNL     1       0.006  -0.113   3.138  0.00  0.00    +0.144 HD
ATOM     19  H   UNL     1       0.016  -0.448   4.785  0.00  0.00    +0.144 HD
ENDBRANCH   9  17
BRANCH  10  20
ATOM     20  C   UNL     1       0.066  -3.006   5.945  0.00  0.00    +0.104 C 
ATOM     21  N   UNL     1       0.067  -2.897   7.075  0.00  0.00    -0.191 NA
ENDBRANCH  10  20
TORSDOF 3
