REMARK  Name = ZINC37053948
REMARK  5 active torsions:
REMARK  status: ('A' for Active; 'I' for Inactive)
REMARK    1  A    between atoms: C_1  and  C_2
REMARK    2  A    between atoms: N_8  and  S_9
REMARK    3  A    between atoms: S_9  and  C_12
REMARK    4  A    between atoms: C_14  and  C_19
REMARK    5  A    between atoms: C_16  and  N_18
REMARK                            x       y       z     vdW  Elec       q    Type
REMARK                         _______ _______ _______ _____ _____    ______ ____
ROOT
ATOM      1  S   UNL     1       0.072  -4.449   2.227  0.00  0.00    +0.101 S 
ATOM      2  O   UNL     1      -1.171  -4.858   1.672  0.00  0.00    -0.146 OA
ATOM      3  O   UNL     1       1.319  -4.825   1.660  0.00  0.00    -0.146 OA
ENDROOT
BRANCH   1  11
ATOM      4  C   UNL     1      -0.018   1.503   0.010  0.00  0.00    +0.044 C 
ATOM      5  C   UNL     1       0.002  -0.004   0.002  0.00  0.00    -0.046 A 
ATOM      6  C   UNL     1       0.006  -0.704  -1.217  0.00  0.00    +0.021 A 
ATOM      7  C   UNL     1       0.024  -2.053  -1.230  0.00  0.00    +0.084 A 
ATOM      8  N   UNL     1       0.039  -2.761  -0.066  0.00  0.00    -0.345 N 
ATOM      9  C   UNL     1       0.036  -2.108   1.143  0.00  0.00    +0.153 A 
ATOM     10  C   UNL     1       0.022  -0.693   1.173  0.00  0.00    +0.051 A 
ATOM     11  N   UNL     1       0.051  -2.794   2.267  0.00  0.00    -0.111 NA
ATOM     12  H   UNL     1       0.052  -3.731  -0.090  0.00  0.00    +0.167 HD
ENDBRANCH   1  11
BRANCH   1  13
ATOM     13  C   UNL     1       0.087  -5.011   3.896  0.00  0.00    +0.115 A 
ATOM     14  C   UNL     1       1.291  -5.210   4.547  0.00  0.00    +0.032 A 
ATOM     15  C   UNL     1       1.307  -5.652   5.857  0.00  0.00    -0.047 A 
ATOM     16  C   UNL     1       0.120  -5.895   6.521  0.00  0.00    +0.026 A 
ATOM     17  C   UNL     1      -1.091  -5.695   5.870  0.00  0.00    +0.027 A 
ATOM     18  C   UNL     1      -1.103  -5.247   4.556  0.00  0.00    +0.051 A 
ATOM     19  C   UNL     1       2.622  -5.869   6.562  0.00  0.00    +0.044 C 
BRANCH  17  20
ATOM     20  N   UNL     1      -2.292  -5.940   6.538  0.00  0.00    -0.358 N 
ATOM     21  H   UNL     1      -2.282  -6.249   7.458  0.00  0.00    +0.142 HD
ATOM     22  H   UNL     1      -3.138  -5.800   6.083  0.00  0.00    +0.142 HD
ENDBRANCH  17  20
ENDBRANCH   1  13
TORSDOF 3
