REMARK  Name = ZINC33258634
REMARK  8 active torsions:
REMARK  status: ('A' for Active; 'I' for Inactive)
REMARK    1  A    between atoms: C_1  and  C_2
REMARK    2  A    between atoms: C_2  and  C_3
REMARK    3  A    between atoms: C_8  and  N_9
REMARK    4  A    between atoms: C_10  and  C_12
REMARK    5  A    between atoms: N_14  and  C_18
REMARK    6  A    between atoms: C_16  and  C_17
REMARK    7  A    between atoms: C_21  and  C_24
REMARK    8  A    between atoms: C_26  and  C_29
REMARK                            x       y       z     vdW  Elec       q    Type
REMARK                         _______ _______ _______ _____ _____    ______ ____
ROOT
ATOM      1  C   UNL     1       1.252   1.967  -0.014  0.00  0.00    +0.078 A 
ATOM      2  C   UNL     1       1.387   3.341  -0.016  0.00  0.00    +0.127 A 
ATOM      3  N   UNL     1       2.704   3.615  -0.036  0.00  0.00    -0.239 N 
ATOM      4  N   UNL     1       3.408   2.406  -0.047  0.00  0.00    -0.171 NA
ATOM      5  C   UNL     1       2.555   1.419  -0.029  0.00  0.00    +0.072 A 
ATOM      6  C   UNL     1       2.898  -0.048  -0.026  0.00  0.00    +0.068 C 
ENDROOT
BRANCH   3   7
ATOM      7  C   UNL     1       3.274   4.894  -0.045  0.00  0.00    +0.065 A 
ATOM      8  C   UNL     1       2.457   6.018  -0.039  0.00  0.00    +0.028 A 
ATOM      9  C   UNL     1       3.015   7.278  -0.043  0.00  0.00    +0.014 A 
ATOM     10  C   UNL     1       4.401   7.424  -0.065  0.00  0.00    +0.023 A 
ATOM     11  C   UNL     1       5.219   6.295  -0.076  0.00  0.00    +0.014 A 
ATOM     12  C   UNL     1       4.656   5.037  -0.066  0.00  0.00    +0.028 A 
BRANCH  10  13
ATOM     13  C   UNL     1       5.005   8.779  -0.075  0.00  0.00    +0.202 A 
ATOM     14  N   UNL     1       4.338   9.956  -0.071  0.00  0.00    -0.191 NA
ATOM     15  C   UNL     1       5.262  10.884  -0.081  0.00  0.00    +0.231 A 
ATOM     16  O   UNL     1       6.445  10.262  -0.098  0.00  0.00    -0.337 OA
ATOM     17  N   UNL     1       6.282   9.060  -0.095  0.00  0.00    -0.056 NA
BRANCH  15  18
ATOM     18  C   UNL     1       5.033  12.374  -0.078  0.00  0.00    +0.078 C 
ATOM     19  C   UNL     1       5.712  13.014  -1.307  0.00  0.00    +0.013 C 
ATOM     20  C   UNL     1       6.253  14.366  -0.780  0.00  0.00    +0.001 C 
ATOM     21  C   UNL     1       6.739  14.007   0.646  0.00  0.00    +0.001 C 
ATOM     22  C   UNL     1       5.687  13.005   1.164  0.00  0.00    +0.013 C 
ENDBRANCH  15  18
ENDBRANCH  10  13
ENDBRANCH   3   7
BRANCH   1  24
ATOM     23  N   UNL     1      -1.191   1.870   0.018  0.00  0.00    -0.281 N 
ATOM     24  C   UNL     1      -0.014   1.212   0.005  0.00  0.00    +0.252 C 
ATOM     25  O   UNL     1       0.003  -0.004   0.006  0.00  0.00    -0.270 OA
ATOM     26  H   UNL     1      -1.207   2.966   0.110  0.00  0.00    +0.155 HD
BRANCH  23  32
ATOM     27  C   UNL     1      -3.566   1.700   0.418  0.00  0.00    -0.026 A 
ATOM     28  C   UNL     1      -4.749   0.995   0.314  0.00  0.00    +0.005 A 
ATOM     29  C   UNL     1      -4.765  -0.247  -0.292  0.00  0.00    +0.000 A 
ATOM     30  C   UNL     1      -3.596  -0.789  -0.796  0.00  0.00    +0.002 A 
ATOM     31  C   UNL     1      -2.410  -0.088  -0.699  0.00  0.00    +0.023 A 
ATOM     32  C   UNL     1      -2.391   1.159  -0.086  0.00  0.00    +0.037 A 
BRANCH  27  34
ATOM     33  C   UNL     1      -3.680   4.143   0.011  0.00  0.00    +0.009 C 
ATOM     34  C   UNL     1      -3.550   3.054   1.079  0.00  0.00    +0.033 C 
ENDBRANCH  27  34
ENDBRANCH  23  32
ENDBRANCH   1  24
TORSDOF 6
