REMARK  Name = ZINC23716423
REMARK  8 active torsions:
REMARK  status: ('A' for Active; 'I' for Inactive)
REMARK    1  A    between atoms: C_1  and  C_2
REMARK    2  A    between atoms: C_5  and  C_7
REMARK    3  A    between atoms: C_9  and  C_16
REMARK    4  A    between atoms: C_10  and  C_15
REMARK    5  A    between atoms: N_18  and  C_19
REMARK    6  A    between atoms: C_24  and  C_25
REMARK    7  A    between atoms: C_25  and  C_26
REMARK    8  A    between atoms: C_25  and  C_27
REMARK                            x       y       z     vdW  Elec       q    Type
REMARK                         _______ _______ _______ _____ _____    ______ ____
ROOT
ATOM      1  C   UNL     1      -2.671   1.771   3.938  0.00  0.00    +0.146 C 
ATOM      2  C   UNL     1      -2.511   0.265   3.957  0.00  0.00    +0.056 C 
ATOM      3  C   UNL     1      -3.012  -0.407   5.016  0.00  0.00    +0.017 C 
ATOM      4  N   UNL     1      -3.631   0.252   6.039  0.00  0.00    -0.300 N 
ATOM      5  C   UNL     1      -3.799   1.580   6.074  0.00  0.00    +0.135 C 
ATOM      6  S   UNL     1      -4.601   2.279   7.415  0.00  0.00    -0.019 S 
ATOM      7  N   UNL     1      -3.358   2.384   5.086  0.00  0.00    -0.315 N 
ATOM      8  C   UNL     1      -2.880  -1.907   5.072  0.00  0.00    +0.061 C 
ATOM      9  H   UNL     1      -4.025  -0.312   6.898  0.00  0.00    +0.154 HD
ATOM     10  H   UNL     1      -3.502   3.474   5.124  0.00  0.00    +0.149 HD
ENDROOT
BRANCH   1  15
ATOM     11  C   UNL     1      -6.332   2.969  -0.216  0.00  0.00    +0.051 C 
ATOM     12  C   UNL     1      -5.173   2.712   0.712  0.00  0.00    -0.013 A 
ATOM     13  C   UNL     1      -3.844   2.827   0.471  0.00  0.00    +0.011 A 
ATOM     14  C   UNL     1      -2.951   2.535   1.484  0.00  0.00    +0.013 A 
ATOM     15  C   UNL     1      -3.430   2.142   2.690  0.00  0.00    +0.015 A 
ATOM     16  S   UNL     1      -5.193   2.169   2.413  0.00  0.00    -0.096 S 
ENDBRANCH   1  15
BRANCH   2  17
ATOM     17  C   UNL     1      -1.863  -0.417   2.898  0.00  0.00    +0.248 C 
ATOM     18  O   UNL     1      -0.650  -0.378   2.800  0.00  0.00    -0.270 OA
ATOM     19  N   UNL     1      -2.590  -1.109   1.998  0.00  0.00    -0.281 N 
ATOM     20  H   UNL     1      -3.688  -1.092   2.049  0.00  0.00    +0.155 HD
BRANCH  19  21
ATOM     21  C   UNL     1      -1.947  -1.847   1.000  0.00  0.00    +0.037 A 
ATOM     22  C   UNL     1      -0.673  -1.486   0.577  0.00  0.00    +0.023 A 
ATOM     23  C   UNL     1      -0.041  -2.217  -0.409  0.00  0.00    +0.002 A 
ATOM     24  C   UNL     1      -0.674  -3.308  -0.976  0.00  0.00    +0.000 A 
ATOM     25  C   UNL     1      -1.940  -3.673  -0.554  0.00  0.00    +0.006 A 
ATOM     26  C   UNL     1      -2.580  -2.943   0.428  0.00  0.00    -0.024 A 
BRANCH  26  27
ATOM     27  C   UNL     1      -3.961  -3.338   0.882  0.00  0.00    +0.015 C 
ATOM     28  C   UNL     1      -4.949  -3.158  -0.272  0.00  0.00    +0.012 C 
ATOM     29  C   UNL     1      -3.953  -4.804   1.323  0.00  0.00    +0.012 C 
ENDBRANCH  26  27
ENDBRANCH  19  21
ENDBRANCH   2  17
TORSDOF 4
