REMARK  Name = ZINC21654235
REMARK  10 active torsions:
REMARK  status: ('A' for Active; 'I' for Inactive)
REMARK    1  A    between atoms: C_1  and  C_2
REMARK    2  A    between atoms: C_5  and  N_8
REMARK    3  A    between atoms: N_8  and  C_9
REMARK    4  A    between atoms: C_9  and  C_10
REMARK    5  A    between atoms: N_23  and  C_24
REMARK    6  A    between atoms: C_27  and  C_31
REMARK    7  A    between atoms: C_29  and  C_30
REMARK    8  A    between atoms: C_32  and  C_34
REMARK    9  A    between atoms: C_34  and  C_35
REMARK   10  A    between atoms: C_34  and  C_36
REMARK                            x       y       z     vdW  Elec       q    Type
REMARK                         _______ _______ _______ _____ _____    ______ ____
ROOT
ATOM      1  C   UNL     1       9.191  -2.047   1.823  0.00  0.00    -0.029 A 
ATOM      2  C   UNL     1       9.816  -1.373   2.856  0.00  0.00    +0.009 A 
ATOM      3  C   UNL     1       9.645  -1.787   4.163  0.00  0.00    +0.046 A 
ATOM      4  C   UNL     1       8.844  -2.887   4.440  0.00  0.00    +0.125 A 
ATOM      5  C   UNL     1       8.195  -3.537   3.401  0.00  0.00    +0.012 A 
ATOM      6  C   UNL     1       8.376  -3.132   2.097  0.00  0.00    +0.014 A 
ATOM      7  C   UNL     1       7.278  -4.697   3.732  0.00  0.00    +0.148 C 
ATOM      8  N   UNL     1       8.084  -5.792   4.282  0.00  0.00    -0.278 N 
ATOM      9  C   UNL     1       8.500  -5.774   5.686  0.00  0.00    +0.150 C 
ATOM     10  C   UNL     1       9.429  -4.595   5.964  0.00  0.00    +0.248 C 
ATOM     11  O   UNL     1       8.751  -3.361   5.708  0.00  0.00    -0.490 OA
ATOM     12  C   UNL     1       8.438  -6.825   3.492  0.00  0.00    +0.307 C 
ATOM     13  O   UNL     1       9.179  -7.690   3.918  0.00  0.00    -0.252 OA
ATOM     14  N   UNL     1       7.975  -6.897   2.229  0.00  0.00    -0.269 N 
ATOM     15  H   UNL     1       7.358  -6.082   1.822  0.00  0.00    +0.156 HD
ENDROOT
BRANCH  14  16
ATOM     16  C   UNL     1       8.279  -8.008   1.434  0.00  0.00    +0.038 A 
ATOM     17  C   UNL     1       8.666  -9.203   2.027  0.00  0.00    +0.024 A 
ATOM     18  C   UNL     1       8.965 -10.297   1.240  0.00  0.00    +0.005 A 
ATOM     19  C   UNL     1       8.878 -10.205  -0.137  0.00  0.00    -0.050 A 
ATOM     20  C   UNL     1       8.492  -9.018  -0.730  0.00  0.00    +0.008 A 
ATOM     21  C   UNL     1       8.188  -7.920   0.051  0.00  0.00    -0.029 A 
ATOM     22  C   UNL     1       7.762  -6.628  -0.596  0.00  0.00    +0.045 C 
ATOM     23  C   UNL     1       9.204 -11.402  -0.993  0.00  0.00    +0.044 C 
ENDBRANCH  14  16
BRANCH   1  24
ATOM     24  C   UNL     1       9.399  -1.602   0.398  0.00  0.00    +0.148 C 
BRANCH  24  25
ATOM     25  N   UNL     1       8.338  -0.664   0.021  0.00  0.00    -0.267 N 
ATOM     26  C   UNL     1       7.203  -1.123  -0.543  0.00  0.00    +0.223 C 
ATOM     27  O   UNL     1       7.015  -2.317  -0.643  0.00  0.00    -0.275 OA
BRANCH  25  32
ATOM     28  C   UNL     1       9.007   4.895   0.930  0.00  0.00    +0.044 C 
ATOM     29  C   UNL     1       8.829   3.418   0.689  0.00  0.00    -0.050 A 
ATOM     30  C   UNL     1       9.111   2.884  -0.555  0.00  0.00    +0.005 A 
ATOM     31  C   UNL     1       8.949   1.531  -0.780  0.00  0.00    +0.024 A 
ATOM     32  C   UNL     1       8.504   0.707   0.245  0.00  0.00    +0.037 A 
ATOM     33  C   UNL     1       8.217   1.247   1.492  0.00  0.00    +0.024 A 
ATOM     34  C   UNL     1       8.386   2.600   1.712  0.00  0.00    +0.005 A 
ENDBRANCH  25  32
BRANCH  26  35
ATOM     35  C   UNL     1       6.168  -0.152  -1.050  0.00  0.00    +0.069 C 
ATOM     36  C   UNL     1       5.674  -0.605  -2.425  0.00  0.00    +0.017 C 
ATOM     37  C   UNL     1       4.990  -0.107  -0.074  0.00  0.00    +0.017 C 
ENDBRANCH  26  35
ENDBRANCH  24  25
ENDBRANCH   1  24
TORSDOF 5
