REMARK  Name = ZINC16401007
REMARK  10 active torsions:
REMARK  status: ('A' for Active; 'I' for Inactive)
REMARK    1  A    between atoms: C_1  and  C_2
REMARK    2  A    between atoms: C_5  and  O_33
REMARK    3  A    between atoms: C_6  and  N_8
REMARK    4  A    between atoms: C_9  and  C_11
REMARK    5  A    between atoms: C_11  and  N_12
REMARK    6  A    between atoms: N_12  and  C_13
REMARK    7  A    between atoms: N_12  and  S_29
REMARK    8  A    between atoms: C_16  and  C_19
REMARK    9  A    between atoms: S_29  and  C_32
REMARK   10  A    between atoms: O_33  and  C_34
REMARK                            x       y       z     vdW  Elec       q    Type
REMARK                         _______ _______ _______ _____ _____    ______ ____
ROOT
ATOM      1  N   UNL     1      -3.135   4.180   6.480  0.00  0.00    -0.199 N 
ENDROOT
BRANCH   1   2
ATOM      2  C   UNL     1      -4.034   5.222   6.246  0.00  0.00    +0.051 A 
ATOM      3  C   UNL     1      -4.591   5.915   7.314  0.00  0.00    +0.025 A 
ATOM      4  C   UNL     1      -5.476   6.948   7.079  0.00  0.00    +0.006 A 
ATOM      5  C   UNL     1      -5.818   7.286   5.782  0.00  0.00    -0.041 A 
ATOM      6  C   UNL     1      -5.270   6.596   4.717  0.00  0.00    +0.006 A 
ATOM      7  C   UNL     1      -4.379   5.565   4.945  0.00  0.00    +0.025 A 
BRANCH   5   8
ATOM      8  C   UNL     1      -6.789   8.410   5.529  0.00  0.00    -0.003 C 
ATOM      9  C   UNL     1      -8.005   7.873   4.771  0.00  0.00    +0.015 C 
ATOM     10  C   UNL     1      -8.991   9.014   4.515  0.00  0.00    -0.010 C 
ATOM     11  C   UNL     1      -9.444   9.606   5.851  0.00  0.00    +0.007 C 
ATOM     12  C   UNL     1      -8.229  10.144   6.609  0.00  0.00    -0.010 C 
ATOM     13  C   UNL     1      -7.242   9.003   6.865  0.00  0.00    +0.015 C 
ATOM     14  C   UNL     1      -7.547  11.230   5.774  0.00  0.00    +0.007 C 
ATOM     15  C   UNL     1      -7.094  10.637   4.438  0.00  0.00    -0.010 C 
ATOM     16  C   UNL     1      -8.309  10.100   3.680  0.00  0.00    +0.007 C 
ATOM     17  C   UNL     1      -6.107   9.496   4.695  0.00  0.00    +0.015 C 
ENDBRANCH   5   8
ENDBRANCH   1   2
BRANCH   1  18
ATOM     18  S   UNL     1      -3.174   3.360   7.918  0.00  0.00    +0.043 S 
ATOM     19  O   UNL     1      -4.532   3.418   8.332  0.00  0.00    -0.155 OA
ATOM     20  O   UNL     1      -2.554   2.111   7.640  0.00  0.00    -0.155 OA
ATOM     21  C   UNL     1      -2.136   4.336   9.040  0.00  0.00    +0.218 C 
ENDBRANCH   1  18
BRANCH   1  22
ATOM     22  C   UNL     1      -2.156   3.812   5.454  0.00  0.00    +0.227 C 
BRANCH  22  24
ATOM     23  N   UNL     1      -2.071   2.377   3.440  0.00  0.00    -0.281 N 
ATOM     24  C   UNL     1      -2.788   2.854   4.477  0.00  0.00    +0.236 C 
ATOM     25  O   UNL     1      -3.943   2.512   4.624  0.00  0.00    -0.274 OA
ATOM     26  H   UNL     1      -1.130   2.599   3.359  0.00  0.00    +0.155 HD
BRANCH  23  32
ATOM     27  C   UNL     1      -5.363  -1.100   2.321  0.00  0.00    +0.044 C 
ATOM     28  C   UNL     1      -4.282  -0.133   1.909  0.00  0.00    -0.048 A 
ATOM     29  C   UNL     1      -3.893  -0.057   0.585  0.00  0.00    +0.007 A 
ATOM     30  C   UNL     1      -2.902   0.827   0.201  0.00  0.00    +0.048 A 
ATOM     31  C   UNL     1      -2.296   1.641   1.145  0.00  0.00    +0.141 A 
ATOM     32  C   UNL     1      -2.684   1.561   2.481  0.00  0.00    +0.076 A 
ATOM     33  C   UNL     1      -3.683   0.675   2.857  0.00  0.00    +0.030 A 
BRANCH  31  34
ATOM     34  O   UNL     1      -1.321   2.511   0.770  0.00  0.00    -0.493 OA
ATOM     35  C   UNL     1      -0.971   2.534  -0.616  0.00  0.00    +0.277 C 
ENDBRANCH  31  34
ENDBRANCH  23  32
ENDBRANCH  22  24
ENDBRANCH   1  22
TORSDOF 7
