REMARK  Name = ZINC15087801
REMARK  7 active torsions:
REMARK  status: ('A' for Active; 'I' for Inactive)
REMARK    1  A    between atoms: C_1  and  C_2
REMARK    2  A    between atoms: C_7  and  N_8
REMARK    3  A    between atoms: C_9  and  C_11
REMARK    4  A    between atoms: C_11  and  N_12
REMARK    5  A    between atoms: C_18  and  C_35
REMARK    6  A    between atoms: C_18  and  C_36
REMARK    7  A    between atoms: N_26  and  C_29
REMARK                            x       y       z     vdW  Elec       q    Type
REMARK                         _______ _______ _______ _____ _____    ______ ____
ROOT
ATOM      1  N   UNL     1      -0.241  -0.905   5.988  0.00  0.00    -0.288 N 
ATOM      2  C   UNL     1      -1.465  -1.374   6.412  0.00  0.00    +0.091 A 
ATOM      3  C   UNL     1      -1.413  -2.255   7.428  0.00  0.00    +0.031 A 
ATOM      4  S   UNL     1       0.324  -2.384   7.769  0.00  0.00    -0.030 S 
ATOM      5  C   UNL     1       0.887  -1.330   6.586  0.00  0.00    +0.292 A 
ATOM      6  O   UNL     1       2.038  -1.023   6.332  0.00  0.00    -0.259 OA
ATOM      7  C   UNL     1      -2.531  -2.970   8.096  0.00  0.00    +0.012 C 
ATOM      8  C   UNL     1      -3.891  -2.493   7.758  0.00  0.00    +0.109 C 
ATOM      9  C   UNL     1      -4.190  -2.126   6.298  0.00  0.00    +0.152 C 
ATOM     10  S   UNL     1      -3.013  -0.865   5.712  0.00  0.00    -0.093 S 
ATOM     11  C   UNL     1      -5.516  -1.376   6.516  0.00  0.00    +0.240 C 
ATOM     12  O   UNL     1      -6.419  -1.264   5.715  0.00  0.00    -0.274 OA
ATOM     13  N   UNL     1      -5.486  -0.867   7.764  0.00  0.00    -0.209 N 
ATOM     14  C   UNL     1      -4.477  -1.347   8.522  0.00  0.00    +0.232 C 
ATOM     15  O   UNL     1      -4.124  -0.936   9.606  0.00  0.00    -0.274 OA
ATOM     16  C   UNL     1      -2.342  -2.846   9.609  0.00  0.00    +0.017 C 
ATOM     17  C   UNL     1      -2.438  -4.453   7.729  0.00  0.00    +0.017 C 
ENDROOT
BRANCH  13  18
ATOM     18  C   UNL     1      -6.409   0.082   8.226  0.00  0.00    +0.044 A 
ATOM     19  C   UNL     1      -6.316   0.569   9.523  0.00  0.00    +0.024 A 
ATOM     20  C   UNL     1      -7.227   1.504   9.975  0.00  0.00    +0.002 A 
ATOM     21  C   UNL     1      -8.231   1.954   9.137  0.00  0.00    +0.000 A 
ATOM     22  C   UNL     1      -8.326   1.471   7.846  0.00  0.00    +0.002 A 
ATOM     23  C   UNL     1      -7.415   0.540   7.386  0.00  0.00    +0.024 A 
ENDBRANCH  13  18
BRANCH   1  24
ATOM     24  C   UNL     1      -0.168   0.052   4.882  0.00  0.00    +0.222 C 
BRANCH  24  26
ATOM     25  N   UNL     1       0.025  -0.015   2.417  0.00  0.00    -0.284 N 
ATOM     26  C   UNL     1      -0.056  -0.694   3.578  0.00  0.00    +0.237 C 
ATOM     27  O   UNL     1      -0.040  -1.907   3.573  0.00  0.00    -0.274 OA
ATOM     28  H   UNL     1       0.078   0.954   2.425  0.00  0.00    +0.155 HD
BRANCH  25  35
ATOM     29  C   UNL     1      -1.264   1.184   0.181  0.00  0.00    +0.045 C 
ATOM     30  C   UNL     1      -0.584  -0.158   0.084  0.00  0.00    -0.029 A 
ATOM     31  C   UNL     1      -0.568  -0.840  -1.117  0.00  0.00    +0.005 A 
ATOM     32  C   UNL     1       0.055  -2.071  -1.206  0.00  0.00    +0.000 A 
ATOM     33  C   UNL     1       0.666  -2.622  -0.095  0.00  0.00    +0.002 A 
ATOM     34  C   UNL     1       0.655  -1.945   1.108  0.00  0.00    +0.023 A 
ATOM     35  C   UNL     1       0.034  -0.706   1.201  0.00  0.00    +0.036 A 
ENDBRANCH  25  35
ENDBRANCH  24  26
ENDBRANCH   1  24
TORSDOF 4
