REMARK  Name = ZINC40562299
REMARK  9 active torsions:
REMARK  status: ('A' for Active; 'I' for Inactive)
REMARK    1  A    between atoms: C_1  and  C_2
REMARK    2  A    between atoms: C_4  and  C_35
REMARK    3  A    between atoms: C_5  and  O_9
REMARK    4  A    between atoms: C_6  and  C_8
REMARK    5  A    between atoms: O_9  and  C_10
REMARK    6  A    between atoms: C_10  and  C_11
REMARK    7  A    between atoms: N_13  and  C_14
REMARK    8  A    between atoms: C_22  and  C_23
REMARK    9  A    between atoms: C_23  and  C_25
REMARK                            x       y       z     vdW  Elec       q    Type
REMARK                         _______ _______ _______ _____ _____    ______ ____
ROOT
ATOM      1  C   UNL     1       2.061  -8.436  -0.124  0.00  0.00    +0.091 A 
ATOM      2  C   UNL     1       3.053  -9.474   0.180  0.00  0.00    +0.042 A 
ATOM      3  C   UNL     1       4.374  -9.451   0.630  0.00  0.00    +0.013 A 
ATOM      4  C   UNL     1       5.046 -10.625   0.821  0.00  0.00    +0.001 A 
ATOM      5  C   UNL     1       4.423 -11.840   0.570  0.00  0.00    +0.004 A 
ATOM      6  C   UNL     1       3.119 -11.884   0.125  0.00  0.00    +0.047 A 
ATOM      7  C   UNL     1       2.416 -10.701  -0.075  0.00  0.00    +0.138 A 
ATOM      8  O   UNL     1       1.161 -10.441  -0.493  0.00  0.00    -0.450 OA
ATOM      9  C   UNL     1       0.925  -9.110  -0.525  0.00  0.00    +0.197 A 
ENDROOT
BRANCH   1  12
ATOM     10  C   UNL     1       3.426  -6.506  -0.299  0.00  0.00    +0.255 C 
ATOM     11  O   UNL     1       4.381  -7.214  -0.540  0.00  0.00    -0.272 OA
ATOM     12  N   UNL     1       2.229  -7.061  -0.023  0.00  0.00    -0.279 N 
ATOM     13  H   UNL     1       1.484  -6.500   0.245  0.00  0.00    +0.155 HD
BRANCH  10  14
ATOM     14  C   UNL     1       3.577  -5.007  -0.307  0.00  0.00    +0.324 C 
BRANCH  14  15
ATOM     15  O   UNL     1       4.928  -4.667  -0.624  0.00  0.00    -0.482 OA
BRANCH  15  20
ATOM     16  C   UNL     1       6.206   0.815  -0.828  0.00  0.00    +0.044 C 
ATOM     17  C   UNL     1       5.864  -0.651  -0.773  0.00  0.00    -0.050 A 
ATOM     18  C   UNL     1       5.985  -1.345   0.417  0.00  0.00    +0.010 A 
ATOM     19  C   UNL     1       5.673  -2.689   0.470  0.00  0.00    -0.008 A 
ATOM     20  C   UNL     1       5.236  -3.344  -0.673  0.00  0.00    +0.127 A 
ATOM     21  C   UNL     1       5.115  -2.646  -1.866  0.00  0.00    -0.008 A 
ATOM     22  C   UNL     1       5.424  -1.300  -1.912  0.00  0.00    +0.010 A 
ATOM     23  C   UNL     1       4.641  -3.354  -3.109  0.00  0.00    +0.047 C 
ATOM     24  C   UNL     1       5.806  -3.444   1.767  0.00  0.00    +0.047 C 
ENDBRANCH  15  20
ENDBRANCH  14  15
ENDBRANCH  10  14
ENDBRANCH   1  12
BRANCH   9  25
ATOM     25  C   UNL     1      -0.296  -8.503  -0.912  0.00  0.00    +0.230 C 
ATOM     26  O   UNL     1      -0.370  -7.290  -1.003  0.00  0.00    -0.283 OA
BRANCH  25  27
ATOM     27  C   UNL     1      -1.477  -9.340  -1.205  0.00  0.00    +0.029 A 
ATOM     28  C   UNL     1      -1.363 -10.732  -1.222  0.00  0.00    +0.015 A 
ATOM     29  C   UNL     1      -2.466 -11.510  -1.497  0.00  0.00    +0.050 A 
ATOM     30  C   UNL     1      -3.695 -10.915  -1.758  0.00  0.00    +0.162 A 
ATOM     31  C   UNL     1      -3.816  -9.528  -1.740  0.00  0.00    +0.163 A 
ATOM     32  C   UNL     1      -2.713  -8.742  -1.460  0.00  0.00    +0.061 A 
ATOM     33  O   UNL     1      -5.015  -8.930  -1.985  0.00  0.00    -0.485 OA
ATOM     34  C   UNL     1      -6.015  -9.733  -2.621  0.00  0.00    +0.270 C 
ATOM     35  C   UNL     1      -6.060 -11.094  -1.914  0.00  0.00    +0.270 C 
ATOM     36  O   UNL     1      -4.769 -11.703  -2.031  0.00  0.00    -0.485 OA
ENDBRANCH  25  27
ENDBRANCH   9  25
TORSDOF 6
