REMARK  Name = ZINC10086821
REMARK  8 active torsions:
REMARK  status: ('A' for Active; 'I' for Inactive)
REMARK    1  A    between atoms: C_1  and  C_2
REMARK    2  A    between atoms: C_2  and  C_3
REMARK    3  A    between atoms: C_8  and  N_9
REMARK    4  A    between atoms: C_10  and  C_12
REMARK    5  A    between atoms: N_14  and  C_15
REMARK    6  A    between atoms: C_15  and  C_16
REMARK    7  A    between atoms: C_16  and  C_18
REMARK    8  A    between atoms: C_16  and  N_60
REMARK                            x       y       z     vdW  Elec       q    Type
REMARK                         _______ _______ _______ _____ _____    ______ ____
ROOT
ATOM      1  C   UNL     1      -1.794   6.150  -1.234  0.00  0.00    +0.094 C 
ENDROOT
BRANCH   1   4
ATOM      2  C   UNL     1      -3.501   7.537  -2.283  0.00  0.00    +0.299 C 
ATOM      3  O   UNL     1      -3.150   7.102  -3.361  0.00  0.00    -0.265 OA
ATOM      4  N   UNL     1      -2.886   7.124  -1.157  0.00  0.00    -0.309 N 
ATOM      5  H   UNL     1      -3.167   7.471  -0.296  0.00  0.00    +0.149 HD
BRANCH   2   7
ATOM      6  N   UNL     1      -5.229   8.943  -3.332  0.00  0.00    -0.278 N 
ATOM      7  C   UNL     1      -4.614   8.530  -2.205  0.00  0.00    +0.303 C 
ATOM      8  O   UNL     1      -4.965   8.964  -1.128  0.00  0.00    -0.265 OA
ATOM      9  H   UNL     1      -4.995   8.546  -4.185  0.00  0.00    +0.155 HD
BRANCH   6  15
ATOM     10  C   UNL     1      -6.444  10.750  -4.374  0.00  0.00    -0.026 A 
ATOM     11  C   UNL     1      -7.408  11.737  -4.309  0.00  0.00    +0.005 A 
ATOM     12  C   UNL     1      -8.133  11.922  -3.146  0.00  0.00    +0.000 A 
ATOM     13  C   UNL     1      -7.896  11.120  -2.044  0.00  0.00    +0.002 A 
ATOM     14  C   UNL     1      -6.937  10.128  -2.104  0.00  0.00    +0.023 A 
ATOM     15  C   UNL     1      -6.203   9.943  -3.269  0.00  0.00    +0.037 A 
BRANCH  10  17
ATOM     16  C   UNL     1      -6.312   9.453  -6.483  0.00  0.00    +0.009 C 
ATOM     17  C   UNL     1      -5.654  10.548  -5.642  0.00  0.00    +0.033 C 
ENDBRANCH  10  17
ENDBRANCH   6  15
ENDBRANCH   2   7
ENDBRANCH   1   4
BRANCH   1  18
ATOM     18  C   UNL     1      -1.193   5.948   0.158  0.00  0.00    -0.020 C 
BRANCH  18  19
ATOM     19  C   UNL     1       0.001   5.033   0.062  0.00  0.00    -0.052 A 
ATOM     20  C   UNL     1       1.250   5.551  -0.088  0.00  0.00    +0.003 A 
ATOM     21  C   UNL     1       2.365   4.721  -0.180  0.00  0.00    +0.001 A 
ATOM     22  C   UNL     1       2.237   3.367  -0.122  0.00  0.00    +0.008 A 
ATOM     23  C   UNL     1       0.963   2.795   0.033  0.00  0.00    -0.018 A 
ATOM     24  C   UNL     1      -0.171   3.640   0.126  0.00  0.00    -0.016 A 
ATOM     25  C   UNL     1      -1.445   3.068   0.280  0.00  0.00    +0.009 A 
ATOM     26  C   UNL     1      -1.574   1.714   0.332  0.00  0.00    +0.001 A 
ATOM     27  C   UNL     1      -0.458   0.883   0.246  0.00  0.00    +0.001 A 
ATOM     28  C   UNL     1       0.791   1.401   0.096  0.00  0.00    +0.008 A 
ENDBRANCH  18  19
BRANCH  18  33
ATOM     29  C   UNL     1       0.163   7.066   1.843  0.00  0.00    -0.078 C 
ATOM     30  C   UNL     1       0.884   8.435   1.929  0.00  0.00    -0.020 C 
ATOM     31  C   UNL     1       1.046   8.835   0.445  0.00  0.00    -0.020 C 
ATOM     32  C   UNL     1      -0.029   8.029  -0.308  0.00  0.00    -0.078 C 
ATOM     33  N   UNL     1      -0.753   7.265   0.709  0.00  0.00    +0.385 N 
ATOM     34  H   UNL     1      -1.577   7.793   1.018  0.00  0.00    -0.081 HD
ENDBRANCH  18  33
ENDBRANCH   1  18
TORSDOF 7
