REMARK  Name = ZINC13024026
REMARK  16 active torsions:
REMARK  status: ('A' for Active; 'I' for Inactive)
REMARK    1  A    between atoms: C_1  and  C_2
REMARK    2  A    between atoms: C_2  and  C_3
REMARK    3  A    between atoms: C_3  and  C_4
REMARK    4  A    between atoms: C_3  and  C_5
REMARK    5  A    between atoms: C_3  and  N_6
REMARK    6  A    between atoms: C_7  and  C_9
REMARK    7  A    between atoms: C_9  and  C_11
REMARK    8  A    between atoms: C_9  and  N_21
REMARK    9  A    between atoms: C_15  and  O_19
REMARK   10  A    between atoms: C_16  and  O_17
REMARK   11  A    between atoms: O_17  and  C_18
REMARK   12  A    between atoms: O_19  and  C_20
REMARK   13  A    between atoms: N_21  and  C_22
REMARK   14  A    between atoms: C_22  and  C_23
REMARK   15  A    between atoms: C_28  and  C_30
REMARK   16  A    between atoms: C_30  and  N_31
REMARK                            x       y       z     vdW  Elec       q    Type
REMARK                         _______ _______ _______ _____ _____    ______ ____
ROOT
ATOM      1  C   UNL     1       2.222   2.201  -1.354  0.00  0.00    +0.196 C 
ENDROOT
BRANCH   1   2
ATOM      2  C   UNL     1       1.623   3.414  -2.019  0.00  0.00    +0.027 A 
ATOM      3  C   UNL     1       0.873   3.270  -3.172  0.00  0.00    +0.010 A 
ATOM      4  C   UNL     1       0.317   4.379  -3.781  0.00  0.00    +0.004 A 
ATOM      5  C   UNL     1       0.518   5.639  -3.247  0.00  0.00    +0.049 A 
ATOM      6  C   UNL     1       1.273   5.790  -2.095  0.00  0.00    +0.162 A 
ATOM      7  C   UNL     1       1.828   4.673  -1.479  0.00  0.00    +0.167 A 
BRANCH   7   8
ATOM      8  O   UNL     1       2.570   4.816  -0.348  0.00  0.00    -0.491 OA
ATOM      9  C   UNL     1       3.953   5.133  -0.515  0.00  0.00    +0.277 C 
ENDBRANCH   7   8
BRANCH   6  10
ATOM     10  O   UNL     1       1.471   7.028  -1.569  0.00  0.00    -0.491 OA
ATOM     11  C   UNL     1       0.872   8.129  -2.255  0.00  0.00    +0.277 C 
ENDBRANCH   6  10
ENDBRANCH   1   2
BRANCH   1  13
ATOM     12  N   UNL     1       3.159   1.186  -3.406  0.00  0.00    -0.308 N 
ATOM     13  C   UNL     1       2.323   1.078  -2.354  0.00  0.00    +0.239 C 
ATOM     14  O   UNL     1       1.652   0.078  -2.213  0.00  0.00    -0.273 OA
ATOM     15  H   UNL     1       3.748   1.953  -3.481  0.00  0.00    +0.149 HD
BRANCH  12  16
ATOM     16  C   UNL     1       3.178   0.144  -4.436  0.00  0.00    +0.029 C 
ATOM     17  C   UNL     1       3.555  -1.195  -3.800  0.00  0.00    +0.031 C 
ATOM     18  C   UNL     1       1.793   0.034  -5.075  0.00  0.00    +0.031 C 
BRANCH  16  20
ATOM     19  C   UNL     1       4.227  -0.581  -6.584  0.00  0.00    +0.006 C 
ATOM     20  C   UNL     1       4.207   0.506  -5.508  0.00  0.00    +0.022 C 
ENDBRANCH  16  20
ENDBRANCH  12  16
ENDBRANCH   1  13
BRANCH   1  21
ATOM     21  N   UNL     1       1.370   1.786  -0.238  0.00  0.00    -0.277 N 
ATOM     22  C   UNL     1       0.054   1.570  -0.438  0.00  0.00    +0.238 C 
ATOM     23  O   UNL     1      -0.424   1.720  -1.542  0.00  0.00    -0.274 OA
BRANCH  21  24
ATOM     24  C   UNL     1       1.947   1.604   1.097  0.00  0.00    +0.183 C 
BRANCH  24  25
ATOM     25  C   UNL     1       1.895   2.909   1.848  0.00  0.00    +0.122 A 
ATOM     26  C   UNL     1       0.865   3.348   2.594  0.00  0.00    +0.046 A 
ATOM     27  C   UNL     1       1.242   4.608   3.111  0.00  0.00    +0.041 A 
ATOM     28  C   UNL     1       2.479   4.865   2.651  0.00  0.00    +0.195 A 
ATOM     29  O   UNL     1       2.873   3.830   1.891  0.00  0.00    -0.466 OA
ENDBRANCH  24  25
ENDBRANCH  21  24
BRANCH  22  30
ATOM     30  C   UNL     1      -0.822   1.142   0.711  0.00  0.00    +0.241 C 
BRANCH  30  31
ATOM     31  N   UNL     1      -2.199   0.975   0.238  0.00  0.00    -0.235 N 
ATOM     32  C   UNL     1      -2.763  -0.175  -0.261  0.00  0.00    +0.090 A 
ATOM     33  C   UNL     1      -2.293  -1.466  -0.481  0.00  0.00    +0.029 A 
ATOM     34  C   UNL     1      -3.128  -2.412  -1.006  0.00  0.00    +0.002 A 
ATOM     35  C   UNL     1      -4.443  -2.098  -1.322  0.00  0.00    +0.002 A 
ATOM     36  C   UNL     1      -4.928  -0.839  -1.116  0.00  0.00    +0.032 A 
ATOM     37  C   UNL     1      -4.093   0.150  -0.579  0.00  0.00    +0.113 A 
ATOM     38  N   UNL     1      -4.282   1.448  -0.270  0.00  0.00    -0.129 NA
ATOM     39  N   UNL     1      -3.203   1.954   0.212  0.00  0.00    -0.064 NA
ENDBRANCH  30  31
ENDBRANCH  22  30
ENDBRANCH   1  21
TORSDOF 11
