REMARK  Name = ZINC09121605
REMARK  10 active torsions:
REMARK  status: ('A' for Active; 'I' for Inactive)
REMARK    1  A    between atoms: C_1  and  C_2
REMARK    2  A    between atoms: C_2  and  O_3
REMARK    3  A    between atoms: O_3  and  C_4
REMARK    4  A    between atoms: C_7  and  N_13
REMARK    5  A    between atoms: C_9  and  O_10
REMARK    6  A    between atoms: O_10  and  C_11
REMARK    7  A    between atoms: C_11  and  C_12
REMARK    8  A    between atoms: C_15  and  C_20
REMARK    9  A    between atoms: C_20  and  N_21
REMARK   10  A    between atoms: C_22  and  C_24
REMARK                            x       y       z     vdW  Elec       q    Type
REMARK                         _______ _______ _______ _____ _____    ______ ____
ROOT
ATOM      1  N   UNL     1       4.572   9.131  -1.247  0.00  0.00    -0.234 N 
ATOM      2  C   UNL     1       4.650   8.359   0.002  0.00  0.00    +0.163 C 
ATOM      3  C   UNL     1       3.345   7.540   0.010  0.00  0.00    +0.213 C 
ATOM      4  O   UNL     1       2.675   7.933  -1.223  0.00  0.00    -0.444 OA
ATOM      5  C   UNL     1       3.427   8.829  -1.873  0.00  0.00    +0.408 C 
ATOM      6  O   UNL     1       3.101   9.323  -2.934  0.00  0.00    -0.226 OA
ENDROOT
BRANCH   1  10
ATOM      7  C   UNL     1       7.452  11.825  -2.612  0.00  0.00    +0.162 A 
ATOM      8  C   UNL     1       7.641  11.155  -1.414  0.00  0.00    +0.051 A 
ATOM      9  C   UNL     1       6.688  10.263  -0.962  0.00  0.00    +0.027 A 
ATOM     10  C   UNL     1       5.539  10.036  -1.707  0.00  0.00    +0.043 A 
ATOM     11  C   UNL     1       5.349  10.701  -2.911  0.00  0.00    +0.073 A 
ATOM     12  C   UNL     1       6.302  11.599  -3.361  0.00  0.00    +0.164 A 
BRANCH   7  13
ATOM     13  O   UNL     1       8.392  12.703  -3.056  0.00  0.00    -0.489 OA
BRANCH  13  15
ATOM     14  C   UNL     1      10.485  13.902  -2.894  0.00  0.00    +0.048 C 
ATOM     15  C   UNL     1       9.549  12.886  -2.236  0.00  0.00    +0.226 C 
ENDBRANCH  13  15
ENDBRANCH   7  13
BRANCH  12  16
ATOM     16  O   UNL     1       6.115  12.257  -4.537  0.00  0.00    -0.489 OA
BRANCH  16  17
ATOM     17  C   UNL     1       4.911  11.976  -5.253  0.00  0.00    +0.226 C 
ATOM     18  C   UNL     1       4.878  12.803  -6.540  0.00  0.00    +0.048 C 
ENDBRANCH  16  17
ENDBRANCH  12  16
ENDBRANCH   1  10
BRANCH   3  19
ATOM     19  C   UNL     1       3.651   6.042  -0.000  0.00  0.00    +0.150 C 
BRANCH  19  20
ATOM     20  N   UNL     1       2.396   5.286   0.007  0.00  0.00    -0.308 N 
ATOM     21  C   UNL     1       2.420   3.939   0.000  0.00  0.00    +0.245 C 
ATOM     22  O   UNL     1       3.483   3.350  -0.012  0.00  0.00    -0.270 OA
ATOM     23  H   UNL     1       1.547   5.756   0.017  0.00  0.00    +0.149 HD
BRANCH  21  24
ATOM     24  C   UNL     1       1.153   3.177   0.008  0.00  0.00    +0.050 A 
ATOM     25  C   UNL     1      -0.070   3.850   0.022  0.00  0.00    +0.014 A 
ATOM     26  C   UNL     1      -1.248   3.133   0.030  0.00  0.00    +0.001 A 
ATOM     27  C   UNL     1      -1.220   1.750   0.017  0.00  0.00    +0.001 A 
ATOM     28  C   UNL     1      -0.013   1.076   0.008  0.00  0.00    +0.015 A 
ATOM     29  C   UNL     1       1.174   1.781   0.000  0.00  0.00    +0.025 A 
ATOM     30  I   UNL     1       3.003   0.759  -0.022  0.00  0.00    -0.043 I 
ENDBRANCH  21  24
ENDBRANCH  19  20
ENDBRANCH   3  19
TORSDOF 8
