REMARK  Name = ZINC61135577
REMARK  6 active torsions:
REMARK  status: ('A' for Active; 'I' for Inactive)
REMARK    1  A    between atoms: C_1  and  C_2
REMARK    2  A    between atoms: C_3  and  C_11
REMARK    3  A    between atoms: C_5  and  C_7
REMARK    4  A    between atoms: C_7  and  C_8
REMARK    5  A    between atoms: C_7  and  C_9
REMARK    6  A    between atoms: C_7  and  C_10
REMARK                            x       y       z     vdW  Elec       q    Type
REMARK                         _______ _______ _______ _____ _____    ______ ____
ROOT
ATOM      1  C   UNL     1      -0.008  -0.248  -2.562  0.00  0.00    +0.260 C 
ATOM      2  O   UNL     1      -0.030   0.947  -2.793  0.00  0.00    -0.269 OA
ATOM      3  N   UNL     1       0.101  -1.129  -3.576  0.00  0.00    -0.256 N 
ATOM      4  C   UNL     1       0.119  -2.578  -3.324  0.00  0.00    +0.210 C 
ATOM      5  C   UNL     1       1.167  -3.216  -4.200  0.00  0.00    +0.235 C 
ATOM      6  O   UNL     1       1.723  -4.228  -3.829  0.00  0.00    -0.274 OA
ATOM      7  N   UNL     1       1.493  -2.676  -5.389  0.00  0.00    -0.283 N 
ATOM      8  C   UNL     1       0.903  -1.482  -5.819  0.00  0.00    +0.055 A 
ATOM      9  C   UNL     1       0.194  -0.693  -4.906  0.00  0.00    +0.058 A 
ATOM     10  C   UNL     1      -0.395   0.490  -5.314  0.00  0.00    +0.025 A 
ATOM     11  C   UNL     1      -0.289   0.890  -6.634  0.00  0.00    +0.002 A 
ATOM     12  C   UNL     1       0.403   0.111  -7.543  0.00  0.00    +0.002 A 
ATOM     13  C   UNL     1       1.008  -1.073  -7.138  0.00  0.00    +0.025 A 
ATOM     14  H   UNL     1       2.144  -3.120  -5.955  0.00  0.00    +0.155 HD
ENDROOT
BRANCH   1  17
ATOM     15  C   UNL     1       0.132   1.472   0.027  0.00  0.00    +0.067 C 
ATOM     16  C   UNL     1      -0.046  -0.025   0.004  0.00  0.00    +0.058 A 
ATOM     17  C   UNL     1      -0.100  -0.729  -1.179  0.00  0.00    +0.097 A 
ATOM     18  S   UNL     1      -0.312  -2.390  -0.560  0.00  0.00    -0.067 S 
ATOM     19  C   UNL     1      -0.311  -2.027   1.083  0.00  0.00    +0.085 A 
ATOM     20  N   UNL     1      -0.151  -0.723   1.107  0.00  0.00    -0.248 NA
BRANCH  19  21
ATOM     21  C   UNL     1      -0.453  -2.971   2.249  0.00  0.00    +0.011 C 
ATOM     22  C   UNL     1      -1.686  -2.588   3.069  0.00  0.00    +0.017 C 
ATOM     23  C   UNL     1      -0.611  -4.402   1.730  0.00  0.00    +0.017 C 
ATOM     24  C   UNL     1       0.794  -2.884   3.131  0.00  0.00    +0.017 C 
ENDBRANCH  19  21
ENDBRANCH   1  17
TORSDOF 2
