REMARK  Name = ZINC05585653
REMARK  9 active torsions:
REMARK  status: ('A' for Active; 'I' for Inactive)
REMARK    1  A    between atoms: C_1  and  C_2
REMARK    2  A    between atoms: C_2  and  O_3
REMARK    3  A    between atoms: O_3  and  C_4
REMARK    4  A    between atoms: C_4  and  C_6
REMARK    5  A    between atoms: C_7  and  C_30
REMARK    6  A    between atoms: N_8  and  C_24
REMARK    7  A    between atoms: C_12  and  C_14
REMARK    8  A    between atoms: C_19  and  O_20
REMARK    9  A    between atoms: O_20  and  C_21
REMARK                            x       y       z     vdW  Elec       q    Type
REMARK                         _______ _______ _______ _____ _____    ______ ____
ROOT
ATOM      1  C   UNL     1       6.145  -0.453  -0.528  0.00  0.00    +0.078 C 
ATOM      2  C   UNL     1       5.052   0.296  -0.266  0.00  0.00    +0.027 C 
ATOM      3  N   UNL     1       3.867  -0.286   0.085  0.00  0.00    -0.255 N 
ATOM      4  C   UNL     1       3.695  -1.609   0.201  0.00  0.00    +0.142 C 
ATOM      5  S   UNL     1       2.157  -2.208   0.656  0.00  0.00    -0.018 S 
ATOM      6  N   UNL     1       4.692  -2.485  -0.033  0.00  0.00    -0.315 N 
ATOM      7  C   UNL     1       6.012  -1.958  -0.418  0.00  0.00    +0.145 C 
ATOM      8  C   UNL     1       5.140   1.797  -0.363  0.00  0.00    +0.062 C 
ATOM      9  H   UNL     1       4.545  -3.440   0.054  0.00  0.00    +0.149 HD
ENDROOT
BRANCH   7  10
ATOM     10  C   UNL     1       6.378  -2.555  -1.753  0.00  0.00    +0.019 A 
ATOM     11  C   UNL     1       7.570  -3.239  -1.901  0.00  0.00    +0.009 A 
ATOM     12  C   UNL     1       7.906  -3.787  -3.124  0.00  0.00    +0.001 A 
ATOM     13  C   UNL     1       7.051  -3.653  -4.203  0.00  0.00    +0.004 A 
ATOM     14  C   UNL     1       5.859  -2.971  -4.060  0.00  0.00    +0.046 A 
ATOM     15  C   UNL     1       5.517  -2.424  -2.832  0.00  0.00    +0.132 A 
BRANCH  15  16
ATOM     16  O   UNL     1       4.342  -1.756  -2.687  0.00  0.00    -0.434 OA
BRANCH  16  17
ATOM     17  C   UNL     1       3.475  -1.716  -3.822  0.00  0.00    +0.541 C 
ATOM     18  F   UNL     1       4.118  -1.061  -4.878  0.00  0.00    -0.166 F 
ATOM     19  F   UNL     1       3.154  -3.022  -4.210  0.00  0.00    -0.166 F 
ENDBRANCH  16  17
ENDBRANCH  15  16
ENDBRANCH   7  10
BRANCH   3  20
ATOM     20  C   UNL     1       2.771   0.547   0.343  0.00  0.00    +0.040 A 
ATOM     21  C   UNL     1       2.613   1.120   1.598  0.00  0.00    +0.024 A 
ATOM     22  C   UNL     1       1.532   1.942   1.849  0.00  0.00    +0.002 A 
ATOM     23  C   UNL     1       0.608   2.195   0.852  0.00  0.00    +0.000 A 
ATOM     24  C   UNL     1       0.763   1.627  -0.399  0.00  0.00    +0.002 A 
ATOM     25  C   UNL     1       1.841   0.804  -0.656  0.00  0.00    +0.024 A 
ENDBRANCH   3  20
BRANCH   1  26
ATOM     26  C   UNL     1       7.373   0.148  -0.891  0.00  0.00    +0.339 C 
ATOM     27  O   UNL     1       7.464   1.361  -0.946  0.00  0.00    -0.245 OA
BRANCH  26  28
ATOM     28  O   UNL     1       8.443  -0.623  -1.178  0.00  0.00    -0.462 OA
BRANCH  28  30
ATOM     29  C   UNL     1      10.678  -0.993  -2.018  0.00  0.00    +0.048 C 
ATOM     30  C   UNL     1       9.613   0.044  -1.656  0.00  0.00    +0.229 C 
ENDBRANCH  28  30
ENDBRANCH  26  28
ENDBRANCH   1  26
TORSDOF 7
