REMARK  Name = ZINC22851885
REMARK  5 active torsions:
REMARK  status: ('A' for Active; 'I' for Inactive)
REMARK    1  A    between atoms: N_9  and  C_11
REMARK    2  A    between atoms: C_11  and  C_13
REMARK    3  A    between atoms: C_11  and  C_20
REMARK    4  A    between atoms: C_21  and  O_33
REMARK    5  A    between atoms: C_26  and  C_28
REMARK                            x       y       z     vdW  Elec       q    Type
REMARK                         _______ _______ _______ _____ _____    ______ ____
ROOT
ATOM      1  C   UNL     1       0.005   1.186  -2.409  0.00  0.00    +0.131 C 
ENDROOT
BRANCH   1  10
ATOM      2  C   UNL     1      -4.582   3.207   1.613  0.00  0.00    +0.000 A 
ATOM      3  C   UNL     1      -3.947   4.309   1.073  0.00  0.00    +0.000 A 
ATOM      4  C   UNL     1      -2.957   4.137   0.126  0.00  0.00    +0.005 A 
ATOM      5  C   UNL     1      -2.594   2.859  -0.284  0.00  0.00    -0.030 A 
ATOM      6  C   UNL     1      -3.228   1.764   0.254  0.00  0.00    -0.042 A 
ATOM      7  C   UNL     1      -4.223   1.938   1.204  0.00  0.00    +0.004 A 
ATOM      8  C   UNL     1      -2.867   0.360  -0.159  0.00  0.00    +0.051 C 
ATOM      9  C   UNL     1      -2.082   0.388  -1.470  0.00  0.00    +0.090 C 
ATOM     10  N   UNL     1      -0.983   1.358  -1.336  0.00  0.00    -0.286 NA
ATOM     11  C   UNL     1      -1.513   2.725  -1.325  0.00  0.00    +0.120 C 
ENDBRANCH   1  10
BRANCH   1  12
ATOM     12  C   UNL     1       0.449  -0.254  -2.457  0.00  0.00    +0.076 A 
ATOM     13  C   UNL     1       0.466  -1.098  -3.495  0.00  0.00    +0.228 A 
ATOM     14  N   UNL     1       0.911  -2.388  -3.342  0.00  0.00    -0.173 N 
ATOM     15  C   UNL     1       1.330  -2.760  -2.094  0.00  0.00    +0.200 A 
ATOM     16  S   UNL     1       1.097  -1.277  -1.143  0.00  0.00    -0.047 S 
ATOM     17  N   UNL     1       1.720  -4.003  -2.113  0.00  0.00    -0.197 NA
ATOM     18  C   UNL     1       1.576  -4.494  -3.352  0.00  0.00    +0.218 A 
ATOM     19  N   UNL     1       1.090  -3.554  -4.132  0.00  0.00    -0.138 NA
BRANCH  18  20
ATOM     20  C   UNL     1       1.910  -5.871  -3.773  0.00  0.00    +0.173 A 
ATOM     21  C   UNL     1       2.413  -6.849  -2.975  0.00  0.00    +0.053 A 
ATOM     22  C   UNL     1       2.577  -7.990  -3.785  0.00  0.00    +0.042 A 
ATOM     23  C   UNL     1       2.171  -7.655  -5.026  0.00  0.00    +0.196 A 
ATOM     24  O   UNL     1       1.764  -6.375  -5.013  0.00  0.00    -0.460 OA
ENDBRANCH  18  20
BRANCH  13  25
ATOM     25  O   UNL     1       0.037  -0.673  -4.714  0.00  0.00    -0.492 OA
ATOM     26  H   UNL     1       0.049  -1.362  -5.572  0.00  0.00    +0.294 HD
ENDBRANCH  13  25
ENDBRANCH   1  12
BRANCH   1  27
ATOM     27  C   UNL     1       1.196   2.070  -2.142  0.00  0.00    -0.007 A 
ATOM     28  C   UNL     1       1.523   2.416  -0.844  0.00  0.00    +0.007 A 
ATOM     29  C   UNL     1       2.618   3.223  -0.598  0.00  0.00    +0.000 A 
ATOM     30  C   UNL     1       3.381   3.693  -1.650  0.00  0.00    +0.001 A 
ATOM     31  C   UNL     1       3.052   3.352  -2.949  0.00  0.00    +0.020 A 
ATOM     32  C   UNL     1       1.959   2.540  -3.195  0.00  0.00    +0.046 A 
ATOM     33 CL   UNL     1       1.546   2.111  -4.826  0.00  0.00    -0.083 Cl
ENDBRANCH   1  27
TORSDOF 5
