REMARK  Name = ZINC02459813
REMARK  8 active torsions:
REMARK  status: ('A' for Active; 'I' for Inactive)
REMARK    1  A    between atoms: C_1  and  C_2
REMARK    2  A    between atoms: C_5  and  S_20
REMARK    3  A    between atoms: C_10  and  C_11
REMARK    4  A    between atoms: N_13  and  C_14
REMARK    5  A    between atoms: C_14  and  C_15
REMARK    6  A    between atoms: S_20  and  N_23
REMARK    7  A    between atoms: C_25  and  C_32
REMARK    8  A    between atoms: C_28  and  C_31
REMARK                            x       y       z     vdW  Elec       q    Type
REMARK                         _______ _______ _______ _____ _____    ______ ____
ROOT
ATOM      1  C   UNL     1       3.165   0.021  -0.027  0.00  0.00    +0.048 C 
ATOM      2  C   UNL     1       2.599   1.418  -0.015  0.00  0.00    +0.008 A 
ATOM      3  C   UNL     1       1.186   1.794   0.000  0.00  0.00    +0.026 A 
ATOM      4  C   UNL     1      -0.013   1.076   0.008  0.00  0.00    +0.040 A 
ATOM      5  C   UNL     1      -1.203   1.746   0.017  0.00  0.00    +0.106 A 
ATOM      6  C   UNL     1      -1.229   3.134   0.030  0.00  0.00    +0.032 A 
ATOM      7  C   UNL     1      -0.058   3.860   0.023  0.00  0.00    +0.049 A 
ATOM      8  C   UNL     1       1.165   3.201   0.008  0.00  0.00    +0.136 A 
ATOM      9  O   UNL     1       2.443   3.627  -0.002  0.00  0.00    -0.450 OA
ATOM     10  C   UNL     1       3.298   2.583  -0.015  0.00  0.00    +0.193 A 
ENDROOT
BRANCH  10  11
ATOM     11  C   UNL     1       4.764   2.689  -0.029  0.00  0.00    +0.280 C 
ATOM     12  O   UNL     1       5.447   1.683  -0.040  0.00  0.00    -0.267 OA
ATOM     13  N   UNL     1       5.351   3.902  -0.028  0.00  0.00    -0.302 N 
ATOM     14  H   UNL     1       4.806   4.705  -0.020  0.00  0.00    +0.150 HD
BRANCH  13  15
ATOM     15  C   UNL     1       6.812   4.009  -0.042  0.00  0.00    +0.179 C 
BRANCH  15  16
ATOM     16  C   UNL     1       7.210   5.462  -0.038  0.00  0.00    +0.122 A 
ATOM     17  C   UNL     1       7.428   6.216   1.054  0.00  0.00    +0.046 A 
ATOM     18  C   UNL     1       7.777   7.508   0.598  0.00  0.00    +0.041 A 
ATOM     19  C   UNL     1       7.751   7.466  -0.747  0.00  0.00    +0.195 A 
ATOM     20  O   UNL     1       7.413   6.223  -1.126  0.00  0.00    -0.466 OA
ENDBRANCH  15  16
ENDBRANCH  13  15
ENDBRANCH  10  11
BRANCH   5  21
ATOM     21  S   UNL     1      -2.716   0.842   0.019  0.00  0.00    +0.061 S 
ATOM     22  O   UNL     1      -3.706   1.706  -0.522  0.00  0.00    -0.153 OA
ATOM     23  O   UNL     1      -2.428  -0.432  -0.540  0.00  0.00    -0.153 OA
BRANCH  21  24
ATOM     24  N   UNL     1      -3.129   0.582   1.602  0.00  0.00    -0.176 NA
ATOM     25  C   UNL     1      -2.672  -0.623   2.307  0.00  0.00    +0.112 C 
ATOM     26  C   UNL     1      -1.963  -0.194   3.600  0.00  0.00    +0.002 C 
ATOM     27  C   UNL     1      -2.902   0.694   4.419  0.00  0.00    +0.009 C 
ATOM     28  C   UNL     1      -3.245   1.952   3.618  0.00  0.00    +0.002 C 
ATOM     29  C   UNL     1      -3.964   1.550   2.326  0.00  0.00    +0.112 C 
ATOM     30  C   UNL     1      -1.958   2.704   3.273  0.00  0.00    +0.009 C 
ATOM     31  C   UNL     1      -1.595  -1.436   4.415  0.00  0.00    +0.009 C 
ENDBRANCH  21  24
ENDBRANCH   5  21
TORSDOF 5
