REMARK  Name = ZINC09713166
REMARK  7 active torsions:
REMARK  status: ('A' for Active; 'I' for Inactive)
REMARK    1  A    between atoms: C_1  and  C_2
REMARK    2  A    between atoms: C_5  and  C_9
REMARK    3  A    between atoms: C_7  and  C_8
REMARK    4  A    between atoms: C_9  and  C_27
REMARK    5  A    between atoms: N_12  and  C_16
REMARK    6  A    between atoms: C_16  and  N_63
REMARK    7  A    between atoms: C_22  and  C_24
REMARK                            x       y       z     vdW  Elec       q    Type
REMARK                         _______ _______ _______ _____ _____    ______ ____
ROOT
ATOM      1  C   UNL     1      -3.367  -1.276   0.911  0.00  0.00    +0.164 C 
ATOM      2  C   UNL     1      -2.800  -0.124   0.105  0.00  0.00    +0.254 C 
ATOM      3  O   UNL     1      -3.334   0.462  -0.812  0.00  0.00    -0.272 OA
ATOM      4  N   UNL     1      -1.577   0.114   0.621  0.00  0.00    -0.241 N 
ATOM      5  C   UNL     1      -1.295  -0.723   1.626  0.00  0.00    +0.308 C 
ATOM      6  O   UNL     1      -0.249  -0.705   2.246  0.00  0.00    -0.252 OA
ATOM      7  N   UNL     1      -2.299  -1.582   1.877  0.00  0.00    -0.278 N 
ATOM      8  H   UNL     1      -2.314  -2.272   2.559  0.00  0.00    +0.152 HD
ENDROOT
BRANCH   1  13
ATOM      9  C   UNL     1      -4.393  -5.828  -2.498  0.00  0.00    +0.044 C 
ATOM     10  C   UNL     1      -4.125  -4.641  -1.609  0.00  0.00    -0.048 A 
ATOM     11  C   UNL     1      -4.624  -3.397  -1.948  0.00  0.00    +0.004 A 
ATOM     12  C   UNL     1      -4.379  -2.308  -1.133  0.00  0.00    +0.007 A 
ATOM     13  C   UNL     1      -3.635  -2.463   0.022  0.00  0.00    -0.010 A 
ATOM     14  C   UNL     1      -3.131  -3.705   0.358  0.00  0.00    +0.010 A 
ATOM     15  C   UNL     1      -3.381  -4.795  -0.455  0.00  0.00    -0.047 A 
ATOM     16  C   UNL     1      -2.837  -6.151  -0.086  0.00  0.00    +0.044 C 
ENDBRANCH   1  13
BRANCH   1  17
ATOM     17  C   UNL     1      -4.624  -0.854   1.627  0.00  0.00    -0.011 A 
ATOM     18  C   UNL     1      -5.623  -0.190   0.938  0.00  0.00    +0.006 A 
ATOM     19  C   UNL     1      -6.778   0.192   1.593  0.00  0.00    +0.000 A 
ATOM     20  C   UNL     1      -6.930  -0.078   2.940  0.00  0.00    +0.000 A 
ATOM     21  C   UNL     1      -5.930  -0.737   3.630  0.00  0.00    +0.000 A 
ATOM     22  C   UNL     1      -4.777  -1.125   2.974  0.00  0.00    +0.006 A 
ENDBRANCH   1  17
BRANCH   4  23
ATOM     23  C   UNL     1      -0.668   1.155   0.136  0.00  0.00    +0.043 C 
BRANCH  23  31
ATOM     24  C   UNL     1      -2.078   3.115   0.321  0.00  0.00    -0.057 C 
ATOM     25  C   UNL     1      -2.414   4.309   1.220  0.00  0.00    +0.089 C 
ATOM     26  N   UNL     1      -1.203   5.128   1.381  0.00  0.00    -0.305 N 
ATOM     27  C   UNL     1       0.039   4.458   1.798  0.00  0.00    +0.089 C 
ATOM     28  C   UNL     1       0.278   3.258   0.876  0.00  0.00    -0.057 C 
ATOM     29  C   UNL     1      -1.229   6.455   1.153  0.00  0.00    +0.219 C 
ATOM     30  O   UNL     1      -0.221   7.115   1.290  0.00  0.00    -0.275 OA
ATOM     31  N   UNL     1      -0.923   2.395   0.899  0.00  0.00    +0.392 N 
ATOM     32  H   UNL     1      -1.137   2.149   1.873  0.00  0.00    -0.079 HD
BRANCH  29  33
ATOM     33  C   UNL     1      -2.513   7.121   0.726  0.00  0.00    +0.075 C 
ATOM     34  C   UNL     1      -2.585   7.667  -0.701  0.00  0.00    +0.013 C 
ATOM     35  C   UNL     1      -2.478   8.631   0.482  0.00  0.00    +0.013 C 
ENDBRANCH  29  33
ENDBRANCH  23  31
ENDBRANCH   4  23
TORSDOF 5
