REMARK  Name = ZINC09253730
REMARK  7 active torsions:
REMARK  status: ('A' for Active; 'I' for Inactive)
REMARK    1  A    between atoms: C_1  and  C_2
REMARK    2  A    between atoms: C_2  and  C_3
REMARK    3  A    between atoms: C_2  and  C_4
REMARK    4  A    between atoms: C_4  and  C_5
REMARK    5  A    between atoms: N_13  and  C_16
REMARK    6  A    between atoms: C_16  and  C_17
REMARK    7  A    between atoms: C_17  and  C_18
REMARK                            x       y       z     vdW  Elec       q    Type
REMARK                         _______ _______ _______ _____ _____    ______ ____
ROOT
ATOM      1  C   UNL     1       2.230  -0.292  -1.091  0.00  0.00    -0.057 C 
ATOM      2  C   UNL     1       2.987  -0.859  -2.311  0.00  0.00    +0.073 C 
ATOM      3  C   UNL     1       4.070   0.207  -2.639  0.00  0.00    +0.088 C 
ATOM      4  C   UNL     1       3.657   0.713  -4.003  0.00  0.00    +0.225 C 
ATOM      5  O   UNL     1       4.242   1.561  -4.642  0.00  0.00    -0.275 OA
ATOM      6  N   UNL     1       2.546   0.080  -4.395  0.00  0.00    -0.241 N 
ATOM      7  C   UNL     1       2.076  -0.837  -3.517  0.00  0.00    +0.224 C 
ATOM      8  O   UNL     1       1.091  -1.528  -3.664  0.00  0.00    -0.275 OA
ATOM      9  C   UNL     1       3.865   1.302  -1.585  0.00  0.00    +0.050 C 
ATOM     10  N   UNL     1       2.455   1.177  -1.148  0.00  0.00    +0.394 N 
ATOM     11  C   UNL     1       4.137   2.668  -2.148  0.00  0.00    -0.025 A 
ATOM     12  C   UNL     1       3.596   3.389  -3.189  0.00  0.00    +0.043 A 
ATOM     13  C   UNL     1       4.069   4.660  -3.472  0.00  0.00    +0.124 A 
ATOM     14  C   UNL     1       5.087   5.202  -2.704  0.00  0.00    +0.040 A 
ATOM     15  C   UNL     1       5.631   4.481  -1.662  0.00  0.00    +0.026 A 
ATOM     16  C   UNL     1       5.160   3.203  -1.371  0.00  0.00    +0.036 A 
ATOM     17  N   UNL     1       5.543   2.292  -0.382  0.00  0.00    -0.286 N 
ATOM     18  C   UNL     1       4.830   1.151  -0.441  0.00  0.00    +0.211 C 
ATOM     19  O   UNL     1       4.944   0.188   0.289  0.00  0.00    -0.277 OA
ATOM     20  F   UNL     1       3.539   5.369  -4.492  0.00  0.00    -0.205 F 
ATOM     21  H   UNL     1       1.830   1.604  -1.815  0.00  0.00    -0.083 HD
ATOM     22  H   UNL     1       6.241   2.462   0.270  0.00  0.00    +0.155 HD
ATOM     23  H   UNL     1       2.334   1.589  -0.234  0.00  0.00    -0.083 HD
ENDROOT
BRANCH   1  24
ATOM     24  C   UNL     1       0.737  -0.607  -1.197  0.00  0.00    -0.012 C 
BRANCH  24  26
ATOM     25  C   UNL     1      -1.496  -0.251  -0.135  0.00  0.00    +0.007 C 
ATOM     26  C   UNL     1       0.012  -0.065   0.037  0.00  0.00    -0.019 C 
ATOM     27  C   UNL     1       0.481  -0.826   1.279  0.00  0.00    +0.007 C 
ENDBRANCH  24  26
ENDBRANCH   1  24
BRANCH   6  28
ATOM     28  C   UNL     1       1.889   0.351  -5.676  0.00  0.00    +0.121 C 
BRANCH  28  29
ATOM     29  C   UNL     1       2.463  -0.575  -6.750  0.00  0.00    +0.054 C 
BRANCH  29  30
ATOM     30  C   UNL     1       1.788  -0.295  -8.068  0.00  0.00    -0.046 A 
ATOM     31  C   UNL     1       0.637  -0.980  -8.414  0.00  0.00    +0.004 A 
ATOM     32  C   UNL     1       0.018  -0.723  -9.623  0.00  0.00    +0.000 A 
ATOM     33  C   UNL     1       0.548   0.218 -10.485  0.00  0.00    +0.000 A 
ATOM     34  C   UNL     1       1.698   0.902 -10.139  0.00  0.00    +0.000 A 
ATOM     35  C   UNL     1       2.315   0.649  -8.928  0.00  0.00    +0.004 A 
ENDBRANCH  29  30
ENDBRANCH  28  29
ENDBRANCH   6  28
TORSDOF 5
