REMARK  Name = ZINC60355081
REMARK  10 active torsions:
REMARK  status: ('A' for Active; 'I' for Inactive)
REMARK    1  A    between atoms: C_1  and  C_2
REMARK    2  A    between atoms: C_5  and  C_7
REMARK    3  A    between atoms: C_7  and  C_9
REMARK    4  A    between atoms: C_7  and  N_28
REMARK    5  A    between atoms: C_9  and  N_10
REMARK    6  A    between atoms: C_11  and  C_13
REMARK    7  A    between atoms: N_16  and  C_21
REMARK    8  A    between atoms: C_17  and  C_18
REMARK    9  A    between atoms: C_18  and  C_19
REMARK   10  A    between atoms: C_18  and  C_20
REMARK                            x       y       z     vdW  Elec       q    Type
REMARK                         _______ _______ _______ _____ _____    ______ ____
ROOT
ATOM      1  N   UNL     1       3.013  -4.391  -1.329  0.00  0.00    -0.312 N 
ATOM      2  C   UNL     1       3.857  -4.802  -2.295  0.00  0.00    +0.247 C 
ATOM      3  O   UNL     1       3.838  -4.267  -3.387  0.00  0.00    -0.270 OA
ATOM      4  H   UNL     1       3.028  -4.818  -0.458  0.00  0.00    +0.149 HD
ENDROOT
BRANCH   2   5
ATOM      5  C   UNL     1       4.804  -5.900  -2.029  0.00  0.00    +0.078 A 
ATOM      6  C   UNL     1       5.024  -6.535  -0.786  0.00  0.00    +0.148 A 
ATOM      7  N   UNL     1       5.934  -7.454  -0.956  0.00  0.00    -0.174 NA
ATOM      8  N   UNL     1       6.335  -7.452  -2.297  0.00  0.00    -0.236 N 
ATOM      9  C   UNL     1       5.638  -6.504  -2.949  0.00  0.00    +0.060 A 
BRANCH   8  10
ATOM     10  C   UNL     1       7.298  -8.298  -2.866  0.00  0.00    +0.066 A 
ATOM     11  C   UNL     1       7.113  -8.798  -4.148  0.00  0.00    +0.029 A 
ATOM     12  C   UNL     1       8.063  -9.631  -4.706  0.00  0.00    +0.022 A 
ATOM     13  C   UNL     1       9.197  -9.969  -3.988  0.00  0.00    +0.041 A 
ATOM     14  C   UNL     1       9.383  -9.472  -2.710  0.00  0.00    +0.022 A 
ATOM     15  C   UNL     1       8.439  -8.633  -2.150  0.00  0.00    +0.029 A 
ATOM     16 CL   UNL     1      10.388 -11.017  -4.692  0.00  0.00    -0.084 Cl
ENDBRANCH   8  10
BRANCH   9  17
ATOM     17  C   UNL     1       5.748  -6.163  -4.413  0.00  0.00    +0.032 C 
ATOM     18  C   UNL     1       4.377  -6.310  -5.075  0.00  0.00    +0.014 C 
ATOM     19  C   UNL     1       6.236  -4.721  -4.565  0.00  0.00    +0.014 C 
ENDBRANCH   9  17
ENDBRANCH   2   5
BRANCH   1  20
ATOM     20  C   UNL     1       2.071  -3.300  -1.593  0.00  0.00    +0.097 C 
BRANCH  20  21
ATOM     21  C   UNL     1       1.321  -2.951  -0.307  0.00  0.00    +0.016 C 
BRANCH  21  26
ATOM     22  C   UNL     1      -2.505  -6.230  -0.076  0.00  0.00    +0.086 C 
ATOM     23  C   UNL     1      -1.192  -5.549   0.213  0.00  0.00    +0.102 A 
ATOM     24  C   UNL     1      -0.288  -5.940   1.129  0.00  0.00    +0.044 A 
ATOM     25  C   UNL     1       0.785  -5.021   1.064  0.00  0.00    +0.043 A 
ATOM     26  C   UNL     1       0.471  -4.123   0.113  0.00  0.00    +0.093 A 
ATOM     27  O   UNL     1      -0.725  -4.451  -0.403  0.00  0.00    -0.466 OA
ENDBRANCH  21  26
BRANCH  21  28
ATOM     28  N   UNL     1       0.461  -1.783  -0.543  0.00  0.00    +0.387 N 
ATOM     29  C   UNL     1      -0.143  -1.325   0.734  0.00  0.00    -0.078 C 
ATOM     30  C   UNL     1      -0.515   0.150   0.441  0.00  0.00    -0.020 C 
ATOM     31  C   UNL     1       0.659   0.634  -0.440  0.00  0.00    -0.020 C 
ATOM     32  C   UNL     1       1.269  -0.647  -1.038  0.00  0.00    -0.078 C 
ATOM     33  H   UNL     1      -0.262  -2.012  -1.209  0.00  0.00    -0.081 HD
ENDBRANCH  21  28
ENDBRANCH  20  21
ENDBRANCH   1  20
TORSDOF 7
