REMARK  Name = ZINC20854673
REMARK  7 active torsions:
REMARK  status: ('A' for Active; 'I' for Inactive)
REMARK    1  A    between atoms: C_1  and  C_2
REMARK    2  A    between atoms: N_4  and  S_5
REMARK    3  A    between atoms: S_5  and  C_8
REMARK    4  A    between atoms: C_11  and  N_14
REMARK    5  A    between atoms: C_15  and  C_17
REMARK    6  A    between atoms: C_21  and  N_23
REMARK    7  A    between atoms: C_30  and  C_38
REMARK                            x       y       z     vdW  Elec       q    Type
REMARK                         _______ _______ _______ _____ _____    ______ ____
ROOT
ATOM      1  C   UNL     1       1.256  -4.476   7.542  0.00  0.00    +0.039 A 
ATOM      2  C   UNL     1       2.627  -4.730   7.618  0.00  0.00    +0.013 A 
ATOM      3  C   UNL     1       3.192  -5.112   8.817  0.00  0.00    +0.003 A 
ATOM      4  C   UNL     1       2.405  -5.247   9.946  0.00  0.00    +0.024 A 
ATOM      5  C   UNL     1       1.040  -4.996   9.880  0.00  0.00    +0.042 A 
ATOM      6  C   UNL     1       0.463  -4.605   8.682  0.00  0.00    +0.036 A 
ENDROOT
BRANCH   5   7
ATOM      7  N   UNL     1       0.247  -5.134  11.026  0.00  0.00    -0.216 N 
ATOM      8  C   UNL     1       0.405  -4.262  12.034  0.00  0.00    +0.310 C 
ATOM      9  O   UNL     1       1.282  -3.424  11.952  0.00  0.00    -0.252 OA
ATOM     10  N   UNL     1      -0.373  -4.281  13.130  0.00  0.00    -0.292 N 
ATOM     11  C   UNL     1      -1.490  -5.236  13.216  0.00  0.00    +0.114 C 
ATOM     12  C   UNL     1      -1.025  -6.553  12.575  0.00  0.00    +0.096 C 
ATOM     13  C   UNL     1      -0.729  -6.218  11.085  0.00  0.00    +0.185 C 
ATOM     14  O   UNL     1      -1.941  -5.846  10.437  0.00  0.00    -0.468 OA
ATOM     15  C   UNL     1      -2.786  -4.993  11.070  0.00  0.00    +0.128 A 
ATOM     16  C   UNL     1      -2.631  -4.669  12.402  0.00  0.00    +0.015 A 
ATOM     17  C   UNL     1      -3.524  -3.805  13.009  0.00  0.00    +0.009 A 
ATOM     18  C   UNL     1      -4.572  -3.268  12.286  0.00  0.00    +0.001 A 
ATOM     19  C   UNL     1      -4.729  -3.595  10.952  0.00  0.00    +0.004 A 
ATOM     20  C   UNL     1      -3.840  -4.442  10.348  0.00  0.00    +0.046 A 
ATOM     21  C   UNL     1      -0.153  -7.458  10.398  0.00  0.00    +0.079 C 
ATOM     22  H   UNL     1      -0.198  -3.668  13.861  0.00  0.00    +0.151 HD
ENDBRANCH   5   7
BRANCH   1  24
ATOM     23  N   UNL     1       1.416  -3.941   5.158  0.00  0.00    -0.282 N 
ATOM     24  C   UNL     1       0.648  -4.066   6.258  0.00  0.00    +0.248 C 
ATOM     25  O   UNL     1      -0.545  -3.840   6.196  0.00  0.00    -0.270 OA
ATOM     26  H   UNL     1       2.352  -4.193   5.189  0.00  0.00    +0.155 HD
BRANCH  23  30
ATOM     27  C   UNL     1      -0.230  -2.477   1.623  0.00  0.00    +0.109 A 
ATOM     28  C   UNL     1      -0.690  -2.014   2.842  0.00  0.00    +0.030 A 
ATOM     29  C   UNL     1      -0.147  -2.497   4.016  0.00  0.00    +0.025 A 
ATOM     30  C   UNL     1       0.863  -3.450   3.971  0.00  0.00    +0.034 A 
ATOM     31  C   UNL     1       1.323  -3.913   2.745  0.00  0.00    +0.025 A 
ATOM     32  C   UNL     1       0.771  -3.430   1.575  0.00  0.00    +0.030 A 
BRANCH  27  33
ATOM     33  S   UNL     1      -0.927  -1.857   0.128  0.00  0.00    +0.074 S 
ATOM     34  O   UNL     1       0.049  -2.053  -0.887  0.00  0.00    -0.150 OA
ATOM     35  O   UNL     1      -1.465  -0.577   0.430  0.00  0.00    -0.150 OA
BRANCH  33  39
ATOM     36  C   UNL     1      -4.457  -3.760   0.201  0.00  0.00    +0.111 C 
ATOM     37  C   UNL     1      -3.289  -2.873   0.550  0.00  0.00    +0.229 C 
ATOM     38  O   UNL     1      -3.321  -2.196   1.556  0.00  0.00    -0.275 OA
ATOM     39  N   UNL     1      -2.210  -2.832  -0.256  0.00  0.00    -0.186 N 
ATOM     40  H   UNL     1      -2.184  -3.373  -1.060  0.00  0.00    +0.177 HD
ENDBRANCH  33  39
ENDBRANCH  27  33
ENDBRANCH  23  30
ENDBRANCH   1  24
TORSDOF 5
