REMARK  Name = ZINC02106319
REMARK  10 active torsions:
REMARK  status: ('A' for Active; 'I' for Inactive)
REMARK    1  A    between atoms: C_1  and  C_2
REMARK    2  A    between atoms: C_2  and  C_4
REMARK    3  A    between atoms: C_2  and  N_12
REMARK    4  A    between atoms: C_4  and  C_5
REMARK    5  A    between atoms: C_5  and  C_6
REMARK    6  A    between atoms: C_32  and  C_34
REMARK    7  A    between atoms: C_36  and  O_42
REMARK    8  A    between atoms: C_39  and  O_40
REMARK    9  A    between atoms: O_40  and  C_41
REMARK   10  A    between atoms: O_42  and  C_43
REMARK                            x       y       z     vdW  Elec       q    Type
REMARK                         _______ _______ _______ _____ _____    ______ ____
ROOT
ATOM      1  N   UNL     1       6.516  -1.079  -0.495  0.00  0.00    -0.288 N 
ATOM      2  C   UNL     1       6.715   0.132  -1.275  0.00  0.00    +0.204 C 
ATOM      3  C   UNL     1       7.855   0.949  -0.760  0.00  0.00    +0.234 C 
ATOM      4  O   UNL     1       8.129   1.973  -1.351  0.00  0.00    -0.274 OA
ATOM      5  N   UNL     1       8.592   0.629   0.305  0.00  0.00    -0.276 N 
ATOM      6  C   UNL     1       8.319  -0.534   1.147  0.00  0.00    +0.167 C 
ATOM      7  C   UNL     1       7.225  -1.387   0.589  0.00  0.00    +0.237 C 
ATOM      8  O   UNL     1       6.969  -2.427   1.158  0.00  0.00    -0.274 OA
ATOM      9  C   UNL     1       7.929  -0.059   2.553  0.00  0.00    +0.069 C 
ATOM     10  C   UNL     1       8.890   1.019   2.986  0.00  0.00    -0.015 A 
ATOM     11  C   UNL     1       9.134   1.519   4.324  0.00  0.00    +0.003 A 
ATOM     12  C   UNL     1       8.599   1.187   5.573  0.00  0.00    +0.010 A 
ATOM     13  C   UNL     1       9.074   1.884   6.656  0.00  0.00    +0.001 A 
ATOM     14  C   UNL     1      10.036   2.872   6.532  0.00  0.00    +0.002 A 
ATOM     15  C   UNL     1      10.584   3.220   5.309  0.00  0.00    +0.026 A 
ATOM     16  C   UNL     1      10.121   2.529   4.191  0.00  0.00    +0.047 A 
ATOM     17  N   UNL     1      10.437   2.616   2.866  0.00  0.00    -0.356 N 
ATOM     18  H   UNL     1      11.088   3.227   2.486  0.00  0.00    +0.166 HD
ATOM     19  C   UNL     1       9.697   1.710   2.153  0.00  0.00    +0.046 A 
ATOM     20  C   UNL     1       9.748   1.481   0.660  0.00  0.00    +0.158 C 
ENDROOT
BRANCH  20  21
ATOM     21  C   UNL     1      11.031   0.783   0.291  0.00  0.00    +0.024 A 
ATOM     22  C   UNL     1      11.799   0.185   1.273  0.00  0.00    +0.055 A 
ATOM     23  C   UNL     1      12.978  -0.461   0.933  0.00  0.00    +0.121 A 
ATOM     24  C   UNL     1      13.392  -0.499  -0.390  0.00  0.00    +0.049 A 
ATOM     25  C   UNL     1      12.627   0.103  -1.370  0.00  0.00    +0.049 A 
ATOM     26  C   UNL     1      11.445   0.745  -1.032  0.00  0.00    +0.126 A 
BRANCH  26  27
ATOM     27  O   UNL     1      10.693   1.337  -1.997  0.00  0.00    -0.495 OA
ATOM     28  C   UNL     1      11.180   1.260  -3.338  0.00  0.00    +0.277 C 
ENDBRANCH  26  27
BRANCH  23  29
ATOM     29  O   UNL     1      13.731  -1.053   1.899  0.00  0.00    -0.495 OA
ATOM     30  C   UNL     1      14.935  -1.696   1.478  0.00  0.00    +0.277 C 
ENDBRANCH  23  29
ENDBRANCH  20  21
BRANCH   1  32
ATOM     31  C   UNL     1       5.774  -2.499  -2.343  0.00  0.00    +0.028 C 
ATOM     32  C   UNL     1       5.471  -2.012  -0.924  0.00  0.00    +0.074 C 
BRANCH  32  33
ATOM     33  C   UNL     1       4.116  -1.302  -0.907  0.00  0.00    +0.027 C 
BRANCH  33  34
ATOM     34  C   UNL     1       3.756  -0.925   0.531  0.00  0.00    +0.037 C 
BRANCH  34  35
ATOM     35  C   UNL     1       2.420  -0.227   0.548  0.00  0.00    -0.047 A 
ATOM     36  C   UNL     1       1.258  -0.961   0.695  0.00  0.00    +0.003 A 
ATOM     37  C   UNL     1       0.033  -0.320   0.711  0.00  0.00    +0.000 A 
ATOM     38  C   UNL     1      -0.029   1.055   0.580  0.00  0.00    +0.000 A 
ATOM     39  C   UNL     1       1.133   1.789   0.433  0.00  0.00    +0.000 A 
ATOM     40  C   UNL     1       2.358   1.148   0.417  0.00  0.00    +0.003 A 
ENDBRANCH  34  35
ENDBRANCH  33  34
ENDBRANCH  32  33
ENDBRANCH   1  32
TORSDOF 7
