REMARK  Name = ZINC36313898
REMARK  18 active torsions:
REMARK  status: ('A' for Active; 'I' for Inactive)
REMARK    1  A    between atoms: C_1  and  C_2
REMARK    2  A    between atoms: C_2  and  C_3
REMARK    3  A    between atoms: C_3  and  C_4
REMARK    4  A    between atoms: C_4  and  O_5
REMARK    5  A    between atoms: O_5  and  C_6
REMARK    6  A    between atoms: C_6  and  C_7
REMARK    7  A    between atoms: C_7  and  C_9
REMARK    8  A    between atoms: C_7  and  O_36
REMARK    9  A    between atoms: C_9  and  N_10
REMARK   10  A    between atoms: N_10  and  C_11
REMARK   11  A    between atoms: N_10  and  C_14
REMARK   12  A    between atoms: C_11  and  C_12
REMARK   13  A    between atoms: C_12  and  C_13
REMARK   14  A    between atoms: C_14  and  C_15
REMARK   15  A    between atoms: C_16  and  C_35
REMARK   16  A    between atoms: N_18  and  C_29
REMARK   17  A    between atoms: C_19  and  O_20
REMARK   18  A    between atoms: O_20  and  C_21
REMARK                            x       y       z     vdW  Elec       q    Type
REMARK                         _______ _______ _______ _____ _____    ______ ____
ROOT
ATOM      1  C   UNL     1      -5.897  -8.057   2.037  0.00  0.00    +0.021 A 
ATOM      2  C   UNL     1      -4.540  -8.393   2.024  0.00  0.00    +0.065 A 
ATOM      3  N   UNL     1      -4.095  -8.368   3.254  0.00  0.00    -0.168 NA
ATOM      4  N   UNL     1      -5.154  -8.013   4.100  0.00  0.00    -0.200 N 
ATOM      5  C   UNL     1      -6.256  -7.820   3.327  0.00  0.00    +0.225 A 
ATOM      6  C   UNL     1      -3.728  -8.729   0.800  0.00  0.00    +0.068 C 
ENDROOT
BRANCH   4   7
ATOM      7  C   UNL     1      -5.087  -7.877   5.493  0.00  0.00    +0.069 A 
ATOM      8  C   UNL     1      -5.770  -6.846   6.125  0.00  0.00    +0.028 A 
ATOM      9  C   UNL     1      -5.703  -6.714   7.498  0.00  0.00    +0.002 A 
ATOM     10  C   UNL     1      -4.957  -7.608   8.244  0.00  0.00    +0.000 A 
ATOM     11  C   UNL     1      -4.276  -8.636   7.618  0.00  0.00    +0.002 A 
ATOM     12  C   UNL     1      -4.343  -8.776   6.246  0.00  0.00    +0.028 A 
ENDBRANCH   4   7
BRANCH   1  13
ATOM     13  C   UNL     1      -6.801  -7.966   0.834  0.00  0.00    -0.036 C 
BRANCH  13  14
ATOM     14  N   UNL     1      -6.901  -6.566   0.402  0.00  0.00    +0.384 N 
ATOM     15  H   UNL     1      -7.186  -5.992   1.182  0.00  0.00    -0.081 HD
BRANCH  14  16
ATOM     16  C   UNL     1      -5.594  -6.110  -0.089  0.00  0.00    -0.044 C 
BRANCH  16  17
ATOM     17  C   UNL     1      -5.652  -4.608  -0.378  0.00  0.00    +0.124 C 
BRANCH  17  18
ATOM     18  O   UNL     1      -6.524  -4.370  -1.485  0.00  0.00    -0.391 OA
ATOM     19  H   UNL     1      -6.249  -4.807  -2.303  0.00  0.00    +0.210 HD
ENDBRANCH  17  18
BRANCH  17  20
ATOM     20  C   UNL     1      -4.250  -4.098  -0.713  0.00  0.00    +0.189 C 
BRANCH  20  21
ATOM     21  O   UNL     1      -4.284  -2.678  -0.868  0.00  0.00    -0.377 OA
BRANCH  21  22
ATOM     22  C   UNL     1      -3.017  -2.097  -1.185  0.00  0.00    +0.160 C 
BRANCH  22  23
ATOM     23  C   UNL     1      -3.172  -0.582  -1.327  0.00  0.00    +0.028 C 
BRANCH  23  25
ATOM     24  C   UNL     1      -1.970   1.555  -1.808  0.00  0.00    +0.004 C 
ATOM     25  C   UNL     1      -1.816   0.040  -1.666  0.00  0.00    -0.001 C 
ENDBRANCH  23  25
ENDBRANCH  22  23
ENDBRANCH  21  22
ENDBRANCH  20  21
ENDBRANCH  17  20
ENDBRANCH  16  17
ENDBRANCH  14  16
BRANCH  14  26
ATOM     26  C   UNL     1      -7.894  -6.456  -0.675  0.00  0.00    -0.079 C 
BRANCH  26  27
ATOM     27  C   UNL     1      -7.391  -7.205  -1.911  0.00  0.00    -0.022 C 
ATOM     28  C   UNL     1      -8.410  -7.061  -3.043  0.00  0.00    +0.002 C 
ENDBRANCH  26  27
ENDBRANCH  14  26
ENDBRANCH  13  14
ENDBRANCH   1  13
BRANCH   5  29
ATOM     29  O   UNL     1      -7.489  -7.459   3.764  0.00  0.00    -0.435 OA
BRANCH  29  30
ATOM     30  C   UNL     1      -8.334  -8.443   4.175  0.00  0.00    +0.166 A 
ATOM     31  C   UNL     1      -7.891  -9.755   4.242  0.00  0.00    +0.052 A 
ATOM     32  C   UNL     1      -8.750 -10.753   4.660  0.00  0.00    +0.042 A 
ATOM     33  C   UNL     1     -10.053 -10.445   5.012  0.00  0.00    +0.126 A 
ATOM     34  C   UNL     1     -10.499  -9.136   4.945  0.00  0.00    +0.080 A 
ATOM     35  C   UNL     1      -9.640  -8.133   4.533  0.00  0.00    +0.168 A 
ATOM     36  F   UNL     1     -10.072  -6.854   4.473  0.00  0.00    -0.202 F 
ATOM     37  F   UNL     1     -10.891 -11.423   5.420  0.00  0.00    -0.205 F 
ENDBRANCH  29  30
ENDBRANCH   5  29
TORSDOF 15
