REMARK  Name = ZINC24892408
REMARK  12 active torsions:
REMARK  status: ('A' for Active; 'I' for Inactive)
REMARK    1  A    between atoms: C_1  and  C_2
REMARK    2  A    between atoms: C_2  and  C_4
REMARK    3  A    between atoms: C_2  and  N_10
REMARK    4  A    between atoms: C_4  and  C_5
REMARK    5  A    between atoms: N_10  and  C_11
REMARK    6  A    between atoms: N_10  and  C_20
REMARK    7  A    between atoms: C_11  and  C_12
REMARK    8  A    between atoms: C_15  and  O_18
REMARK    9  A    between atoms: O_18  and  C_19
REMARK   10  A    between atoms: C_20  and  C_21
REMARK   11  A    between atoms: N_26  and  C_27
REMARK   12  A    between atoms: C_27  and  C_28
REMARK                            x       y       z     vdW  Elec       q    Type
REMARK                         _______ _______ _______ _____ _____    ______ ____
ROOT
ATOM      1  N   UNL     1       1.875   1.698  -0.174  0.00  0.00    +0.390 N 
ATOM      2  H   UNL     1       2.119   1.552  -1.237  0.00  0.00    -0.080 HD
ENDROOT
BRANCH   1   4
ATOM      3  C   UNL     1      -0.048   1.696   1.342  0.00  0.00    -0.013 C 
ATOM      4  C   UNL     1       0.559   1.094   0.073  0.00  0.00    -0.066 C 
BRANCH   4   5
ATOM      5  C   UNL     1      -0.362   1.373  -1.116  0.00  0.00    +0.027 C 
BRANCH   5   6
ATOM      6  C   UNL     1       0.197   0.714  -2.350  0.00  0.00    -0.012 A 
ATOM      7  C   UNL     1      -0.034  -0.532  -2.831  0.00  0.00    +0.011 A 
ATOM      8  C   UNL     1       0.595  -0.929  -3.996  0.00  0.00    +0.008 A 
ATOM      9  C   UNL     1       1.424  -0.059  -4.624  0.00  0.00    +0.045 A 
ATOM     10  S   UNL     1       1.328   1.374  -3.563  0.00  0.00    -0.102 S 
ENDBRANCH   5   6
ENDBRANCH   4   5
ENDBRANCH   1   4
BRANCH   1  11
ATOM     11  C   UNL     1       1.850   3.142   0.090  0.00  0.00    -0.042 C 
BRANCH  11  12
ATOM     12  C   UNL     1       1.222   3.856  -1.080  0.00  0.00    -0.064 A 
ATOM     13  C   UNL     1       1.977   4.133  -2.204  0.00  0.00    +0.005 A 
ATOM     14  C   UNL     1       1.403   4.782  -3.280  0.00  0.00    +0.046 A 
ATOM     15  C   UNL     1       0.071   5.166  -3.227  0.00  0.00    +0.120 A 
ATOM     16  C   UNL     1      -0.683   4.891  -2.095  0.00  0.00    +0.046 A 
ATOM     17  C   UNL     1      -0.105   4.237  -1.024  0.00  0.00    +0.005 A 
BRANCH  15  18
ATOM     18  O   UNL     1      -0.495   5.809  -4.282  0.00  0.00    -0.495 OA
ATOM     19  C   UNL     1       0.340   6.058  -5.414  0.00  0.00    +0.277 C 
ENDBRANCH  15  18
ENDBRANCH  11  12
ENDBRANCH   1  11
BRANCH   1  20
ATOM     20  C   UNL     1       2.917   1.035   0.622  0.00  0.00    +0.020 C 
BRANCH  20  21
ATOM     21  C   UNL     1       3.081  -0.387   0.152  0.00  0.00    +0.204 C 
ATOM     22  O   UNL     1       2.398  -0.807  -0.757  0.00  0.00    -0.277 OA
ATOM     23  N   UNL     1       3.987  -1.192   0.742  0.00  0.00    -0.242 N 
ATOM     24  C   UNL     1       4.133  -2.464   0.321  0.00  0.00    +0.306 C 
ATOM     25  O   UNL     1       3.448  -2.885  -0.591  0.00  0.00    -0.252 OA
ATOM     26  N   UNL     1       5.039  -3.269   0.910  0.00  0.00    -0.292 N 
ATOM     27  H   UNL     1       4.607  -0.811   1.566  0.00  0.00    +0.159 HD
ATOM     28  H   UNL     1       5.659  -2.887   1.735  0.00  0.00    +0.151 HD
BRANCH  26  29
ATOM     29  C   UNL     1       5.199  -4.651   0.453  0.00  0.00    +0.180 C 
BRANCH  29  30
ATOM     30  C   UNL     1       6.267  -5.331   1.270  0.00  0.00    +0.122 A 
ATOM     31  C   UNL     1       6.069  -6.010   2.414  0.00  0.00    +0.046 A 
ATOM     32  C   UNL     1       7.335  -6.477   2.837  0.00  0.00    +0.041 A 
ATOM     33  C   UNL     1       8.231  -6.055   1.927  0.00  0.00    +0.195 A 
ATOM     34  O   UNL     1       7.577  -5.366   0.976  0.00  0.00    -0.466 OA
ENDBRANCH  29  30
ENDBRANCH  26  29
ENDBRANCH  20  21
ENDBRANCH   1  20
TORSDOF 10
