REMARK  Name = ZINC36050212
REMARK  10 active torsions:
REMARK  status: ('A' for Active; 'I' for Inactive)
REMARK    1  A    between atoms: C_1  and  C_2
REMARK    2  A    between atoms: C_2  and  O_3
REMARK    3  A    between atoms: O_3  and  C_4
REMARK    4  A    between atoms: C_4  and  C_6
REMARK    5  A    between atoms: C_7  and  C_36
REMARK    6  A    between atoms: C_11  and  C_13
REMARK    7  A    between atoms: C_16  and  C_19
REMARK    8  A    between atoms: C_23  and  C_26
REMARK    9  A    between atoms: C_27  and  N_29
REMARK   10  A    between atoms: N_32  and  C_35
REMARK                            x       y       z     vdW  Elec       q    Type
REMARK                         _______ _______ _______ _____ _____    ______ ____
ROOT
ATOM      1  C   UNL     1       1.181  -2.099   2.326  0.00  0.00    +0.082 C 
ATOM      2  C   UNL     1       0.950  -3.418   2.666  0.00  0.00    +0.053 C 
ATOM      3  N   UNL     1       1.446  -3.918   3.786  0.00  0.00    -0.230 NA
ATOM      4  C   UNL     1       2.176  -3.245   4.651  0.00  0.00    +0.166 C 
ATOM      5  N   UNL     1       2.518  -1.930   4.501  0.00  0.00    -0.267 N 
ATOM      6  C   UNL     1       2.018  -1.264   3.269  0.00  0.00    +0.150 C 
ATOM      7  C   UNL     1       3.290  -1.365   5.496  0.00  0.00    +0.048 C 
ATOM      8  C   UNL     1       3.646  -2.151   6.536  0.00  0.00    +0.072 C 
ATOM      9  S   UNL     1       2.882  -3.702   6.104  0.00  0.00    -0.060 S 
ATOM     10  C   UNL     1       0.127  -4.293   1.756  0.00  0.00    +0.066 C 
ENDROOT
BRANCH   6  11
ATOM     11  C   UNL     1       3.206  -0.746   2.501  0.00  0.00    -0.022 A 
ATOM     12  C   UNL     1       4.240  -1.601   2.168  0.00  0.00    +0.006 A 
ATOM     13  C   UNL     1       5.330  -1.126   1.463  0.00  0.00    +0.013 A 
ATOM     14  C   UNL     1       5.386   0.204   1.090  0.00  0.00    +0.055 A 
ATOM     15  C   UNL     1       4.351   1.058   1.421  0.00  0.00    +0.013 A 
ATOM     16  C   UNL     1       3.259   0.583   2.123  0.00  0.00    +0.006 A 
BRANCH  14  17
ATOM     17  C   UNL     1       6.575   0.722   0.322  0.00  0.00    +0.417 C 
ATOM     18  F   UNL     1       6.338   0.589  -1.050  0.00  0.00    -0.166 F 
ATOM     19  F   UNL     1       6.778   2.071   0.632  0.00  0.00    -0.166 F 
ATOM     20  F   UNL     1       7.712  -0.014   0.672  0.00  0.00    -0.166 F 
ENDBRANCH  14  17
ENDBRANCH   6  11
BRANCH   7  21
ATOM     21  C   UNL     1       3.711   0.042   5.427  0.00  0.00    +0.091 C 
ATOM     22  C   UNL     1       4.354   0.604   6.468  0.00  0.00    +0.241 C 
ATOM     23  O   UNL     1       4.715  -0.154   7.532  0.00  0.00    -0.271 OA
BRANCH  22  24
ATOM     24  N   UNL     1       4.645   1.958   6.452  0.00  0.00    -0.302 N 
ATOM     25  C   UNL     1       3.760   2.914   5.769  0.00  0.00    +0.089 C 
ATOM     26  C   UNL     1       3.446   4.061   6.735  0.00  0.00    -0.060 C 
ATOM     27  N   UNL     1       4.700   4.642   7.229  0.00  0.00    +0.380 N 
ATOM     28  C   UNL     1       5.434   3.648   8.022  0.00  0.00    -0.060 C 
ATOM     29  C   UNL     1       5.845   2.481   7.124  0.00  0.00    +0.089 C 
ATOM     30  C   UNL     1       4.400   5.810   8.068  0.00  0.00    -0.096 C 
ATOM     31  H   UNL     1       5.267   4.931   6.445  0.00  0.00    -0.082 HD
ENDBRANCH  22  24
ENDBRANCH   7  21
BRANCH   1  32
ATOM     32  C   UNL     1       0.663  -1.556   1.144  0.00  0.00    +0.339 C 
ATOM     33  O   UNL     1       0.106  -2.277   0.335  0.00  0.00    -0.245 OA
BRANCH  32  34
ATOM     34  O   UNL     1       0.780  -0.232   0.901  0.00  0.00    -0.462 OA
BRANCH  34  36
ATOM     35  C   UNL     1       0.455   1.764  -0.422  0.00  0.00    +0.048 C 
ATOM     36  C   UNL     1       0.228   0.254  -0.324  0.00  0.00    +0.229 C 
ENDBRANCH  34  36
ENDBRANCH  32  34
ENDBRANCH   1  32
TORSDOF 7
