REMARK  Name = ZINC11868170
REMARK  10 active torsions:
REMARK  status: ('A' for Active; 'I' for Inactive)
REMARK    1  A    between atoms: C_2  and  C_3
REMARK    2  A    between atoms: C_3  and  C_4
REMARK    3  A    between atoms: C_4  and  C_5
REMARK    4  A    between atoms: N_7  and  C_8
REMARK    5  A    between atoms: N_7  and  C_17
REMARK    6  A    between atoms: C_8  and  C_9
REMARK    7  A    between atoms: C_9  and  C_10
REMARK    8  A    between atoms: C_17  and  C_18
REMARK    9  A    between atoms: C_26  and  N_27
REMARK   10  A    between atoms: C_30  and  O_33
REMARK                            x       y       z     vdW  Elec       q    Type
REMARK                         _______ _______ _______ _____ _____    ______ ____
ROOT
ATOM      1  C   UNL     1      -3.117   1.547  -1.415  0.00  0.00    +0.008 A 
ATOM      2  C   UNL     1      -3.075   2.662  -0.633  0.00  0.00    +0.018 A 
ATOM      3  C   UNL     1      -4.292   3.185  -0.149  0.00  0.00    -0.001 A 
ATOM      4  C   UNL     1      -4.321   4.331   0.660  0.00  0.00    +0.011 A 
ATOM      5  C   UNL     1      -5.514   4.808   1.111  0.00  0.00    +0.021 A 
ATOM      6  C   UNL     1      -6.709   4.172   0.778  0.00  0.00    +0.043 A 
ATOM      7  C   UNL     1      -6.717   3.057  -0.005  0.00  0.00    +0.046 A 
ATOM      8  C   UNL     1      -5.504   2.536  -0.488  0.00  0.00    +0.049 A 
ATOM      9  C   UNL     1      -4.350   0.954  -1.720  0.00  0.00    +0.104 A 
ATOM     10 CL   UNL     1      -8.211   4.810   1.372  0.00  0.00    -0.083 Cl
ATOM     11  N   UNL     1      -5.549   1.409  -1.278  0.00  0.00    -0.343 N 
ATOM     12  H   UNL     1      -6.433   0.942  -1.516  0.00  0.00    +0.167 HD
ENDROOT
BRANCH   9  13
ATOM     13  N   UNL     1      -4.378  -0.178  -2.521  0.00  0.00    -0.316 N 
ATOM     14  C   UNL     1      -4.327  -1.400  -1.708  0.00  0.00    +0.109 C 
ATOM     15  C   UNL     1      -4.212  -2.620  -2.624  0.00  0.00    +0.050 C 
ATOM     16  C   UNL     1      -5.419  -2.661  -3.565  0.00  0.00    +0.118 C 
ATOM     17  C   UNL     1      -5.476  -1.357  -4.366  0.00  0.00    +0.050 C 
ATOM     18  C   UNL     1      -5.554  -0.173  -3.399  0.00  0.00    +0.109 C 
BRANCH  16  19
ATOM     19  O   UNL     1      -5.288  -3.767  -4.461  0.00  0.00    -0.392 OA
ATOM     20  H   UNL     1      -5.323  -4.630  -4.028  0.00  0.00    +0.210 HD
ENDBRANCH  16  19
ENDBRANCH   9  13
BRANCH   1  21
ATOM     21  C   UNL     1      -1.841   0.955  -1.954  0.00  0.00    +0.146 C 
BRANCH  21  24
ATOM     22  C   UNL     1      -0.263   2.812  -1.951  0.00  0.00    +0.216 C 
ATOM     23  O   UNL     1       0.628   3.448  -1.430  0.00  0.00    -0.276 OA
ATOM     24  N   UNL     1      -0.694   1.667  -1.385  0.00  0.00    -0.297 N 
BRANCH  22  25
ATOM     25  C   UNL     1      -0.890   3.302  -3.231  0.00  0.00    +0.100 C 
BRANCH  25  26
ATOM     26  C   UNL     1      -0.142   4.543  -3.722  0.00  0.00    +0.036 C 
BRANCH  26  28
ATOM     27  C   UNL     1      -1.134   6.183  -5.235  0.00  0.00    +0.004 C 
ATOM     28  C   UNL     1      -0.690   4.962  -5.062  0.00  0.00    -0.034 C 
ENDBRANCH  26  28
ENDBRANCH  25  26
ENDBRANCH  22  25
BRANCH  24  29
ATOM     29  C   UNL     1      -0.014   1.134  -0.201  0.00  0.00    +0.113 C 
BRANCH  29  30
ATOM     30  C   UNL     1      -0.667   1.702   1.060  0.00  0.00    +0.054 C 
BRANCH  30  31
ATOM     31  C   UNL     1       0.032   1.154   2.278  0.00  0.00    -0.046 A 
ATOM     32  C   UNL     1      -0.414  -0.017   2.861  0.00  0.00    +0.006 A 
ATOM     33  C   UNL     1       0.229  -0.523   3.975  0.00  0.00    +0.038 A 
ATOM     34  C   UNL     1       1.313   0.149   4.513  0.00  0.00    +0.123 A 
ATOM     35  C   UNL     1       1.755   1.325   3.931  0.00  0.00    +0.038 A 
ATOM     36  C   UNL     1       1.114   1.827   2.814  0.00  0.00    +0.006 A 
ATOM     37  F   UNL     1       1.940  -0.342   5.604  0.00  0.00    -0.205 F 
ENDBRANCH  30  31
ENDBRANCH  29  30
ENDBRANCH  24  29
ENDBRANCH  21  24
ENDBRANCH   1  21
TORSDOF 10
