REMARK  Name = ZINC14955026
REMARK  6 active torsions:
REMARK  status: ('A' for Active; 'I' for Inactive)
REMARK    1  A    between atoms: C_4  and  C_7
REMARK    2  A    between atoms: C_7  and  N_8
REMARK    3  A    between atoms: C_19  and  N_23
REMARK    4  A    between atoms: N_23  and  C_24
REMARK    5  A    between atoms: N_27  and  C_30
REMARK    6  A    between atoms: C_30  and  C_31
REMARK                            x       y       z     vdW  Elec       q    Type
REMARK                         _______ _______ _______ _____ _____    ______ ____
ROOT
ATOM      1  N   UNL     1       4.152  -0.952   1.338  0.00  0.00    -0.294 N 
ATOM      2  C   UNL     1       4.925  -0.028   1.963  0.00  0.00    +0.203 A 
ATOM      3  N   UNL     1       5.338  -0.210   3.189  0.00  0.00    -0.230 NA
ATOM      4  C   UNL     1       5.013  -1.309   3.864  0.00  0.00    +0.116 A 
ATOM      5  C   UNL     1       4.218  -2.320   3.302  0.00  0.00    +0.076 A 
ATOM      6  C   UNL     1       3.777  -2.087   1.958  0.00  0.00    +0.263 A 
ATOM      7  O   UNL     1       3.079  -2.905   1.384  0.00  0.00    -0.267 OA
ATOM      8  C   UNL     1       3.943  -3.470   4.161  0.00  0.00    -0.023 A 
ATOM      9  C   UNL     1       4.475  -3.449   5.402  0.00  0.00    -0.003 A 
ATOM     10  S   UNL     1       5.361  -1.917   5.495  0.00  0.00    -0.073 S 
ATOM     11  C   UNL     1       4.341  -4.497   6.464  0.00  0.00    +0.061 C 
ATOM     12  C   UNL     1       3.198  -5.443   6.071  0.00  0.00    +0.059 C 
ATOM     13  C   UNL     1       3.378  -5.849   4.605  0.00  0.00    +0.024 C 
ATOM     14  C   UNL     1       3.096  -4.652   3.697  0.00  0.00    +0.038 C 
ENDROOT
BRANCH  12  15
ATOM     15  N   UNL     1       3.233  -6.639   6.924  0.00  0.00    -0.310 NA
ATOM     16  H   UNL     1       2.857  -7.440   6.439  0.00  0.00    +0.122 HD
BRANCH  15  17
ATOM     17  C   UNL     1       2.519  -6.405   8.187  0.00  0.00    +0.050 C 
ATOM     18  C   UNL     1       1.026  -6.682   7.989  0.00  0.00    -0.000 C 
ATOM     19  C   UNL     1       0.300  -6.514   9.326  0.00  0.00    -0.077 C 
ATOM     20  N   UNL     1       0.849  -7.459  10.307  0.00  0.00    +0.382 N 
ATOM     21  C   UNL     1       2.264  -7.154  10.554  0.00  0.00    -0.077 C 
ATOM     22  C   UNL     1       3.064  -7.346   9.265  0.00  0.00    -0.000 C 
ATOM     23  H   UNL     1       0.766  -8.399   9.949  0.00  0.00    -0.081 HD
BRANCH  20  24
ATOM     24  C   UNL     1       0.098  -7.348  11.564  0.00  0.00    -0.043 C 
BRANCH  24  25
ATOM     25  C   UNL     1       0.579  -8.400  12.530  0.00  0.00    -0.064 A 
ATOM     26  C   UNL     1      -0.018  -9.647  12.546  0.00  0.00    +0.002 A 
ATOM     27  C   UNL     1       0.423 -10.613  13.432  0.00  0.00    +0.000 A 
ATOM     28  C   UNL     1       1.460 -10.331  14.302  0.00  0.00    +0.000 A 
ATOM     29  C   UNL     1       2.057  -9.085  14.285  0.00  0.00    +0.000 A 
ATOM     30  C   UNL     1       1.619  -8.121  13.396  0.00  0.00    +0.002 A 
ENDBRANCH  24  25
ENDBRANCH  20  24
ENDBRANCH  15  17
ENDBRANCH  12  15
BRANCH   1  31
ATOM     31  C   UNL     1       3.711  -0.707  -0.038  0.00  0.00    +0.161 C 
BRANCH  31  35
ATOM     32  C   UNL     1      -0.017   1.378   0.010  0.00  0.00    +0.000 A 
ATOM     33  C   UNL     1       1.171   2.086   0.002  0.00  0.00    +0.000 A 
ATOM     34  C   UNL     1       2.377   1.411  -0.013  0.00  0.00    +0.005 A 
ATOM     35  C   UNL     1       2.396   0.029  -0.020  0.00  0.00    -0.028 A 
ATOM     36  C   UNL     1       1.208  -0.679  -0.012  0.00  0.00    +0.005 A 
ATOM     37  C   UNL     1       0.002  -0.004   0.002  0.00  0.00    +0.000 A 
ENDBRANCH  31  35
ENDBRANCH   1  31
TORSDOF 6
