REMARK  Name = ZINC06408876
REMARK  8 active torsions:
REMARK  status: ('A' for Active; 'I' for Inactive)
REMARK    1  A    between atoms: C_1  and  C_2
REMARK    2  A    between atoms: C_9  and  C_14
REMARK    3  A    between atoms: C_14  and  C_16
REMARK    4  A    between atoms: C_14  and  N_64
REMARK    5  A    between atoms: N_20  and  C_21
REMARK    6  A    between atoms: C_21  and  C_22
REMARK    7  A    between atoms: C_25  and  O_28
REMARK    8  A    between atoms: O_28  and  C_29
REMARK                            x       y       z     vdW  Elec       q    Type
REMARK                         _______ _______ _______ _____ _____    ______ ____
ROOT
ATOM      1  C   UNL     1       1.022  -1.590   0.253  0.00  0.00    +0.039 C 
ENDROOT
BRANCH   1  10
ATOM      2  C   UNL     1       2.432  -6.558  -5.128  0.00  0.00    +0.044 C 
ATOM      3  C   UNL     1       1.496  -5.602  -4.434  0.00  0.00    -0.050 A 
ATOM      4  C   UNL     1       0.200  -5.443  -4.906  0.00  0.00    +0.005 A 
ATOM      5  C   UNL     1      -0.673  -4.576  -4.287  0.00  0.00    +0.026 A 
ATOM      6  C   UNL     1      -0.253  -3.849  -3.177  0.00  0.00    +0.049 A 
ATOM      7  C   UNL     1       1.061  -4.013  -2.701  0.00  0.00    -0.001 A 
ATOM      8  C   UNL     1       1.930  -4.899  -3.345  0.00  0.00    +0.013 A 
ATOM      9  C   UNL     1       1.496  -3.239  -1.536  0.00  0.00    +0.017 A 
ATOM     10  C   UNL     1       0.608  -2.397  -0.950  0.00  0.00    +0.011 A 
ATOM     11  C   UNL     1      -0.699  -2.270  -1.467  0.00  0.00    +0.251 A 
ATOM     12  O   UNL     1      -1.479  -1.504  -0.928  0.00  0.00    -0.268 OA
ATOM     13  N   UNL     1      -1.105  -2.973  -2.539  0.00  0.00    -0.322 N 
ATOM     14  H   UNL     1      -2.011  -2.862  -2.868  0.00  0.00    +0.169 HD
ENDBRANCH   1  10
BRANCH   1  21
ATOM     15  C   UNL     1       0.266  -0.829   2.434  0.00  0.00    -0.077 C 
ATOM     16  C   UNL     1      -0.506  -1.174   3.679  0.00  0.00    -0.019 C 
ATOM     17  C   UNL     1       0.411  -1.992   4.612  0.00  0.00    -0.002 C 
ATOM     18  C   UNL     1       0.518  -3.386   4.196  0.00  0.00    -0.002 C 
ATOM     19  C   UNL     1       1.124  -3.528   2.784  0.00  0.00    -0.019 C 
ATOM     20  C   UNL     1       0.053  -3.222   1.772  0.00  0.00    -0.077 C 
ATOM     21  N   UNL     1       0.016  -1.793   1.308  0.00  0.00    +0.389 N 
ATOM     22  H   UNL     1      -0.915  -1.603   0.920  0.00  0.00    -0.080 HD
ENDBRANCH   1  21
BRANCH   1  23
ATOM     23  C   UNL     1       1.051  -0.128  -0.109  0.00  0.00    +0.143 A 
ATOM     24  N   UNL     1       0.026   0.616  -0.448  0.00  0.00    -0.115 NA
ATOM     25  N   UNL     1       0.459   1.806  -0.682  0.00  0.00    -0.023 NA
ATOM     26  N   UNL     1       1.733   1.842  -0.502  0.00  0.00    -0.044 NA
ATOM     27  N   UNL     1       2.136   0.669  -0.147  0.00  0.00    -0.226 N 
BRANCH  27  28
ATOM     28  C   UNL     1       3.514   0.277   0.156  0.00  0.00    +0.182 C 
BRANCH  28  29
ATOM     29  C   UNL     1       4.239  -0.044  -1.126  0.00  0.00    -0.026 A 
ATOM     30  C   UNL     1       4.346  -1.356  -1.549  0.00  0.00    +0.009 A 
ATOM     31  C   UNL     1       5.004  -1.652  -2.726  0.00  0.00    +0.046 A 
ATOM     32  C   UNL     1       5.569  -0.633  -3.479  0.00  0.00    +0.120 A 
ATOM     33  C   UNL     1       5.466   0.682  -3.050  0.00  0.00    +0.046 A 
ATOM     34  C   UNL     1       4.801   0.974  -1.875  0.00  0.00    +0.009 A 
BRANCH  32  35
ATOM     35  O   UNL     1       6.222  -0.922  -4.635  0.00  0.00    -0.495 OA
ATOM     36  C   UNL     1       6.290  -2.298  -5.015  0.00  0.00    +0.277 C 
ENDBRANCH  32  35
ENDBRANCH  28  29
ENDBRANCH  27  28
ENDBRANCH   1  23
TORSDOF 6
