REMARK  Name = ZINC01510857
REMARK  8 active torsions:
REMARK  status: ('A' for Active; 'I' for Inactive)
REMARK    1  A    between atoms: C_1  and  C_2
REMARK    2  A    between atoms: C_5  and  S_8
REMARK    3  A    between atoms: S_8  and  N_11
REMARK    4  A    between atoms: N_11  and  C_12
REMARK    5  A    between atoms: C_15  and  C_18
REMARK    6  A    between atoms: C_27  and  C_30
REMARK    7  A    between atoms: C_30  and  O_32
REMARK    8  A    between atoms: O_32  and  C_33
REMARK                            x       y       z     vdW  Elec       q    Type
REMARK                         _______ _______ _______ _____ _____    ______ ____
ROOT
ATOM      1  C   UNL     1      -1.249   3.122   0.055  0.00  0.00    +0.048 A 
ATOM      2  C   UNL     1      -1.253   1.734  -0.008  0.00  0.00    +0.025 A 
ATOM      3  C   UNL     1      -0.059   1.040   0.006  0.00  0.00    +0.006 A 
ATOM      4  C   UNL     1       1.140   1.726   0.072  0.00  0.00    -0.041 A 
ATOM      5  C   UNL     1       1.148   3.108   0.129  0.00  0.00    +0.006 A 
ATOM      6  C   UNL     1      -0.043   3.808   0.121  0.00  0.00    +0.025 A 
ENDROOT
BRANCH   4   7
ATOM      7  C   UNL     1       2.441   0.966   0.081  0.00  0.00    -0.003 C 
ATOM      8  C   UNL     1       2.480   0.036   1.295  0.00  0.00    +0.015 C 
ATOM      9  C   UNL     1       3.801  -0.736   1.304  0.00  0.00    -0.009 C 
ATOM     10  C   UNL     1       3.917  -1.564   0.023  0.00  0.00    +0.007 C 
ATOM     11  C   UNL     1       3.878  -0.634  -1.191  0.00  0.00    -0.009 C 
ATOM     12  C   UNL     1       2.557   0.138  -1.200  0.00  0.00    +0.015 C 
ATOM     13  C   UNL     1       5.045   0.353  -1.114  0.00  0.00    +0.021 C 
ATOM     14  C   UNL     1       4.929   1.181   0.167  0.00  0.00    +0.069 C 
ATOM     15  C   UNL     1       4.968   0.251   1.381  0.00  0.00    +0.021 C 
ATOM     16  C   UNL     1       3.608   1.953   0.158  0.00  0.00    +0.029 C 
BRANCH  14  17
ATOM     17  C   UNL     1       6.078   2.154   0.243  0.00  0.00    +0.313 C 
ATOM     18  O   UNL     1       6.849   2.107   1.172  0.00  0.00    -0.250 OA
BRANCH  17  19
ATOM     19  O   UNL     1       6.245   3.071  -0.723  0.00  0.00    -0.468 OA
ATOM     20  C   UNL     1       7.374   3.975  -0.584  0.00  0.00    +0.280 C 
ENDBRANCH  17  19
ENDBRANCH  14  17
ENDBRANCH   4   7
BRANCH   1  21
ATOM     21  N   UNL     1      -2.455   3.826   0.046  0.00  0.00    -0.216 N 
ATOM     22  H   UNL     1      -2.619   4.644   0.763  0.00  0.00    +0.174 HD
BRANCH  21  23
ATOM     23  S   UNL     1      -3.637   3.431  -1.044  0.00  0.00    +0.072 S 
ATOM     24  O   UNL     1      -3.853   2.032  -0.919  0.00  0.00    -0.150 OA
ATOM     25  O   UNL     1      -4.680   4.381  -0.874  0.00  0.00    -0.150 OA
BRANCH  23  30
ATOM     26  C   UNL     1      -1.358   4.337  -6.557  0.00  0.00    +0.044 C 
ATOM     27  C   UNL     1      -1.928   4.110  -5.180  0.00  0.00    -0.050 A 
ATOM     28  C   UNL     1      -1.885   2.850  -4.613  0.00  0.00    +0.005 A 
ATOM     29  C   UNL     1      -2.408   2.643  -3.350  0.00  0.00    +0.029 A 
ATOM     30  C   UNL     1      -2.972   3.695  -2.654  0.00  0.00    +0.109 A 
ATOM     31  C   UNL     1      -3.018   4.954  -3.223  0.00  0.00    +0.029 A 
ATOM     32  C   UNL     1      -2.492   5.163  -4.484  0.00  0.00    +0.005 A 
ENDBRANCH  23  30
ENDBRANCH  21  23
ENDBRANCH   1  21
TORSDOF 6
