REMARK  Name = ZINC67463851
REMARK  9 active torsions:
REMARK  status: ('A' for Active; 'I' for Inactive)
REMARK    1  A    between atoms: C_1  and  C_2
REMARK    2  A    between atoms: C_5  and  C_28
REMARK    3  A    between atoms: C_6  and  N_8
REMARK    4  A    between atoms: N_8  and  C_9
REMARK    5  A    between atoms: C_9  and  N_11
REMARK    6  A    between atoms: N_11  and  N_12
REMARK    7  A    between atoms: C_13  and  C_15
REMARK    8  A    between atoms: C_18  and  N_22
REMARK    9  A    between atoms: C_19  and  C_21
REMARK                            x       y       z     vdW  Elec       q    Type
REMARK                         _______ _______ _______ _____ _____    ______ ____
ROOT
ATOM      1  N   UNL     1       0.285  -4.220   4.702  0.00  0.00    -0.231 N 
ATOM      2  C   UNL     1       0.401  -4.905   5.857  0.00  0.00    +0.260 C 
ATOM      3  O   UNL     1       0.489  -4.307   6.912  0.00  0.00    -0.269 OA
ATOM      4  H   UNL     1       0.214  -4.697   3.860  0.00  0.00    +0.173 HD
ENDROOT
BRANCH   2   5
ATOM      5  C   UNL     1       0.421  -6.380   5.841  0.00  0.00    +0.039 A 
ATOM      6  C   UNL     1       0.325  -7.069   4.629  0.00  0.00    +0.015 A 
ATOM      7  C   UNL     1       0.343  -8.445   4.617  0.00  0.00    +0.024 A 
ATOM      8  C   UNL     1       0.457  -9.151   5.811  0.00  0.00    +0.041 A 
ATOM      9  C   UNL     1       0.553  -8.469   7.020  0.00  0.00    -0.028 A 
ATOM     10  C   UNL     1       0.541  -7.092   7.038  0.00  0.00    +0.018 A 
ATOM     11  C   UNL     1       0.676  -9.237   8.310  0.00  0.00    +0.046 C 
BRANCH   8  12
ATOM     12  N   UNL     1       0.475 -10.545   5.797  0.00  0.00    -0.254 N 
ATOM     13  C   UNL     1      -0.709 -11.413   5.886  0.00  0.00    +0.134 C 
ATOM     14  C   UNL     1      -0.127 -12.839   5.824  0.00  0.00    +0.125 C 
ATOM     15  N   UNL     1       1.323 -12.623   5.707  0.00  0.00    -0.297 N 
ATOM     16  C   UNL     1       1.572 -11.306   5.693  0.00  0.00    +0.307 C 
ATOM     17  O   UNL     1       2.693 -10.845   5.599  0.00  0.00    -0.252 OA
ATOM     18  H   UNL     1       1.993 -13.322   5.645  0.00  0.00    +0.150 HD
ENDBRANCH   8  12
ENDBRANCH   2   5
BRANCH   1  19
ATOM     19  N   UNL     1       0.266  -2.819   4.717  0.00  0.00    -0.245 N 
ATOM     20  H   UNL     1       0.337  -2.342   5.558  0.00  0.00    +0.172 HD
BRANCH  19  21
ATOM     21  C   UNL     1       0.149  -2.135   3.562  0.00  0.00    +0.151 C 
ATOM     22  S   UNL     1       0.127  -0.423   3.580  0.00  0.00    -0.017 S 
BRANCH  21  23
ATOM     23  N   UNL     1       0.051  -2.797   2.392  0.00  0.00    -0.296 N 
ATOM     24  H   UNL     1      -0.016  -3.765   2.387  0.00  0.00    +0.154 HD
BRANCH  23  30
ATOM     25  C   UNL     1       1.920   0.767  -0.431  0.00  0.00    +0.044 C 
ATOM     26  C   UNL     1       0.941  -0.357  -0.210  0.00  0.00    -0.049 A 
ATOM     27  C   UNL     1       0.036  -0.690  -1.201  0.00  0.00    +0.004 A 
ATOM     28  C   UNL     1      -0.864  -1.721  -1.002  0.00  0.00    +0.005 A 
ATOM     29  C   UNL     1      -0.861  -2.422   0.188  0.00  0.00    -0.029 A 
ATOM     30  C   UNL     1       0.046  -2.090   1.185  0.00  0.00    +0.036 A 
ATOM     31  C   UNL     1       0.953  -1.057   0.980  0.00  0.00    +0.027 A 
ATOM     32  C   UNL     1      -1.843  -3.545   0.405  0.00  0.00    +0.045 C 
ENDBRANCH  23  30
ENDBRANCH  21  23
ENDBRANCH  19  21
ENDBRANCH   1  19
TORSDOF 6
