REMARK  Name = ZINC63142002
REMARK  9 active torsions:
REMARK  status: ('A' for Active; 'I' for Inactive)
REMARK    1  A    between atoms: C_1  and  C_2
REMARK    2  A    between atoms: C_2  and  C_3
REMARK    3  A    between atoms: C_2  and  O_4
REMARK    4  A    between atoms: O_4  and  C_5
REMARK    5  A    between atoms: C_5  and  C_6
REMARK    6  A    between atoms: C_6  and  C_7
REMARK    7  A    between atoms: C_7  and  N_8
REMARK    8  A    between atoms: C_28  and  C_30
REMARK    9  A    between atoms: C_33  and  N_36
REMARK                            x       y       z     vdW  Elec       q    Type
REMARK                         _______ _______ _______ _____ _____    ______ ____
ROOT
ATOM      1  N   UNL     1      -4.673  -3.602  -1.403  0.00  0.00    -0.291 N 
ATOM      2  C   UNL     1      -4.968  -4.454  -0.263  0.00  0.00    +0.203 C 
ATOM      3  C   UNL     1      -6.383  -4.928  -0.264  0.00  0.00    +0.234 C 
ATOM      4  O   UNL     1      -6.736  -5.649   0.646  0.00  0.00    -0.274 OA
ATOM      5  N   UNL     1      -7.291  -4.615  -1.196  0.00  0.00    -0.279 N 
ATOM      6  C   UNL     1      -6.990  -3.742  -2.326  0.00  0.00    +0.167 C 
ATOM      7  C   UNL     1      -5.573  -3.273  -2.329  0.00  0.00    +0.237 C 
ATOM      8  O   UNL     1      -5.216  -2.549  -3.234  0.00  0.00    -0.274 OA
ATOM      9  C   UNL     1      -7.934  -2.526  -2.316  0.00  0.00    +0.065 C 
ATOM     10  C   UNL     1      -9.323  -3.061  -2.071  0.00  0.00    -0.034 C 
ATOM     11  C   UNL     1     -10.466  -2.872  -2.719  0.00  0.00    -0.001 A 
ATOM     12  C   UNL     1     -10.822  -1.987  -3.840  0.00  0.00    +0.010 A 
ATOM     13  C   UNL     1     -12.107  -2.064  -4.279  0.00  0.00    +0.001 A 
ATOM     14  C   UNL     1     -13.060  -2.922  -3.722  0.00  0.00    +0.002 A 
ATOM     15  C   UNL     1     -12.822  -3.762  -2.683  0.00  0.00    +0.026 A 
ATOM     16  C   UNL     1     -11.509  -3.766  -2.130  0.00  0.00    +0.043 A 
ATOM     17  N   UNL     1     -11.018  -4.441  -1.133  0.00  0.00    -0.375 N 
ATOM     18  C   UNL     1      -9.632  -4.020  -0.927  0.00  0.00    +0.131 C 
ATOM     19  C   UNL     1      -8.649  -5.186  -1.058  0.00  0.00    +0.133 C 
ATOM     20  H   UNL     1     -11.491  -5.111  -0.613  0.00  0.00    +0.160 HD
ENDROOT
BRANCH  19  21
ATOM     21  C   UNL     1      -8.986  -6.005  -2.278  0.00  0.00    -0.025 A 
ATOM     22  C   UNL     1      -8.981  -5.415  -3.528  0.00  0.00    +0.008 A 
ATOM     23  C   UNL     1      -9.290  -6.166  -4.647  0.00  0.00    +0.033 A 
ATOM     24  C   UNL     1      -9.603  -7.506  -4.516  0.00  0.00    +0.126 A 
ATOM     25  C   UNL     1      -9.607  -8.096  -3.266  0.00  0.00    +0.033 A 
ATOM     26  C   UNL     1      -9.294  -7.346  -2.147  0.00  0.00    +0.008 A 
BRANCH  24  27
ATOM     27  N   UNL     1      -9.934  -8.309  -5.714  0.00  0.00    +0.056 N 
ATOM     28  O   UNL     1      -9.931  -7.794  -6.808  0.00  0.00    -0.126 OA
ATOM     29  O   UNL     1     -10.208  -9.481  -5.599  0.00  0.00    -0.126 OA
ENDBRANCH  24  27
ENDBRANCH  19  21
BRANCH   1  30
ATOM     30  C   UNL     1      -3.314  -3.072  -1.539  0.00  0.00    +0.110 C 
BRANCH  30  31
ATOM     31  C   UNL     1      -3.215  -1.730  -0.811  0.00  0.00    +0.047 C 
BRANCH  31  32
ATOM     32  C   UNL     1      -1.796  -1.177  -0.953  0.00  0.00    +0.161 C 
BRANCH  32  33
ATOM     33  O   UNL     1      -1.703   0.076  -0.273  0.00  0.00    -0.377 OA
BRANCH  33  35
ATOM     34  C   UNL     1      -0.557   2.204  -0.296  0.00  0.00    +0.037 C 
ATOM     35  C   UNL     1      -0.410   0.682  -0.344  0.00  0.00    +0.112 C 
ATOM     36  C   UNL     1       0.438   0.214   0.839  0.00  0.00    +0.037 C 
ENDBRANCH  33  35
ENDBRANCH  32  33
ENDBRANCH  31  32
ENDBRANCH  30  31
ENDBRANCH   1  30
TORSDOF 7
