REMARK  Name = ZINC36119057
REMARK  13 active torsions:
REMARK  status: ('A' for Active; 'I' for Inactive)
REMARK    1  A    between atoms: C_1  and  C_2
REMARK    2  A    between atoms: C_2  and  C_3
REMARK    3  A    between atoms: C_3  and  C_5
REMARK    4  A    between atoms: C_3  and  C_6
REMARK    5  A    between atoms: C_6  and  N_7
REMARK    6  A    between atoms: N_7  and  C_8
REMARK    7  A    between atoms: C_8  and  C_9
REMARK    8  A    between atoms: C_19  and  C_21
REMARK    9  A    between atoms: C_21  and  O_22
REMARK   10  A    between atoms: O_22  and  C_23
REMARK   11  A    between atoms: C_26  and  C_30
REMARK   12  A    between atoms: C_28  and  C_29
REMARK   13  A    between atoms: C_31  and  C_33
REMARK                            x       y       z     vdW  Elec       q    Type
REMARK                         _______ _______ _______ _____ _____    ______ ____
ROOT
ATOM      1  C   UNL     1      -3.547  -3.387  -1.752  0.00  0.00    +0.234 C 
ATOM      2  O   UNL     1      -2.883  -4.306  -1.324  0.00  0.00    -0.274 OA
ATOM      3  N   UNL     1      -4.214  -3.521  -2.916  0.00  0.00    -0.289 N 
ATOM      4  C   UNL     1      -5.018  -2.411  -3.447  0.00  0.00    +0.114 C 
ATOM      5  C   UNL     1      -6.492  -2.844  -3.457  0.00  0.00    +0.061 C 
ATOM      6  C   UNL     1      -6.575  -4.246  -3.966  0.00  0.00    -0.004 A 
ATOM      7  C   UNL     1      -5.570  -5.156  -4.078  0.00  0.00    -0.014 A 
ATOM      8  C   UNL     1      -5.915  -6.411  -4.579  0.00  0.00    +0.013 A 
ATOM      9  C   UNL     1      -7.195  -6.671  -4.930  0.00  0.00    +0.046 A 
ATOM     10  S   UNL     1      -8.000  -5.119  -4.561  0.00  0.00    -0.101 S 
ATOM     11  C   UNL     1      -4.142  -4.778  -3.674  0.00  0.00    +0.144 C 
ENDROOT
BRANCH   1  12
ATOM     12  C   UNL     1      -3.628  -2.093  -0.983  0.00  0.00    +0.204 C 
BRANCH  12  13
ATOM     13  N   UNL     1      -2.823  -2.199   0.236  0.00  0.00    -0.288 N 
ATOM     14  C   UNL     1      -3.410  -2.526   1.405  0.00  0.00    +0.247 C 
ATOM     15  O   UNL     1      -2.752  -2.561   2.427  0.00  0.00    -0.270 OA
BRANCH  14  16
ATOM     16  C   UNL     1      -4.853  -2.840   1.445  0.00  0.00    +0.037 A 
ATOM     17  C   UNL     1      -5.420  -3.653   0.462  0.00  0.00    +0.016 A 
ATOM     18  C   UNL     1      -6.767  -3.943   0.503  0.00  0.00    +0.039 A 
ATOM     19  C   UNL     1      -7.558  -3.429   1.519  0.00  0.00    +0.123 A 
ATOM     20  C   UNL     1      -7.000  -2.621   2.498  0.00  0.00    +0.039 A 
ATOM     21  C   UNL     1      -5.653  -2.330   2.469  0.00  0.00    +0.016 A 
ATOM     22  F   UNL     1      -8.878  -3.716   1.555  0.00  0.00    -0.205 F 
ENDBRANCH  14  16
BRANCH  13  23
ATOM     23  C   UNL     1      -1.380  -1.950   0.186  0.00  0.00    +0.112 C 
BRANCH  23  24
ATOM     24  C   UNL     1      -1.099  -0.499   0.581  0.00  0.00    +0.003 C 
ATOM     25  C   UNL     1      -1.709   0.441  -0.461  0.00  0.00    +0.009 C 
BRANCH  24  27
ATOM     26  C   UNL     1       0.694   1.140   1.164  0.00  0.00    +0.004 C 
ATOM     27  C   UNL     1       0.413  -0.273   0.649  0.00  0.00    +0.001 C 
ENDBRANCH  24  27
ENDBRANCH  23  24
ENDBRANCH  13  23
ENDBRANCH  12  13
ENDBRANCH   1  12
BRANCH  11  28
ATOM     28  C   UNL     1      -3.280  -4.581  -4.923  0.00  0.00    +0.256 C 
BRANCH  28  29
ATOM     29  O   UNL     1      -3.918  -3.650  -5.800  0.00  0.00    -0.490 OA
BRANCH  29  30
ATOM     30  C   UNL     1      -3.279  -3.362  -6.964  0.00  0.00    +0.124 A 
ATOM     31  C   UNL     1      -2.066  -3.967  -7.259  0.00  0.00    +0.046 A 
ATOM     32  C   UNL     1      -1.419  -3.672  -8.443  0.00  0.00    +0.007 A 
ATOM     33  C   UNL     1      -1.979  -2.776  -9.334  0.00  0.00    -0.050 A 
ATOM     34  C   UNL     1      -3.188  -2.171  -9.042  0.00  0.00    +0.010 A 
ATOM     35  C   UNL     1      -3.842  -2.467  -7.862  0.00  0.00    -0.009 A 
ATOM     36  C   UNL     1      -5.162  -1.812  -7.547  0.00  0.00    +0.047 C 
ATOM     37  C   UNL     1      -1.271  -2.456 -10.626  0.00  0.00    +0.044 C 
ENDBRANCH  29  30
ENDBRANCH  28  29
ENDBRANCH  11  28
TORSDOF 9
