REMARK  Name = ZINC21526597
REMARK  5 active torsions:
REMARK  status: ('A' for Active; 'I' for Inactive)
REMARK    1  A    between atoms: C_1  and  C_2
REMARK    2  A    between atoms: C_2  and  C_23
REMARK    3  A    between atoms: N_14  and  C_15
REMARK    4  A    between atoms: C_15  and  C_16
REMARK    5  A    between atoms: N_25  and  C_26
REMARK                            x       y       z     vdW  Elec       q    Type
REMARK                         _______ _______ _______ _____ _____    ______ ____
ROOT
ATOM      1  C   UNL     1       5.008   3.910  -1.222  0.00  0.00    +0.043 C 
ATOM      2  C   UNL     1       3.811   3.153  -1.800  0.00  0.00    +0.129 C 
ATOM      3  C   UNL     1       4.080   2.843  -3.276  0.00  0.00    +0.157 C 
ATOM      4  N   UNL     1       3.956   4.080  -4.053  0.00  0.00    -0.331 N 
ATOM      5  C   UNL     1       4.576   4.455  -5.207  0.00  0.00    +0.088 A 
ATOM      6  C   UNL     1       5.514   4.097  -6.205  0.00  0.00    +0.067 A 
ATOM      7  C   UNL     1       5.557   5.106  -7.092  0.00  0.00    +0.198 A 
ATOM      8  O   UNL     1       4.705   6.073  -6.712  0.00  0.00    -0.461 OA
ATOM      9  C   UNL     1       4.092   5.713  -5.565  0.00  0.00    +0.153 A 
ATOM     10  C   UNL     1       3.159   6.101  -4.592  0.00  0.00    +0.079 A 
ATOM     11  C   UNL     1       3.098   5.105  -3.663  0.00  0.00    +0.109 A 
ATOM     12  C   UNL     1       2.300   4.987  -2.436  0.00  0.00    +0.264 C 
ATOM     13  O   UNL     1       1.408   5.772  -2.174  0.00  0.00    -0.268 OA
ATOM     14  N   UNL     1       2.609   3.958  -1.612  0.00  0.00    -0.276 N 
ENDROOT
BRANCH   2  15
ATOM     15  C   UNL     1       3.650   1.856  -1.050  0.00  0.00    +0.238 C 
ATOM     16  O   UNL     1       4.559   1.431  -0.370  0.00  0.00    -0.273 OA
ATOM     17  N   UNL     1       2.495   1.167  -1.137  0.00  0.00    -0.311 N 
ATOM     18  H   UNL     1       1.654   1.573  -1.718  0.00  0.00    +0.149 HD
BRANCH  17  19
ATOM     19  C   UNL     1       2.359  -0.124  -0.457  0.00  0.00    +0.073 C 
ATOM     20  C   UNL     1       2.974  -1.224  -1.347  0.00  0.00    +0.022 C 
ATOM     21  C   UNL     1       3.301  -2.411  -0.481  0.00  0.00    +0.002 C 
ATOM     22  C   UNL     1       2.171  -3.457  -0.466  0.00  0.00    +0.000 C 
ATOM     23  C   UNL     1       0.770  -2.822  -0.372  0.00  0.00    +0.000 C 
ATOM     24  C   UNL     1       0.722  -1.676   0.601  0.00  0.00    +0.002 C 
ATOM     25  C   UNL     1       0.952  -0.363  -0.176  0.00  0.00    +0.022 C 
ENDBRANCH  17  19
ENDBRANCH   2  15
BRANCH  14  26
ATOM     26  C   UNL     1       1.713   3.649  -0.495  0.00  0.00    +0.145 C 
BRANCH  26  27
ATOM     27  C   UNL     1       2.235   4.297   0.762  0.00  0.00    -0.016 A 
ATOM     28  C   UNL     1       3.284   3.720   1.453  0.00  0.00    +0.006 A 
ATOM     29  C   UNL     1       3.762   4.314   2.606  0.00  0.00    +0.000 A 
ATOM     30  C   UNL     1       3.195   5.489   3.065  0.00  0.00    +0.001 A 
ATOM     31  C   UNL     1       2.142   6.062   2.378  0.00  0.00    +0.015 A 
ATOM     32  C   UNL     1       1.663   5.468   1.224  0.00  0.00    +0.023 A 
ATOM     33 BR   UNL     1       0.227   6.257   0.280  0.00  0.00    -0.050 Br
ENDBRANCH  26  27
ENDBRANCH  14  26
TORSDOF 4
