REMARK  Name = ZINC36145889
REMARK  10 active torsions:
REMARK  status: ('A' for Active; 'I' for Inactive)
REMARK    1  A    between atoms: C_4  and  C_7
REMARK    2  A    between atoms: C_7  and  C_8
REMARK    3  A    between atoms: C_8  and  C_10
REMARK    4  A    between atoms: C_8  and  O_33
REMARK    5  A    between atoms: C_10  and  N_11
REMARK    6  A    between atoms: N_11  and  C_12
REMARK    7  A    between atoms: N_11  and  C_20
REMARK    8  A    between atoms: C_12  and  C_13
REMARK    9  A    between atoms: C_20  and  C_21
REMARK   10  A    between atoms: C_24  and  C_27
REMARK                            x       y       z     vdW  Elec       q    Type
REMARK                         _______ _______ _______ _____ _____    ______ ____
ROOT
ATOM      1  N   UNL     1       6.168  -1.768   2.835  0.00  0.00    +0.386 N 
ATOM      2  H   UNL     1       5.590  -2.376   3.397  0.00  0.00    -0.081 HD
ENDROOT
BRANCH   1   3
ATOM      3  C   UNL     1       5.665  -1.751   1.455  0.00  0.00    -0.046 C 
BRANCH   3   4
ATOM      4  C   UNL     1       4.182  -1.375   1.458  0.00  0.00    +0.102 C 
BRANCH   4   5
ATOM      5  O   UNL     1       3.441  -2.360   2.180  0.00  0.00    -0.393 OA
ATOM      6  H   UNL     1       3.508  -3.252   1.810  0.00  0.00    +0.210 HD
ENDBRANCH   4   5
BRANCH   4   7
ATOM      7  C   UNL     1       3.671  -1.306   0.017  0.00  0.00    +0.064 C 
BRANCH   7  11
ATOM      8  C   UNL     1      -0.369   0.082   0.002  0.00  0.00    +0.000 A 
ATOM      9  C   UNL     1       0.673   0.987  -0.079  0.00  0.00    +0.000 A 
ATOM     10  C   UNL     1       1.980   0.537  -0.074  0.00  0.00    +0.004 A 
ATOM     11  C   UNL     1       2.246  -0.817   0.013  0.00  0.00    -0.045 A 
ATOM     12  C   UNL     1       1.204  -1.721   0.094  0.00  0.00    +0.004 A 
ATOM     13  C   UNL     1      -0.104  -1.272   0.088  0.00  0.00    +0.000 A 
ENDBRANCH   7  11
ENDBRANCH   4   7
ENDBRANCH   3   4
ENDBRANCH   1   3
BRANCH   1  14
ATOM     14  C   UNL     1       6.129  -0.407   3.387  0.00  0.00    -0.043 C 
BRANCH  14  15
ATOM     15  C   UNL     1       6.973   0.505   2.535  0.00  0.00    -0.063 A 
ATOM     16  C   UNL     1       8.320   0.658   2.811  0.00  0.00    +0.002 A 
ATOM     17  C   UNL     1       9.095   1.494   2.029  0.00  0.00    +0.002 A 
ATOM     18  C   UNL     1       8.524   2.179   0.972  0.00  0.00    +0.020 A 
ATOM     19  C   UNL     1       7.177   2.026   0.696  0.00  0.00    +0.041 A 
ATOM     20  C   UNL     1       6.403   1.183   1.475  0.00  0.00    +0.021 A 
ATOM     21 CL   UNL     1       6.460   2.885  -0.631  0.00  0.00    -0.084 Cl
ENDBRANCH  14  15
ENDBRANCH   1  14
BRANCH   1  22
ATOM     22  C   UNL     1       7.552  -2.262   2.846  0.00  0.00    -0.030 C 
BRANCH  22  23
ATOM     23  C   UNL     1       8.033  -2.397   4.292  0.00  0.00    +0.194 C 
ATOM     24  C   UNL     1       9.506  -2.871   4.343  0.00  0.00    +0.104 C 
ATOM     25  C   UNL     1       9.510  -3.807   5.537  0.00  0.00    +0.091 C 
ATOM     26  N   UNL     1       8.286  -4.098   5.827  0.00  0.00    -0.089 NA
ATOM     27  O   UNL     1       7.354  -3.478   4.963  0.00  0.00    -0.392 OA
BRANCH  25  28
ATOM     28  C   UNL     1      10.708  -4.300   6.245  0.00  0.00    -0.000 A 
ATOM     29  C   UNL     1      11.981  -3.902   5.831  0.00  0.00    +0.010 A 
ATOM     30  C   UNL     1      13.096  -4.366   6.497  0.00  0.00    +0.001 A 
ATOM     31  C   UNL     1      12.955  -5.225   7.573  0.00  0.00    +0.000 A 
ATOM     32  C   UNL     1      11.697  -5.624   7.988  0.00  0.00    +0.001 A 
ATOM     33  C   UNL     1      10.573  -5.162   7.335  0.00  0.00    +0.010 A 
ENDBRANCH  25  28
ENDBRANCH  22  23
ENDBRANCH   1  22
TORSDOF 10
