REMARK  Name = ZINC11391384
REMARK  11 active torsions:
REMARK  status: ('A' for Active; 'I' for Inactive)
REMARK    1  A    between atoms: C_1  and  N_2
REMARK    2  A    between atoms: C_6  and  S_7
REMARK    3  A    between atoms: S_7  and  C_8
REMARK    4  A    between atoms: C_8  and  C_9
REMARK    5  A    between atoms: N_11  and  C_12
REMARK    6  A    between atoms: C_17  and  C_18
REMARK    7  A    between atoms: C_18  and  O_20
REMARK    8  A    between atoms: O_20  and  C_21
REMARK    9  A    between atoms: C_21  and  C_22
REMARK   10  A    between atoms: N_24  and  C_25
REMARK   11  A    between atoms: C_26  and  C_30
REMARK                            x       y       z     vdW  Elec       q    Type
REMARK                         _______ _______ _______ _____ _____    ______ ____
ROOT
ATOM      1  C   UNL     1      -6.135   1.080   0.138  0.00  0.00    +0.047 A 
ATOM      2  C   UNL     1      -7.219   0.212   0.134  0.00  0.00    +0.024 A 
ATOM      3  C   UNL     1      -7.015  -1.148   0.015  0.00  0.00    +0.002 A 
ATOM      4  C   UNL     1      -5.732  -1.658  -0.099  0.00  0.00    +0.001 A 
ATOM      5  C   UNL     1      -4.644  -0.812  -0.102  0.00  0.00    +0.017 A 
ATOM      6  C   UNL     1      -4.834   0.567   0.022  0.00  0.00    +0.080 A 
ENDROOT
BRANCH   1   9
ATOM      7  C   UNL     1      -7.342   2.921   1.024  0.00  0.00    +0.228 C 
ATOM      8  O   UNL     1      -8.009   2.154   1.686  0.00  0.00    -0.275 OA
ATOM      9  N   UNL     1      -6.338   2.453   0.257  0.00  0.00    -0.284 N 
ATOM     10  H   UNL     1      -5.757   3.071  -0.212  0.00  0.00    +0.155 HD
BRANCH   7  11
ATOM     11  C   UNL     1      -7.637   4.399   1.059  0.00  0.00    +0.173 C 
BRANCH  11  12
ATOM     12  S   UNL     1      -9.031   4.709   2.171  0.00  0.00    -0.078 S 
BRANCH  12  18
ATOM     13  C   UNL     1     -11.103   6.807   3.592  0.00  0.00    +0.151 C 
ATOM     14  N   UNL     1     -10.060   7.251   2.664  0.00  0.00    -0.329 N 
ATOM     15  C   UNL     1      -9.809   8.547   2.273  0.00  0.00    +0.107 A 
ATOM     16  C   UNL     1      -8.773   8.505   1.419  0.00  0.00    +0.131 A 
ATOM     17  N   UNL     1      -8.385   7.226   1.286  0.00  0.00    -0.230 NA
ATOM     18  C   UNL     1      -9.154   6.461   2.026  0.00  0.00    +0.169 A 
ENDBRANCH  12  18
ENDBRANCH  11  12
ENDBRANCH   7  11
ENDBRANCH   1   9
BRANCH   6  19
ATOM     19  C   UNL     1      -3.675   1.478   0.026  0.00  0.00    +0.341 C 
ATOM     20  O   UNL     1      -3.847   2.680   0.039  0.00  0.00    -0.245 OA
BRANCH  19  21
ATOM     21  O   UNL     1      -2.424   0.976   0.015  0.00  0.00    -0.452 OA
BRANCH  21  22
ATOM     22  C   UNL     1      -1.331   1.931   0.019  0.00  0.00    +0.328 C 
BRANCH  22  23
ATOM     23  C   UNL     1      -0.018   1.192   0.005  0.00  0.00    +0.255 C 
ATOM     24  O   UNL     1      -0.004  -0.020  -0.007  0.00  0.00    -0.272 OA
ATOM     25  N   UNL     1       1.142   1.879   0.001  0.00  0.00    -0.277 N 
ATOM     26  H   UNL     1       1.132   2.849   0.010  0.00  0.00    +0.155 HD
BRANCH  25  27
ATOM     27  C   UNL     1       2.350   1.199  -0.018  0.00  0.00    +0.084 A 
ATOM     28  C   UNL     1       3.637   1.724  -0.031  0.00  0.00    +0.065 A 
ATOM     29  C   UNL     1       4.725   0.776  -0.045  0.00  0.00    +0.022 A 
ATOM     30  C   UNL     1       4.403  -0.529  -0.055  0.00  0.00    +0.048 A 
ATOM     31  S   UNL     1       2.622  -0.511  -0.038  0.00  0.00    -0.081 S 
BRANCH  28  32
ATOM     32  C   UNL     1       3.877   3.171  -0.026  0.00  0.00    +0.244 C 
ATOM     33  O   UNL     1       2.937   3.944  -0.011  0.00  0.00    -0.270 OA
ATOM     34  N   UNL     1       5.138   3.645  -0.039  0.00  0.00    -0.325 N 
ATOM     35  H   UNL     1       5.888   3.029  -0.052  0.00  0.00    +0.145 HD
ATOM     36  H   UNL     1       5.297   4.602  -0.036  0.00  0.00    +0.145 HD
ENDBRANCH  28  32
ENDBRANCH  25  27
ENDBRANCH  22  23
ENDBRANCH  21  22
ENDBRANCH  19  21
ENDBRANCH   6  19
TORSDOF 10
