REMARK  Name = ZINC64788703
REMARK  2 active torsions:
REMARK  status: ('A' for Active; 'I' for Inactive)
REMARK    1  A    between atoms: C_10  and  C_11
REMARK    2  A    between atoms: N_22  and  C_25
REMARK                            x       y       z     vdW  Elec       q    Type
REMARK                         _______ _______ _______ _____ _____    ______ ____
ROOT
ATOM      1  C   UNL     1       5.277   2.433   0.378  0.00  0.00    +0.109 C 
ATOM      2  C   UNL     1       5.515   1.972  -1.080  0.00  0.00    +0.077 C 
ATOM      3  C   UNL     1       7.017   1.754  -1.108  0.00  0.00    +0.038 C 
ATOM      4  N   UNL     1       7.454   1.722   0.165  0.00  0.00    -0.283 N 
ATOM      5  N   UNL     1       6.449   1.855   1.077  0.00  0.00    -0.235 NA
ATOM      6  C   UNL     1       7.798   1.613  -2.240  0.00  0.00    +0.118 C 
ATOM      7  C   UNL     1       7.211   1.670  -3.591  0.00  0.00    +0.258 C 
ATOM      8  N   UNL     1       8.034   1.525  -4.650  0.00  0.00    -0.235 N 
ATOM      9  C   UNL     1       9.351   1.333  -4.492  0.00  0.00    +0.320 C 
ATOM     10  O   UNL     1      10.037   1.209  -5.488  0.00  0.00    -0.251 OA
ATOM     11  N   UNL     1       9.951   1.270  -3.296  0.00  0.00    -0.190 N 
ATOM     12  C   UNL     1       9.254   1.405  -2.149  0.00  0.00    +0.265 C 
ATOM     13  O   UNL     1       9.811   1.351  -1.069  0.00  0.00    -0.269 OA
ATOM     14  O   UNL     1       6.017   1.844  -3.747  0.00  0.00    -0.270 OA
ATOM     15  H   UNL     1       6.734   2.439   1.848  0.00  0.00    +0.145 HD
ATOM     16  H   UNL     1       7.664   1.560  -5.546  0.00  0.00    +0.159 HD
ATOM     17  H   UNL     1       8.387   1.616   0.409  0.00  0.00    +0.166 HD
ENDROOT
BRANCH   1  27
ATOM     18  C   UNL     1       0.325   3.703   0.124  0.00  0.00    +0.001 A 
ATOM     19  C   UNL     1       1.504   4.245  -0.385  0.00  0.00    +0.001 A 
ATOM     20  C   UNL     1       2.708   3.661  -0.138  0.00  0.00    +0.009 A 
ATOM     21  C   UNL     1       2.767   2.494   0.643  0.00  0.00    -0.013 A 
ATOM     22  C   UNL     1       1.568   1.944   1.162  0.00  0.00    -0.018 A 
ATOM     23  C   UNL     1       0.344   2.575   0.885  0.00  0.00    +0.008 A 
ATOM     24  C   UNL     1       1.628   0.777   1.943  0.00  0.00    +0.008 A 
ATOM     25  C   UNL     1       2.832   0.193   2.191  0.00  0.00    +0.001 A 
ATOM     26  C   UNL     1       4.010   0.735   1.682  0.00  0.00    +0.006 A 
ATOM     27  C   UNL     1       3.991   1.863   0.921  0.00  0.00    -0.021 A 
ENDBRANCH   1  27
BRANCH  11  28
ATOM     28  C   UNL     1      11.336   1.065  -3.234  0.00  0.00    +0.047 A 
ATOM     29  C   UNL     1      11.847  -0.225  -3.178  0.00  0.00    +0.024 A 
ATOM     30  C   UNL     1      13.213  -0.424  -3.117  0.00  0.00    +0.003 A 
ATOM     31  C   UNL     1      14.071   0.660  -3.113  0.00  0.00    +0.020 A 
ATOM     32  C   UNL     1      13.566   1.947  -3.169  0.00  0.00    +0.043 A 
ATOM     33  C   UNL     1      12.200   2.152  -3.236  0.00  0.00    +0.044 A 
ATOM     34 CL   UNL     1      14.648   3.305  -3.162  0.00  0.00    -0.083 Cl
ENDBRANCH  11  28
TORSDOF 2
