REMARK  Name = ZINC35542785
REMARK  22 active torsions:
REMARK  status: ('A' for Active; 'I' for Inactive)
REMARK    1  A    between atoms: C_1  and  C_2
REMARK    2  A    between atoms: C_2  and  N_3
REMARK    3  A    between atoms: C_4  and  C_37
REMARK    4  A    between atoms: C_5  and  C_13
REMARK    5  A    between atoms: C_6  and  C_12
REMARK    6  A    between atoms: C_7  and  C_8
REMARK    7  A    between atoms: C_8  and  O_10
REMARK    8  A    between atoms: O_10  and  C_11
REMARK    9  A    between atoms: C_13  and  C_15
REMARK   10  A    between atoms: C_15  and  N_16
REMARK   11  A    between atoms: N_16  and  C_17
REMARK   12  A    between atoms: C_17  and  C_18
REMARK   13  A    between atoms: C_18  and  C_19
REMARK   14  A    between atoms: C_19  and  C_20
REMARK   15  A    between atoms: C_19  and  C_21
REMARK   16  A    between atoms: N_24  and  C_25
REMARK   17  A    between atoms: C_26  and  C_34
REMARK   18  A    between atoms: C_30  and  C_31
REMARK   19  A    between atoms: C_31  and  C_32
REMARK   20  A    between atoms: C_31  and  C_33
REMARK   21  A    between atoms: C_34  and  C_35
REMARK   22  A    between atoms: C_34  and  C_36
REMARK                            x       y       z     vdW  Elec       q    Type
REMARK                         _______ _______ _______ _____ _____    ______ ____
ROOT
ATOM      1  N   UNL     1       0.885  -1.942  -7.314  0.00  0.00    -0.278 N 
ATOM      2  C   UNL     1       0.523  -3.190  -7.675  0.00  0.00    +0.307 C 
ATOM      3  O   UNL     1      -0.138  -3.873  -6.917  0.00  0.00    -0.252 OA
ATOM      4  N   UNL     1       0.893  -3.679  -8.875  0.00  0.00    -0.269 N 
ATOM      5  H   UNL     1       1.380  -3.117  -9.498  0.00  0.00    +0.156 HD
ENDROOT
BRANCH   4   6
ATOM      6  C   UNL     1       0.575  -4.997  -9.221  0.00  0.00    +0.042 A 
ATOM      7  C   UNL     1      -0.084  -5.263 -10.414  0.00  0.00    -0.023 A 
ATOM      8  C   UNL     1      -0.396  -6.565 -10.754  0.00  0.00    +0.006 A 
ATOM      9  C   UNL     1      -0.053  -7.603  -9.907  0.00  0.00    +0.001 A 
ATOM     10  C   UNL     1       0.603  -7.341  -8.718  0.00  0.00    +0.006 A 
ATOM     11  C   UNL     1       0.923  -6.042  -8.376  0.00  0.00    -0.023 A 
BRANCH  11  12
ATOM     12  C   UNL     1       1.644  -5.758  -7.083  0.00  0.00    +0.015 C 
ATOM     13  C   UNL     1       0.901  -6.431  -5.927  0.00  0.00    +0.012 C 
ATOM     14  C   UNL     1       3.069  -6.309  -7.162  0.00  0.00    +0.012 C 
ENDBRANCH  11  12
BRANCH   7  15
ATOM     15  C   UNL     1      -0.459  -4.132 -11.338  0.00  0.00    +0.015 C 
ATOM     16  C   UNL     1       0.130  -4.391 -12.726  0.00  0.00    +0.012 C 
ATOM     17  C   UNL     1      -1.982  -4.040 -11.439  0.00  0.00    +0.012 C 
ENDBRANCH   7  15
ENDBRANCH   4   6
BRANCH   1  18
ATOM     18  C   UNL     1       0.483  -1.411  -6.010  0.00  0.00    +0.188 C 
BRANCH  18  19
ATOM     19  C   UNL     1      -0.848  -0.715  -6.140  0.00  0.00    +0.182 C 
ATOM     20  O   UNL     1      -1.448  -0.747  -7.194  0.00  0.00    -0.290 OA
BRANCH  19  23
ATOM     21  N   UNL     1      -1.861   1.588  -3.520  0.00  0.00    -0.338 N 
ATOM     22  C   UNL     1      -1.145   1.306  -4.617  0.00  0.00    +0.027 A 
ATOM     23  C   UNL     1      -1.417  -0.001  -4.993  0.00  0.00    +0.043 A 
ATOM     24  C   UNL     1      -2.348  -0.514  -4.059  0.00  0.00    -0.008 A 
ATOM     25  C   UNL     1      -2.600   0.480  -3.161  0.00  0.00    +0.131 A 
ATOM     26  C   UNL     1      -2.943  -1.899  -4.054  0.00  0.00    +0.047 C 
ATOM     27  C   UNL     1      -0.204   2.249  -5.323  0.00  0.00    +0.064 C 
BRANCH  21  29
ATOM     28  C   UNL     1      -0.763   2.854  -1.739  0.00  0.00    +0.027 C 
ATOM     29  C   UNL     1      -1.855   2.869  -2.810  0.00  0.00    +0.119 C 
ENDBRANCH  21  29
BRANCH  25  30
ATOM     30  C   UNL     1      -3.506   0.389  -2.011  0.00  0.00    +0.356 C 
ATOM     31  O   UNL     1      -4.108  -0.644  -1.792  0.00  0.00    -0.243 OA
BRANCH  30  32
ATOM     32  O   UNL     1      -3.672   1.451  -1.197  0.00  0.00    -0.463 OA
ATOM     33  C   UNL     1      -4.569   1.292  -0.097  0.00  0.00    +0.280 C 
ENDBRANCH  30  32
ENDBRANCH  25  30
ENDBRANCH  19  23
ENDBRANCH  18  19
ENDBRANCH   1  18
BRANCH   1  34
ATOM     34  C   UNL     1       1.681  -1.119  -8.227  0.00  0.00    +0.110 C 
BRANCH  34  35
ATOM     35  C   UNL     1       3.170  -1.353  -7.959  0.00  0.00    +0.022 C 
BRANCH  35  36
ATOM     36  C   UNL     1       4.001  -0.492  -8.913  0.00  0.00    -0.016 C 
ATOM     37  C   UNL     1       5.484  -0.631  -8.563  0.00  0.00    +0.007 C 
ATOM     38  C   UNL     1       3.771  -0.958 -10.352  0.00  0.00    +0.007 C 
ENDBRANCH  35  36
ENDBRANCH  34  35
ENDBRANCH   1  34
TORSDOF 12
