REMARK  Name = ZINC35807836
REMARK  11 active torsions:
REMARK  status: ('A' for Active; 'I' for Inactive)
REMARK    1  A    between atoms: C_1  and  C_2
REMARK    2  A    between atoms: C_2  and  C_3
REMARK    3  A    between atoms: C_3  and  C_5
REMARK    4  A    between atoms: C_3  and  N_6
REMARK    5  A    between atoms: C_7  and  C_9
REMARK    6  A    between atoms: C_12  and  C_14
REMARK    7  A    between atoms: C_14  and  N_15
REMARK    8  A    between atoms: N_15  and  C_16
REMARK    9  A    between atoms: N_15  and  C_24
REMARK   10  A    between atoms: C_16  and  C_17
REMARK   11  A    between atoms: C_24  and  C_25
REMARK                            x       y       z     vdW  Elec       q    Type
REMARK                         _______ _______ _______ _____ _____    ______ ____
ROOT
ATOM      1  N   UNL     1      -4.380   0.012   6.389  0.00  0.00    +0.389 N 
ATOM      2  H   UNL     1      -4.197  -0.678   7.102  0.00  0.00    -0.080 HD
ENDROOT
BRANCH   1   3
ATOM      3  C   UNL     1      -3.365   1.072   6.460  0.00  0.00    -0.014 C 
BRANCH   3   7
ATOM      4  C   UNL     1      -2.722   1.860  10.035  0.00  0.00    +0.133 A 
ATOM      5  C   UNL     1      -3.587   2.921  10.053  0.00  0.00    +0.079 A 
ATOM      6  S   UNL     1      -4.171   2.939   8.478  0.00  0.00    -0.082 S 
ATOM      7  C   UNL     1      -3.320   1.631   7.858  0.00  0.00    +0.063 A 
ATOM      8  N   UNL     1      -2.607   1.216   8.869  0.00  0.00    -0.241 NA
BRANCH   4  10
ATOM      9  N   UNL     1      -1.044   0.470  11.140  0.00  0.00    -0.308 N 
ATOM     10  C   UNL     1      -1.960   1.455  11.228  0.00  0.00    +0.263 C 
ATOM     11  O   UNL     1      -2.156   2.010  12.292  0.00  0.00    -0.269 OA
ATOM     12  H   UNL     1      -0.939  -0.022  10.311  0.00  0.00    +0.149 HD
BRANCH   9  13
ATOM     13  C   UNL     1      -0.208   0.142  12.298  0.00  0.00    +0.070 C 
ATOM     14  C   UNL     1      -0.957  -0.834  13.207  0.00  0.00    +0.028 C 
BRANCH  13  16
ATOM     15  C   UNL     1       1.902   0.515  11.012  0.00  0.00    +0.005 C 
ATOM     16  C   UNL     1       1.094  -0.504  11.819  0.00  0.00    +0.018 C 
ENDBRANCH  13  16
ENDBRANCH   9  13
ENDBRANCH   4  10
ENDBRANCH   3   7
ENDBRANCH   1   3
BRANCH   1  17
ATOM     17  C   UNL     1      -4.331  -0.625   5.066  0.00  0.00    -0.042 C 
BRANCH  17  18
ATOM     18  C   UNL     1      -3.007  -1.325   4.895  0.00  0.00    -0.064 A 
ATOM     19  C   UNL     1      -1.968  -0.688   4.242  0.00  0.00    +0.003 A 
ATOM     20  C   UNL     1      -0.754  -1.329   4.085  0.00  0.00    +0.020 A 
ATOM     21  C   UNL     1      -0.578  -2.609   4.580  0.00  0.00    +0.041 A 
ATOM     22  C   UNL     1      -1.618  -3.246   5.233  0.00  0.00    +0.020 A 
ATOM     23  C   UNL     1      -2.830  -2.602   5.395  0.00  0.00    +0.003 A 
ATOM     24 CL   UNL     1       0.947  -3.415   4.382  0.00  0.00    -0.084 Cl
ENDBRANCH  17  18
ENDBRANCH   1  17
BRANCH   1  25
ATOM     25  C   UNL     1      -5.712   0.595   6.602  0.00  0.00    -0.042 C 
BRANCH  25  26
ATOM     26  C   UNL     1      -6.739  -0.507   6.652  0.00  0.00    -0.060 A 
ATOM     27  C   UNL     1      -7.357  -0.926   5.488  0.00  0.00    +0.005 A 
ATOM     28  C   UNL     1      -8.300  -1.936   5.529  0.00  0.00    +0.050 A 
ATOM     29  C   UNL     1      -8.629  -2.530   6.737  0.00  0.00    +0.166 A 
ATOM     30  C   UNL     1      -8.007  -2.107   7.909  0.00  0.00    +0.166 A 
ATOM     31  C   UNL     1      -7.058  -1.099   7.860  0.00  0.00    +0.051 A 
ATOM     32  O   UNL     1      -8.497  -2.839   8.951  0.00  0.00    -0.453 OA
ATOM     33  C   UNL     1      -9.717  -3.429   8.466  0.00  0.00    +0.466 C 
ATOM     34  O   UNL     1      -9.509  -3.527   7.045  0.00  0.00    -0.453 OA
ENDBRANCH  25  26
ENDBRANCH   1  25
TORSDOF 9
