REMARK  Name = ZINC34895430
REMARK  13 active torsions:
REMARK  status: ('A' for Active; 'I' for Inactive)
REMARK    1  A    between atoms: C_1  and  C_2
REMARK    2  A    between atoms: C_2  and  C_3
REMARK    3  A    between atoms: C_3  and  C_4
REMARK    4  A    between atoms: C_5  and  C_32
REMARK    5  A    between atoms: C_6  and  C_11
REMARK    6  A    between atoms: C_8  and  C_10
REMARK    7  A    between atoms: C_17  and  C_20
REMARK    8  A    between atoms: N_23  and  C_24
REMARK    9  A    between atoms: C_27  and  C_30
REMARK   10  A    between atoms: C_30  and  C_31
REMARK   11  A    between atoms: C_32  and  O_34
REMARK   12  A    between atoms: O_34  and  C_35
REMARK   13  A    between atoms: C_35  and  C_36
REMARK                            x       y       z     vdW  Elec       q    Type
REMARK                         _______ _______ _______ _____ _____    ______ ____
ROOT
ATOM      1  C   UNL     1       1.518  -4.812  -1.198  0.00  0.00    +0.266 C 
ATOM      2  O   UNL     1       2.469  -4.222  -1.670  0.00  0.00    -0.268 OA
ATOM      3  N   UNL     1       1.509  -6.159  -1.169  0.00  0.00    -0.293 N 
ATOM      4  C   UNL     1       0.358  -6.887  -0.616  0.00  0.00    +0.127 C 
ATOM      5  C   UNL     1       0.858  -7.830   0.486  0.00  0.00    +0.128 C 
ATOM      6  N   UNL     1       1.998  -8.598  -0.035  0.00  0.00    -0.280 N 
ATOM      7  C   UNL     1       3.148  -7.870  -0.588  0.00  0.00    +0.092 C 
ATOM      8  C   UNL     1       2.646  -6.927  -1.695  0.00  0.00    +0.130 C 
ATOM      9  C   UNL     1       3.824  -7.059   0.520  0.00  0.00    +0.030 C 
ATOM     10  C   UNL     1       1.988  -9.945  -0.005  0.00  0.00    +0.307 C 
ATOM     11  O   UNL     1       2.976 -10.568  -0.346  0.00  0.00    -0.252 OA
ATOM     12  N   UNL     1       0.884 -10.603   0.402  0.00  0.00    -0.269 N 
ATOM     13  H   UNL     1       0.114 -10.106   0.720  0.00  0.00    +0.156 HD
ENDROOT
BRANCH   1  16
ATOM     14  C   UNL     1      -0.609  -2.035   0.234  0.00  0.00    +0.060 A 
ATOM     15  C   UNL     1       0.513  -2.703  -0.272  0.00  0.00    +0.111 A 
ATOM     16  C   UNL     1       0.365  -4.049  -0.654  0.00  0.00    +0.143 A 
ATOM     17  N   UNL     1      -0.824  -4.624  -0.519  0.00  0.00    -0.227 NA
ATOM     18  C   UNL     1      -1.849  -3.952  -0.037  0.00  0.00    +0.127 A 
ATOM     19  N   UNL     1      -1.751  -2.691   0.337  0.00  0.00    -0.236 NA
ATOM     20  C   UNL     1      -3.179  -4.649   0.096  0.00  0.00    +0.088 C 
BRANCH  15  21
ATOM     21  C   UNL     1       1.815  -2.013  -0.401  0.00  0.00    +0.343 C 
ATOM     22  O   UNL     1       2.607  -2.034   0.519  0.00  0.00    -0.245 OA
BRANCH  21  23
ATOM     23  O   UNL     1       2.122  -1.362  -1.539  0.00  0.00    -0.461 OA
BRANCH  23  24
ATOM     24  C   UNL     1       3.396  -0.718  -1.594  0.00  0.00    +0.229 C 
ATOM     25  C   UNL     1       3.565  -0.036  -2.954  0.00  0.00    +0.048 C 
ENDBRANCH  23  24
ENDBRANCH  21  23
ENDBRANCH  15  21
BRANCH  14  26
ATOM     26  C   UNL     1      -0.514  -0.593   0.661  0.00  0.00    +0.056 C 
BRANCH  26  28
ATOM     27  C   UNL     1      -0.025   0.941   2.572  0.00  0.00    +0.004 C 
ATOM     28  C   UNL     1      -0.122  -0.523   2.139  0.00  0.00    +0.003 C 
ENDBRANCH  26  28
ENDBRANCH  14  26
ENDBRANCH   1  16
BRANCH  12  29
ATOM     29  C   UNL     1       0.849 -12.001   0.364  0.00  0.00    +0.035 A 
ATOM     30  C   UNL     1       1.749 -12.740   1.121  0.00  0.00    +0.023 A 
ATOM     31  C   UNL     1       1.711 -14.120   1.082  0.00  0.00    +0.005 A 
ATOM     32  C   UNL     1       0.778 -14.766   0.291  0.00  0.00    -0.048 A 
ATOM     33  C   UNL     1      -0.119 -14.033  -0.464  0.00  0.00    +0.005 A 
ATOM     34  C   UNL     1      -0.090 -12.652  -0.425  0.00  0.00    +0.023 A 
BRANCH  32  35
ATOM     35  C   UNL     1       0.740 -16.272   0.251  0.00  0.00    +0.032 C 
ATOM     36  C   UNL     1      -0.204 -16.787   1.339  0.00  0.00    +0.009 C 
ENDBRANCH  32  35
ENDBRANCH  12  29
TORSDOF 8
