REMARK  Name = ZINC39360706
REMARK  6 active torsions:
REMARK  status: ('A' for Active; 'I' for Inactive)
REMARK    1  A    between atoms: C_1  and  C_2
REMARK    2  A    between atoms: C_2  and  C_35
REMARK    3  A    between atoms: C_6  and  C_26
REMARK    4  A    between atoms: C_12  and  S_16
REMARK    5  A    between atoms: S_16  and  C_17
REMARK    6  A    between atoms: C_17  and  C_18
REMARK                            x       y       z     vdW  Elec       q    Type
REMARK                         _______ _______ _______ _____ _____    ______ ____
ROOT
ATOM      1  C   UNL     1      -0.019   1.526   0.010  0.00  0.00    +0.011 C 
ATOM      2  C   UNL     1       0.002  -0.004   0.002  0.00  0.00    -0.023 C 
ATOM      3  C   UNL     1       0.742  -0.503  -1.240  0.00  0.00    +0.058 C 
ATOM      4  C   UNL     1       2.170  -0.011  -1.214  0.00  0.00    +0.017 C 
ATOM      5  C   UNL     1       2.812   0.196  -0.048  0.00  0.00    +0.021 C 
ATOM      6  C   UNL     1       4.234   0.704   0.008  0.00  0.00    +0.073 C 
ATOM      7  C   UNL     1       4.955   0.411  -1.309  0.00  0.00    +0.152 C 
ATOM      8  C   UNL     1       4.020   0.794  -2.432  0.00  0.00    +0.115 C 
ATOM      9  N   UNL     1       4.357   1.651  -3.346  0.00  0.00    -0.213 NA
ATOM     10  C   UNL     1       5.542   2.276  -3.337  0.00  0.00    +0.182 C 
ATOM     11  N   UNL     1       6.437   2.066  -2.381  0.00  0.00    -0.154 NA
ATOM     12  C   UNL     1       6.226   1.204  -1.392  0.00  0.00    +0.250 C 
ATOM     13  O   UNL     1       7.075   1.055  -0.534  0.00  0.00    -0.273 OA
ATOM     14  N   UNL     1       2.788   0.201  -2.427  0.00  0.00    -0.305 N 
ATOM     15  C   UNL     1       2.171  -0.052   1.183  0.00  0.00    +0.162 C 
ATOM     16  O   UNL     1       2.785   0.115   2.218  0.00  0.00    -0.292 OA
ATOM     17  C   UNL     1       0.742  -0.517   1.242  0.00  0.00    +0.086 C 
ATOM     18  C   UNL     1      -1.431  -0.539  -0.001  0.00  0.00    +0.011 C 
ATOM     19  H   UNL     1       2.360  -0.064  -3.256  0.00  0.00    +0.153 HD
ENDROOT
BRANCH   6  20
ATOM     20  C   UNL     1       4.964   0.019   1.135  0.00  0.00    -0.036 A 
ATOM     21  C   UNL     1       5.113  -1.359   1.150  0.00  0.00    +0.024 A 
ATOM     22  C   UNL     1       5.788  -1.952   2.200  0.00  0.00    +0.111 A 
ATOM     23  N   UNL     1       6.287  -1.223   3.179  0.00  0.00    -0.263 NA
ATOM     24  C   UNL     1       6.164   0.090   3.198  0.00  0.00    +0.111 A 
ATOM     25  C   UNL     1       5.507   0.753   2.179  0.00  0.00    +0.024 A 
ENDBRANCH   6  20
BRANCH  10  26
ATOM     26  S   UNL     1       5.923   3.409  -4.631  0.00  0.00    -0.084 S 
BRANCH  26  27
ATOM     27  C   UNL     1       7.588   4.001  -4.221  0.00  0.00    +0.113 C 
BRANCH  27  28
ATOM     28  C   UNL     1       8.040   4.991  -5.263  0.00  0.00    -0.019 A 
ATOM     29  C   UNL     1       8.718   4.552  -6.385  0.00  0.00    +0.006 A 
ATOM     30  C   UNL     1       9.133   5.460  -7.341  0.00  0.00    +0.000 A 
ATOM     31  C   UNL     1       8.870   6.807  -7.177  0.00  0.00    +0.001 A 
ATOM     32  C   UNL     1       8.192   7.247  -6.056  0.00  0.00    +0.020 A 
ATOM     33  C   UNL     1       7.772   6.338  -5.101  0.00  0.00    +0.045 A 
ATOM     34 CL   UNL     1       6.914   6.889  -3.696  0.00  0.00    -0.083 Cl
ENDBRANCH  27  28
ENDBRANCH  26  27
ENDBRANCH  10  26
TORSDOF 4
