REMARK  Name = ZINC15306179
REMARK  8 active torsions:
REMARK  status: ('A' for Active; 'I' for Inactive)
REMARK    1  A    between atoms: C_1  and  O_2
REMARK    2  A    between atoms: O_2  and  C_3
REMARK    3  A    between atoms: C_6  and  C_9
REMARK    4  A    between atoms: C_14  and  O_41
REMARK    5  A    between atoms: C_15  and  O_40
REMARK    6  A    between atoms: C_26  and  C_32
REMARK    7  A    between atoms: C_35  and  O_38
REMARK    8  A    between atoms: O_38  and  C_39
REMARK                            x       y       z     vdW  Elec       q    Type
REMARK                         _______ _______ _______ _____ _____    ______ ____
ROOT
ATOM      1  C   UNL     1       5.346   3.378   0.531  0.00  0.00    +0.061 C 
ATOM      2  C   UNL     1       6.052   3.009  -0.748  0.00  0.00    +0.006 A 
ATOM      3  C   UNL     1       5.291   2.692  -1.863  0.00  0.00    +0.011 A 
ATOM      4  C   UNL     1       5.901   2.352  -3.054  0.00  0.00    +0.050 A 
ATOM      5  C   UNL     1       7.285   2.327  -3.140  0.00  0.00    +0.162 A 
ATOM      6  C   UNL     1       8.052   2.643  -2.027  0.00  0.00    +0.201 A 
ATOM      7  C   UNL     1       7.433   2.983  -0.825  0.00  0.00    +0.172 A 
ATOM      8  O   UNL     1       8.215   3.278   0.245  0.00  0.00    -0.464 OA
ATOM      9  C   UNL     1       7.620   3.944   1.357  0.00  0.00    +0.186 C 
ATOM     10  C   UNL     1       6.307   3.240   1.716  0.00  0.00    +0.064 C 
ATOM     11  C   UNL     1       5.689   3.933   2.935  0.00  0.00    +0.010 C 
ATOM     12  C   UNL     1       5.371   5.381   2.552  0.00  0.00    +0.001 C 
ATOM     13  C   UNL     1       6.675   6.097   2.199  0.00  0.00    +0.011 C 
ATOM     14  C   UNL     1       7.341   5.407   1.004  0.00  0.00    +0.077 C 
ATOM     15  C   UNL     1       8.687   6.088   0.713  0.00  0.00    +0.111 C 
ATOM     16  N   UNL     1       9.562   5.921   1.875  0.00  0.00    -0.319 N 
ATOM     17  C   UNL     1       9.445   4.864   2.693  0.00  0.00    +0.134 C 
ATOM     18  S   UNL     1      10.501   4.744   4.035  0.00  0.00    -0.019 S 
ATOM     19  N   UNL     1       8.534   3.897   2.500  0.00  0.00    -0.289 N 
ATOM     20  H   UNL     1      10.240   6.589   2.058  0.00  0.00    +0.148 HD
ATOM     21  H   UNL     1       8.481   3.158   3.126  0.00  0.00    +0.151 HD
ENDROOT
BRANCH   1  25
ATOM     22  C   UNL     1       2.002   0.780   1.106  0.00  0.00    +0.120 A 
ATOM     23  C   UNL     1       3.285   0.257   1.040  0.00  0.00    +0.046 A 
ATOM     24  C   UNL     1       4.364   1.098   0.848  0.00  0.00    +0.008 A 
ATOM     25  C   UNL     1       4.166   2.462   0.734  0.00  0.00    -0.039 A 
ATOM     26  C   UNL     1       2.889   2.986   0.804  0.00  0.00    +0.008 A 
ATOM     27  C   UNL     1       1.806   2.149   0.990  0.00  0.00    +0.046 A 
BRANCH  22  29
ATOM     28  C   UNL     1       1.214  -1.444   1.400  0.00  0.00    +0.277 C 
ATOM     29  O   UNL     1       0.938  -0.046   1.289  0.00  0.00    -0.495 OA
ENDBRANCH  22  29
ENDBRANCH   1  25
BRANCH  15  30
ATOM     30  C   UNL     1       9.324   5.452  -0.495  0.00  0.00    -0.027 A 
ATOM     31  C   UNL     1      10.486   4.716  -0.355  0.00  0.00    +0.009 A 
ATOM     32  C   UNL     1      11.069   4.127  -1.460  0.00  0.00    +0.046 A 
ATOM     33  C   UNL     1      10.494   4.284  -2.713  0.00  0.00    +0.120 A 
ATOM     34  C   UNL     1       9.331   5.027  -2.852  0.00  0.00    +0.046 A 
ATOM     35  C   UNL     1       8.748   5.610  -1.743  0.00  0.00    +0.009 A 
BRANCH  33  36
ATOM     36  O   UNL     1      11.069   3.710  -3.803  0.00  0.00    -0.495 OA
ATOM     37  C   UNL     1      12.265   2.959  -3.585  0.00  0.00    +0.277 C 
ENDBRANCH  33  36
ENDBRANCH  15  30
BRANCH   6  38
ATOM     38  O   UNL     1       9.410   2.620  -2.110  0.00  0.00    -0.501 OA
ATOM     39  H   UNL     1       9.803   1.764  -1.893  0.00  0.00    +0.292 HD
ENDBRANCH   6  38
BRANCH   5  40
ATOM     40  O   UNL     1       7.889   1.996  -4.313  0.00  0.00    -0.503 OA
ATOM     41  H   UNL     1       8.063   2.750  -4.893  0.00  0.00    +0.292 HD
ENDBRANCH   5  40
TORSDOF 6
