REMARK  Name = ZINC01474504
REMARK  13 active torsions:
REMARK  status: ('A' for Active; 'I' for Inactive)
REMARK    1  A    between atoms: C_1  and  C_2
REMARK    2  A    between atoms: C_2  and  O_3
REMARK    3  A    between atoms: O_3  and  C_4
REMARK    4  A    between atoms: C_7  and  N_10
REMARK    5  A    between atoms: C_11  and  C_31
REMARK    6  A    between atoms: C_14  and  S_15
REMARK    7  A    between atoms: S_15  and  C_16
REMARK    8  A    between atoms: C_16  and  C_17
REMARK    9  A    between atoms: N_19  and  N_20
REMARK   10  A    between atoms: C_21  and  C_22
REMARK   11  A    between atoms: C_25  and  N_28
REMARK   12  A    between atoms: N_28  and  C_29
REMARK   13  A    between atoms: N_28  and  C_30
REMARK                            x       y       z     vdW  Elec       q    Type
REMARK                         _______ _______ _______ _____ _____    ______ ____
ROOT
ATOM      1  N   UNL     1       0.069   0.108   0.004  0.00  0.00    -0.270 N 
ATOM      2  C   UNL     1      -0.525  -0.724  -0.920  0.00  0.00    +0.171 A 
ATOM      3  N   UNL     1      -0.317  -1.956  -0.519  0.00  0.00    -0.128 NA
ATOM      4  N   UNL     1       0.349  -1.954   0.581  0.00  0.00    -0.122 NA
ATOM      5  C   UNL     1       0.612  -0.720   0.948  0.00  0.00    +0.197 A 
ENDROOT
BRANCH   1   9
ATOM      6  C   UNL     1       0.175   4.278  -0.055  0.00  0.00    +0.121 A 
ATOM      7  C   UNL     1       1.343   3.552  -0.240  0.00  0.00    +0.047 A 
ATOM      8  C   UNL     1       1.308   2.171  -0.220  0.00  0.00    +0.030 A 
ATOM      9  C   UNL     1       0.105   1.510  -0.016  0.00  0.00    +0.051 A 
ATOM     10  C   UNL     1      -1.064   2.237   0.163  0.00  0.00    +0.030 A 
ATOM     11  C   UNL     1      -1.028   3.617   0.149  0.00  0.00    +0.047 A 
BRANCH   6  12
ATOM     12  O   UNL     1       0.209   5.636  -0.075  0.00  0.00    -0.492 OA
BRANCH  12  14
ATOM     13  C   UNL     1      -0.794   7.830   0.068  0.00  0.00    +0.048 C 
ATOM     14  C   UNL     1      -1.030   6.320   0.122  0.00  0.00    +0.225 C 
ENDBRANCH  12  14
ENDBRANCH   6  12
ENDBRANCH   1   9
BRANCH   2  15
ATOM     15  C   UNL     1      -1.255  -0.307  -2.136  0.00  0.00    +0.038 A 
ATOM     16  C   UNL     1      -1.099   0.985  -2.652  0.00  0.00    +0.014 A 
ATOM     17  C   UNL     1      -1.805   1.326  -3.792  0.00  0.00    +0.020 A 
ATOM     18  C   UNL     1      -2.635   0.387  -4.380  0.00  0.00    +0.111 A 
ATOM     19  N   UNL     1      -2.762  -0.823  -3.872  0.00  0.00    -0.263 NA
ATOM     20  C   UNL     1      -2.107  -1.196  -2.792  0.00  0.00    +0.122 A 
ENDBRANCH   2  15
BRANCH   5  21
ATOM     21  S   UNL     1       1.500  -0.224   2.387  0.00  0.00    -0.076 S 
BRANCH  21  22
ATOM     22  C   UNL     1       1.875  -1.845   3.099  0.00  0.00    +0.174 C 
BRANCH  22  23
ATOM     23  C   UNL     1       2.655  -1.665   4.376  0.00  0.00    +0.242 C 
ATOM     24  O   UNL     1       2.929  -0.550   4.767  0.00  0.00    -0.273 OA
ATOM     25  N   UNL     1       3.046  -2.743   5.084  0.00  0.00    -0.206 N 
ATOM     26  H   UNL     1       2.827  -3.634   4.772  0.00  0.00    +0.177 HD
BRANCH  25  27
ATOM     27  N   UNL     1       3.771  -2.575   6.272  0.00  0.00    -0.188 NA
ATOM     28  C   UNL     1       4.148  -3.613   6.954  0.00  0.00    +0.138 C 
BRANCH  28  29
ATOM     29  C   UNL     1       4.910  -3.436   8.203  0.00  0.00    -0.005 A 
ATOM     30  C   UNL     1       5.232  -2.152   8.652  0.00  0.00    +0.011 A 
ATOM     31  C   UNL     1       5.940  -1.991   9.822  0.00  0.00    +0.024 A 
ATOM     32  C   UNL     1       6.343  -3.104  10.552  0.00  0.00    +0.029 A 
ATOM     33  C   UNL     1       6.029  -4.384  10.106  0.00  0.00    +0.024 A 
ATOM     34  C   UNL     1       5.317  -4.553   8.939  0.00  0.00    +0.011 A 
BRANCH  32  35
ATOM     35  N   UNL     1       7.065  -2.937  11.734  0.00  0.00    -0.336 N 
ATOM     36  C   UNL     1       7.590  -4.107  12.443  0.00  0.00    +0.129 C 
ATOM     37  C   UNL     1       7.297  -1.592  12.267  0.00  0.00    +0.129 C 
ENDBRANCH  32  35
ENDBRANCH  28  29
ENDBRANCH  25  27
ENDBRANCH  22  23
ENDBRANCH  21  22
ENDBRANCH   5  21
TORSDOF 10
