REMARK  Name = ZINC13495827
REMARK  12 active torsions:
REMARK  status: ('A' for Active; 'I' for Inactive)
REMARK    1  A    between atoms: C_1  and  C_2
REMARK    2  A    between atoms: C_2  and  C_3
REMARK    3  A    between atoms: C_3  and  C_5
REMARK    4  A    between atoms: C_3  and  N_69
REMARK    5  A    between atoms: N_9  and  C_10
REMARK    6  A    between atoms: C_10  and  C_11
REMARK    7  A    between atoms: C_18  and  C_19
REMARK    8  A    between atoms: C_18  and  N_69
REMARK    9  A    between atoms: C_19  and  C_20
REMARK   10  A    between atoms: C_26  and  C_27
REMARK   11  A    between atoms: C_26  and  N_69
REMARK   12  A    between atoms: C_31  and  C_39
REMARK                            x       y       z     vdW  Elec       q    Type
REMARK                         _______ _______ _______ _____ _____    ______ ____
ROOT
ATOM      1  N   UNL     1      -2.975   4.255   1.623  0.00  0.00    +0.389 N 
ATOM      2  H   UNL     1      -3.141   3.369   2.115  0.00  0.00    -0.080 HD
ENDROOT
BRANCH   1   3
ATOM      3  C   UNL     1      -4.277   4.874   1.297  0.00  0.00    +0.003 C 
BRANCH   3   4
ATOM      4  C   UNL     1      -5.265   3.780   0.986  0.00  0.00    +0.138 A 
ATOM      5  N   UNL     1      -5.076   2.759   0.186  0.00  0.00    -0.115 NA
ATOM      6  N   UNL     1      -6.152   2.050   0.184  0.00  0.00    -0.023 NA
ATOM      7  N   UNL     1      -7.022   2.592   0.962  0.00  0.00    -0.044 NA
ATOM      8  N   UNL     1      -6.511   3.659   1.479  0.00  0.00    -0.226 N 
BRANCH   8   9
ATOM      9  C   UNL     1      -7.166   4.568   2.422  0.00  0.00    +0.182 C 
BRANCH   9  10
ATOM     10  C   UNL     1      -7.895   5.644   1.659  0.00  0.00    -0.026 A 
ATOM     11  C   UNL     1      -7.247   6.823   1.339  0.00  0.00    +0.008 A 
ATOM     12  C   UNL     1      -7.913   7.808   0.635  0.00  0.00    +0.038 A 
ATOM     13  C   UNL     1      -9.233   7.619   0.260  0.00  0.00    +0.123 A 
ATOM     14  C   UNL     1      -9.882   6.440   0.587  0.00  0.00    +0.038 A 
ATOM     15  C   UNL     1      -9.212   5.454   1.286  0.00  0.00    +0.008 A 
ATOM     16  F   UNL     1      -9.886   8.584  -0.424  0.00  0.00    -0.205 F 
ENDBRANCH   9  10
ENDBRANCH   8   9
ENDBRANCH   3   4
BRANCH   3  18
ATOM     17  C   UNL     1      -3.244   6.984   0.447  0.00  0.00    +0.002 C 
ATOM     18  C   UNL     1      -4.140   5.798   0.085  0.00  0.00    -0.011 C 
ENDBRANCH   3  18
ENDBRANCH   1   3
BRANCH   1  19
ATOM     19  C   UNL     1      -2.194   5.152   2.501  0.00  0.00    -0.073 C 
BRANCH  19  20
ATOM     20  C   UNL     1      -2.900   5.257   3.854  0.00  0.00    +0.016 C 
BRANCH  20  21
ATOM     21  C   UNL     1      -2.038   6.038   4.811  0.00  0.00    -0.049 A 
ATOM     22  C   UNL     1      -1.119   5.381   5.608  0.00  0.00    +0.003 A 
ATOM     23  C   UNL     1      -0.324   6.098   6.483  0.00  0.00    +0.000 A 
ATOM     24  C   UNL     1      -0.456   7.471   6.568  0.00  0.00    +0.000 A 
ATOM     25  C   UNL     1      -1.379   8.128   5.776  0.00  0.00    +0.000 A 
ATOM     26  C   UNL     1      -2.169   7.411   4.897  0.00  0.00    +0.003 A 
ENDBRANCH  20  21
ENDBRANCH  19  20
ENDBRANCH   1  19
BRANCH   1  27
ATOM     27  C   UNL     1      -2.221   3.980   0.382  0.00  0.00    -0.037 C 
BRANCH  27  28
ATOM     28  C   UNL     1      -1.069   3.065   0.707  0.00  0.00    +0.001 A 
ATOM     29  C   UNL     1      -1.212   1.723   0.569  0.00  0.00    +0.017 A 
ATOM     30  C   UNL     1      -0.072   0.862   0.886  0.00  0.00    -0.001 A 
ATOM     31  C   UNL     1      -0.157  -0.528   0.755  0.00  0.00    +0.013 A 
ATOM     32  C   UNL     1       0.924  -1.305   1.065  0.00  0.00    -0.050 A 
ATOM     33  C   UNL     1       2.106  -0.727   1.507  0.00  0.00    +0.005 A 
ATOM     34  C   UNL     1       2.212   0.641   1.643  0.00  0.00    +0.026 A 
ATOM     35  C   UNL     1       1.125   1.452   1.334  0.00  0.00    +0.049 A 
ATOM     36  N   UNL     1       1.204   2.822   1.461  0.00  0.00    -0.322 N 
ATOM     37  H   UNL     1       2.029   3.227   1.770  0.00  0.00    +0.169 HD
ATOM     38  C   UNL     1       0.153   3.606   1.161  0.00  0.00    +0.251 A 
ATOM     39  O   UNL     1       0.259   4.814   1.284  0.00  0.00    -0.268 OA
ATOM     40  C   UNL     1       0.832  -2.802   0.924  0.00  0.00    +0.044 C 
ENDBRANCH  27  28
ENDBRANCH   1  27
TORSDOF 10
