REMARK  Name = ZINC40101614
REMARK  15 active torsions:
REMARK  status: ('A' for Active; 'I' for Inactive)
REMARK    1  A    between atoms: C_1  and  C_2
REMARK    2  A    between atoms: C_2  and  C_3
REMARK    3  A    between atoms: C_3  and  C_4
REMARK    4  A    between atoms: C_4  and  O_5
REMARK    5  A    between atoms: O_5  and  C_6
REMARK    6  A    between atoms: C_10  and  C_12
REMARK    7  A    between atoms: C_12  and  C_14
REMARK    8  A    between atoms: N_18  and  C_30
REMARK    9  A    between atoms: C_19  and  C_21
REMARK   10  A    between atoms: C_24  and  N_27
REMARK   11  A    between atoms: C_30  and  C_31
REMARK   12  A    between atoms: C_31  and  O_32
REMARK   13  A    between atoms: O_32  and  C_33
REMARK   14  A    between atoms: C_33  and  C_34
REMARK   15  A    between atoms: C_34  and  O_35
REMARK                            x       y       z     vdW  Elec       q    Type
REMARK                         _______ _______ _______ _____ _____    ______ ____
ROOT
ATOM      1  C   UNL     1      -5.979  -7.891  -0.038  0.00  0.00    +0.076 C 
ATOM      2  C   UNL     1      -7.180  -8.511  -0.123  0.00  0.00    +0.249 C 
ATOM      3  C   UNL     1      -6.969  -9.973  -0.180  0.00  0.00    +0.288 C 
ATOM      4  O   UNL     1      -7.853 -10.803  -0.260  0.00  0.00    -0.266 OA
ATOM      5  N   UNL     1      -5.653 -10.249  -0.130  0.00  0.00    -0.281 N 
ATOM      6  C   UNL     1      -4.928  -8.976  -0.044  0.00  0.00    +0.145 C 
ATOM      7  O   UNL     1      -8.382  -7.891  -0.151  0.00  0.00    -0.282 OA
ENDROOT
BRANCH   6   8
ATOM      8  C   UNL     1      -4.125  -8.926   1.231  0.00  0.00    -0.022 A 
ATOM      9  C   UNL     1      -4.608  -9.530   2.376  0.00  0.00    +0.008 A 
ATOM     10  C   UNL     1      -3.872  -9.484   3.545  0.00  0.00    +0.033 A 
ATOM     11  C   UNL     1      -2.652  -8.834   3.568  0.00  0.00    +0.126 A 
ATOM     12  C   UNL     1      -2.168  -8.231   2.422  0.00  0.00    +0.033 A 
ATOM     13  C   UNL     1      -2.903  -8.280   1.252  0.00  0.00    +0.008 A 
BRANCH  11  14
ATOM     14  N   UNL     1      -1.863  -8.784   4.820  0.00  0.00    +0.056 N 
ATOM     15  O   UNL     1      -2.287  -9.311   5.822  0.00  0.00    -0.126 OA
ATOM     16  O   UNL     1      -0.797  -8.216   4.840  0.00  0.00    -0.126 OA
ENDBRANCH  11  14
ENDBRANCH   6   8
BRANCH   1  17
ATOM     17  C   UNL     1      -5.745  -6.447   0.038  0.00  0.00    +0.195 C 
ATOM     18  O   UNL     1      -6.099  -5.824   1.021  0.00  0.00    -0.287 OA
BRANCH  17  23
ATOM     19  C   UNL     1      -4.299  -3.710  -2.097  0.00  0.00    +0.121 A 
ATOM     20  C   UNL     1      -3.825  -4.438  -3.180  0.00  0.00    +0.046 A 
ATOM     21  C   UNL     1      -3.975  -5.812  -3.215  0.00  0.00    +0.004 A 
ATOM     22  C   UNL     1      -4.597  -6.469  -2.174  0.00  0.00    +0.012 A 
ATOM     23  C   UNL     1      -5.077  -5.746  -1.080  0.00  0.00    +0.026 A 
ATOM     24  C   UNL     1      -4.920  -4.359  -1.044  0.00  0.00    +0.057 A 
BRANCH  19  25
ATOM     25  O   UNL     1      -4.149  -2.359  -2.068  0.00  0.00    -0.492 OA
BRANCH  25  26
ATOM     26  C   UNL     1      -3.500  -1.755  -3.188  0.00  0.00    +0.229 C 
BRANCH  26  27
ATOM     27  C   UNL     1      -3.423  -0.241  -2.978  0.00  0.00    +0.041 C 
BRANCH  27  29
ATOM     28  C   UNL     1      -2.652   1.919  -3.967  0.00  0.00    +0.004 C 
ATOM     29  C   UNL     1      -2.728   0.406  -4.177  0.00  0.00    -0.000 C 
ENDBRANCH  27  29
ENDBRANCH  26  27
ENDBRANCH  25  26
ENDBRANCH  19  25
ENDBRANCH  17  23
ENDBRANCH   1  17
BRANCH   5  30
ATOM     30  C   UNL     1      -5.051 -11.584  -0.161  0.00  0.00    +0.137 C 
BRANCH  30  31
ATOM     31  C   UNL     1      -4.772 -11.984  -1.612  0.00  0.00    +0.179 C 
BRANCH  31  32
ATOM     32  O   UNL     1      -3.786 -11.111  -2.166  0.00  0.00    -0.376 OA
BRANCH  32  33
ATOM     33  C   UNL     1      -3.451 -11.400  -3.525  0.00  0.00    +0.187 C 
BRANCH  33  34
ATOM     34  C   UNL     1      -2.392 -10.409  -4.011  0.00  0.00    +0.184 C 
BRANCH  34  35
ATOM     35  O   UNL     1      -1.183 -10.604  -3.274  0.00  0.00    -0.393 OA
ATOM     36  H   UNL     1      -0.466 -10.007  -3.530  0.00  0.00    +0.209 HD
ENDBRANCH  34  35
ENDBRANCH  33  34
ENDBRANCH  32  33
ENDBRANCH  31  32
ENDBRANCH  30  31
ENDBRANCH   5  30
TORSDOF 14
