REMARK  Name = ZINC39940814
REMARK  5 active torsions:
REMARK  status: ('A' for Active; 'I' for Inactive)
REMARK    1  A    between atoms: C_4  and  N_7
REMARK    2  A    between atoms: C_8  and  S_22
REMARK    3  A    between atoms: S_22  and  C_23
REMARK    4  A    between atoms: C_23  and  C_24
REMARK    5  A    between atoms: C_24  and  C_26
REMARK                            x       y       z     vdW  Elec       q    Type
REMARK                         _______ _______ _______ _____ _____    ______ ____
ROOT
ATOM      1  N   UNL     1       3.621  -0.650  -0.037  0.00  0.00    -0.239 N 
ATOM      2  C   UNL     1       3.603  -2.106   0.061  0.00  0.00    +0.227 C 
ATOM      3  N   UNL     1       4.711  -2.708  -0.702  0.00  0.00    -0.311 N 
ATOM      4  C   UNL     1       5.912  -2.042  -0.677  0.00  0.00    +0.080 A 
ATOM      5  C   UNL     1       6.008  -0.668  -0.415  0.00  0.00    +0.069 A 
ATOM      6  C   UNL     1       7.354  -0.117  -0.436  0.00  0.00    -0.023 A 
ATOM      7  C   UNL     1       8.325  -1.018  -0.702  0.00  0.00    -0.005 A 
ATOM      8  S   UNL     1       7.472  -2.556  -0.918  0.00  0.00    -0.078 S 
ATOM      9  C   UNL     1       9.796  -0.755  -0.792  0.00  0.00    +0.043 C 
ATOM     10  C   UNL     1      10.011   0.761  -0.906  0.00  0.00    +0.005 C 
ATOM     11  C   UNL     1       9.170   1.462   0.165  0.00  0.00    +0.005 C 
ATOM     12  C   UNL     1       7.684   1.347  -0.183  0.00  0.00    +0.037 C 
ATOM     13  C   UNL     1       4.755   0.072  -0.149  0.00  0.00    +0.256 C 
ATOM     14  O   UNL     1       4.749   1.284  -0.031  0.00  0.00    -0.269 OA
ATOM     15  H   UNL     1       4.598  -3.534  -1.197  0.00  0.00    +0.149 HD
ENDROOT
BRANCH   1  19
ATOM     16  C   UNL     1      -0.017   1.377   0.011  0.00  0.00    +0.000 A 
ATOM     17  C   UNL     1       0.516   0.945  -1.190  0.00  0.00    +0.002 A 
ATOM     18  C   UNL     1       1.722   0.273  -1.209  0.00  0.00    +0.023 A 
ATOM     19  C   UNL     1       2.400   0.031  -0.021  0.00  0.00    +0.039 A 
ATOM     20  C   UNL     1       1.862   0.467   1.183  0.00  0.00    +0.023 A 
ATOM     21  C   UNL     1       0.655   1.138   1.196  0.00  0.00    +0.002 A 
ENDBRANCH   1  19
BRANCH   2  22
ATOM     22  S   UNL     1       3.755  -2.586   1.804  0.00  0.00    -0.111 S 
BRANCH  22  23
ATOM     23  C   UNL     1       5.346  -1.881   2.316  0.00  0.00    +0.151 C 
BRANCH  23  24
ATOM     24  C   UNL     1       5.598  -2.211   3.765  0.00  0.00    +0.171 C 
ATOM     25  O   UNL     1       4.784  -2.858   4.391  0.00  0.00    -0.291 OA
BRANCH  24  26
ATOM     26  C   UNL     1       6.781  -1.767   4.393  0.00  0.00    +0.024 C 
ATOM     27  C   UNL     1       7.165  -1.987   5.704  0.00  0.00    +0.006 A 
ATOM     28  C   UNL     1       6.558  -2.674   6.782  0.00  0.00    +0.010 A 
ATOM     29  C   UNL     1       7.172  -2.731   7.985  0.00  0.00    +0.001 A 
ATOM     30  C   UNL     1       8.417  -2.127   8.226  0.00  0.00    +0.002 A 
ATOM     31  C   UNL     1       9.079  -1.447   7.265  0.00  0.00    +0.026 A 
ATOM     32  C   UNL     1       8.480  -1.337   5.925  0.00  0.00    +0.043 A 
ATOM     33  N   UNL     1       8.890  -0.754   4.834  0.00  0.00    -0.380 N 
ATOM     34  C   UNL     1       7.899  -0.957   3.773  0.00  0.00    +0.152 C 
ATOM     35  H   UNL     1       9.722  -0.265   4.738  0.00  0.00    +0.160 HD
ENDBRANCH  24  26
ENDBRANCH  23  24
ENDBRANCH  22  23
ENDBRANCH   2  22
TORSDOF 5
