REMARK  Name = ZINC59223909
REMARK  7 active torsions:
REMARK  status: ('A' for Active; 'I' for Inactive)
REMARK    1  A    between atoms: C_1  and  C_2
REMARK    2  A    between atoms: C_5  and  N_9
REMARK    3  A    between atoms: C_7  and  C_8
REMARK    4  A    between atoms: C_15  and  C_16
REMARK    5  A    between atoms: C_20  and  O_22
REMARK    6  A    between atoms: O_22  and  C_23
REMARK    7  A    between atoms: C_23  and  C_24
REMARK                            x       y       z     vdW  Elec       q    Type
REMARK                         _______ _______ _______ _____ _____    ______ ____
ROOT
ATOM      1  N   UNL     1      -0.032  -4.151   0.077  0.00  0.00    -0.226 NA
ATOM      2  C   UNL     1      -0.851  -4.820  -0.702  0.00  0.00    +0.166 C 
ATOM      3  N   UNL     1      -1.967  -4.361  -1.367  0.00  0.00    -0.260 N 
ATOM      4  C   UNL     1      -2.688  -5.176  -2.119  0.00  0.00    +0.256 C 
ATOM      5  O   UNL     1      -3.675  -4.788  -2.713  0.00  0.00    -0.269 OA
ATOM      6  C   UNL     1      -2.238  -6.581  -2.203  0.00  0.00    +0.078 C 
ATOM      7  C   UNL     1      -2.778  -7.618  -2.889  0.00  0.00    +0.028 C 
ATOM      8  S   UNL     1      -0.785  -6.544  -1.162  0.00  0.00    -0.049 S 
ATOM      9  H   UNL     1      -2.226  -3.430  -1.284  0.00  0.00    +0.157 HD
ENDROOT
BRANCH   1  14
ATOM     10  C   UNL     1      -0.921   1.337   1.058  0.00  0.00    +0.044 C 
ATOM     11  C   UNL     1      -0.684  -0.128   0.796  0.00  0.00    -0.047 A 
ATOM     12  C   UNL     1      -0.785  -0.623  -0.492  0.00  0.00    +0.006 A 
ATOM     13  C   UNL     1      -0.569  -1.962  -0.739  0.00  0.00    +0.028 A 
ATOM     14  C   UNL     1      -0.247  -2.821   0.315  0.00  0.00    +0.067 A 
ATOM     15  C   UNL     1      -0.147  -2.314   1.613  0.00  0.00    +0.031 A 
ATOM     16  C   UNL     1      -0.361  -0.971   1.844  0.00  0.00    -0.046 A 
ATOM     17  C   UNL     1      -0.247  -0.422   3.243  0.00  0.00    +0.044 C 
ENDBRANCH   1  14
BRANCH   7  18
ATOM     18  C   UNL     1      -3.884  -7.381  -3.829  0.00  0.00    -0.020 A 
ATOM     19  C   UNL     1      -3.876  -6.250  -4.652  0.00  0.00    +0.008 A 
ATOM     20  C   UNL     1      -4.915  -6.032  -5.532  0.00  0.00    +0.004 A 
ATOM     21  C   UNL     1      -5.966  -6.928  -5.604  0.00  0.00    +0.046 A 
ATOM     22  C   UNL     1      -5.984  -8.054  -4.791  0.00  0.00    +0.122 A 
ATOM     23  C   UNL     1      -4.945  -8.288  -3.908  0.00  0.00    +0.053 A 
BRANCH  22  24
ATOM     24  O   UNL     1      -7.021  -8.930  -4.867  0.00  0.00    -0.487 OA
BRANCH  24  25
ATOM     25  C   UNL     1      -8.057  -8.629  -5.805  0.00  0.00    +0.266 C 
BRANCH  25  26
ATOM     26  C   UNL     1      -9.112  -9.703  -5.748  0.00  0.00    +0.008 A 
ATOM     27  C   UNL     1      -8.975 -10.761  -4.870  0.00  0.00    +0.010 A 
ATOM     28  C   UNL     1      -9.943 -11.747  -4.818  0.00  0.00    +0.020 A 
ATOM     29  C   UNL     1     -11.050 -11.674  -5.645  0.00  0.00    +0.042 A 
ATOM     30  C   UNL     1     -11.188 -10.615  -6.524  0.00  0.00    +0.040 A 
ATOM     31  C   UNL     1     -10.221  -9.627  -6.572  0.00  0.00    +0.049 A 
ATOM     32 CL   UNL     1     -10.396  -8.294  -7.671  0.00  0.00    -0.083 Cl
ATOM     33 CL   UNL     1     -12.265 -12.912  -5.580  0.00  0.00    -0.083 Cl
ENDBRANCH  25  26
ENDBRANCH  24  25
ENDBRANCH  22  24
ENDBRANCH   7  18
TORSDOF 5
