REMARK  Name = ZINC35794575
REMARK  10 active torsions:
REMARK  status: ('A' for Active; 'I' for Inactive)
REMARK    1  A    between atoms: C_1  and  C_2
REMARK    2  A    between atoms: C_2  and  C_4
REMARK    3  A    between atoms: C_2  and  N_10
REMARK    4  A    between atoms: C_11  and  C_13
REMARK    5  A    between atoms: C_16  and  C_18
REMARK    6  A    between atoms: C_18  and  N_19
REMARK    7  A    between atoms: C_22  and  C_30
REMARK    8  A    between atoms: C_30  and  C_32
REMARK    9  A    between atoms: C_32  and  O_33
REMARK   10  A    between atoms: O_33  and  C_34
REMARK                            x       y       z     vdW  Elec       q    Type
REMARK                         _______ _______ _______ _____ _____    ______ ____
ROOT
ATOM      1  N   UNL     1       4.369  -1.106  -5.905  0.00  0.00    -0.258 N 
ATOM      2  C   UNL     1       4.263  -0.705  -7.245  0.00  0.00    +0.079 A 
ATOM      3  C   UNL     1       3.232  -1.167  -8.037  0.00  0.00    +0.038 A 
ATOM      4  C   UNL     1       3.145  -0.755  -9.373  0.00  0.00    +0.023 A 
ATOM      5  C   UNL     1       4.103   0.122  -9.895  0.00  0.00    +0.015 A 
ATOM      6  C   UNL     1       5.129   0.579  -9.097  0.00  0.00    +0.048 A 
ATOM      7  C   UNL     1       5.215   0.171  -7.773  0.00  0.00    +0.143 A 
ATOM      8  O   UNL     1       6.221   0.619  -6.978  0.00  0.00    -0.481 OA
ATOM      9  C   UNL     1       5.915   0.799  -5.593  0.00  0.00    +0.325 C 
ATOM     10  C   UNL     1       5.173  -0.406  -5.075  0.00  0.00    +0.258 C 
ATOM     11  O   UNL     1       5.300  -0.749  -3.918  0.00  0.00    -0.271 OA
ENDROOT
BRANCH   4  12
ATOM     12  C   UNL     1       2.052  -1.242 -10.224  0.00  0.00    +0.200 C 
ATOM     13  O   UNL     1       1.222  -2.003  -9.770  0.00  0.00    -0.288 OA
BRANCH  12  14
ATOM     14  C   UNL     1       1.960  -0.798 -11.661  0.00  0.00    +0.308 C 
BRANCH  14  15
ATOM     15  O   UNL     1       0.820  -1.403 -12.275  0.00  0.00    -0.484 OA
BRANCH  15  16
ATOM     16  C   UNL     1       0.592  -1.104 -13.581  0.00  0.00    +0.121 A 
ATOM     17  C   UNL     1       1.450  -0.251 -14.259  0.00  0.00    +0.045 A 
ATOM     18  C   UNL     1       1.215   0.051 -15.586  0.00  0.00    +0.004 A 
ATOM     19  C   UNL     1       0.126  -0.496 -16.239  0.00  0.00    +0.000 A 
ATOM     20  C   UNL     1      -0.731  -1.346 -15.565  0.00  0.00    +0.004 A 
ATOM     21  C   UNL     1      -0.497  -1.656 -14.239  0.00  0.00    +0.045 A 
ENDBRANCH  15  16
ENDBRANCH  14  15
ENDBRANCH  12  14
ENDBRANCH   4  12
BRANCH   1  22
ATOM     22  C   UNL     1       3.615  -2.261  -5.412  0.00  0.00    +0.188 C 
BRANCH  22  26
ATOM     23  C   UNL     1       0.693  -1.081  -3.565  0.00  0.00    +0.190 A 
ATOM     24  C   UNL     1       0.126  -1.254  -4.795  0.00  0.00    +0.055 A 
ATOM     25  C   UNL     1       1.141  -1.716  -5.646  0.00  0.00    +0.047 A 
ATOM     26  C   UNL     1       2.269  -1.805  -4.908  0.00  0.00    +0.124 A 
ATOM     27  O   UNL     1       1.996  -1.417  -3.656  0.00  0.00    -0.453 OA
BRANCH  23  29
ATOM     28  N   UNL     1       0.688  -0.476  -1.203  0.00  0.00    -0.302 N 
ATOM     29  C   UNL     1       0.006  -0.608  -2.358  0.00  0.00    +0.280 C 
ATOM     30  O   UNL     1      -1.179  -0.335  -2.400  0.00  0.00    -0.267 OA
ATOM     31  H   UNL     1       1.632  -0.695  -1.170  0.00  0.00    +0.150 HD
BRANCH  28  33
ATOM     32  C   UNL     1      -0.019   1.526   0.010  0.00  0.00    +0.033 C 
ATOM     33  C   UNL     1       0.002  -0.004   0.002  0.00  0.00    +0.100 C 
BRANCH  33  34
ATOM     34  C   UNL     1       0.731  -0.503   1.223  0.00  0.00    -0.027 A 
ATOM     35  C   UNL     1       2.113  -0.514   1.247  0.00  0.00    +0.005 A 
ATOM     36  C   UNL     1       2.782  -0.972   2.366  0.00  0.00    +0.000 A 
ATOM     37  C   UNL     1       2.068  -1.419   3.463  0.00  0.00    +0.000 A 
ATOM     38  C   UNL     1       0.686  -1.407   3.439  0.00  0.00    +0.000 A 
ATOM     39  C   UNL     1       0.017  -0.945   2.321  0.00  0.00    +0.005 A 
ENDBRANCH  33  34
ENDBRANCH  28  33
ENDBRANCH  23  29
ENDBRANCH  22  26
ENDBRANCH   1  22
TORSDOF 9
