REMARK  Name = ZINC63489281
REMARK  4 active torsions:
REMARK  status: ('A' for Active; 'I' for Inactive)
REMARK    1  A    between atoms: C_7  and  C_10
REMARK    2  A    between atoms: C_10  and  C_11
REMARK    3  A    between atoms: C_11  and  N_12
REMARK    4  A    between atoms: C_13  and  C_15
REMARK                            x       y       z     vdW  Elec       q    Type
REMARK                         _______ _______ _______ _____ _____    ______ ____
ROOT
ATOM      1  C   UNL     1      -1.760  -6.529  -2.727  0.00  0.00    +0.078 C 
ATOM      2  C   UNL     1      -1.042  -7.642  -1.961  0.00  0.00    +0.031 C 
ATOM      3  C   UNL     1      -1.977  -8.848  -1.825  0.00  0.00    +0.107 C 
ATOM      4  N   UNL     1      -2.441  -9.240  -3.163  0.00  0.00    -0.314 N 
ATOM      5  C   UNL     1      -3.065  -8.223  -4.020  0.00  0.00    +0.107 C 
ATOM      6  C   UNL     1      -2.118  -7.023  -4.131  0.00  0.00    +0.031 C 
ATOM      7  C   UNL     1      -2.292 -10.551  -3.611  0.00  0.00    +0.144 A 
ATOM      8  C   UNL     1      -1.906 -11.555  -2.721  0.00  0.00    +0.049 A 
ATOM      9  C   UNL     1      -1.771 -12.841  -3.212  0.00  0.00    +0.049 A 
ATOM     10  C   UNL     1      -2.030 -13.055  -4.567  0.00  0.00    +0.144 A 
ATOM     11  N   UNL     1      -2.391 -12.041  -5.336  0.00  0.00    -0.132 NA
ATOM     12  N   UNL     1      -2.520 -10.848  -4.880  0.00  0.00    -0.132 NA
ATOM     13  N   UNL     1      -1.907 -14.333  -5.109  0.00  0.00    -0.309 N 
ATOM     14  C   UNL     1      -2.061 -14.561  -6.554  0.00  0.00    +0.134 C 
ATOM     15  C   UNL     1      -0.857 -15.373  -7.046  0.00  0.00    +0.178 C 
ATOM     16  O   UNL     1      -0.711 -16.538  -6.231  0.00  0.00    -0.377 OA
ATOM     17  C   UNL     1      -0.439 -16.261  -4.855  0.00  0.00    +0.178 C 
ATOM     18  C   UNL     1      -1.615 -15.493  -4.252  0.00  0.00    +0.134 C 
ENDROOT
BRANCH   1  20
ATOM     19  N   UNL     1      -0.410  -4.721  -1.716  0.00  0.00    -0.315 N 
ATOM     20  C   UNL     1      -0.856  -5.328  -2.833  0.00  0.00    +0.216 C 
ATOM     21  O   UNL     1      -0.530  -4.909  -3.923  0.00  0.00    -0.276 OA
ATOM     22  H   UNL     1      -0.671  -5.056  -0.844  0.00  0.00    +0.149 HD
BRANCH  19  23
ATOM     23  C   UNL     1       0.469  -3.553  -1.819  0.00  0.00    +0.108 C 
BRANCH  23  24
ATOM     24  C   UNL     1       0.827  -3.059  -0.416  0.00  0.00    +0.052 C 
BRANCH  24  31
ATOM     25  C   UNL     1       0.004   1.455  -0.367  0.00  0.00    +0.001 A 
ATOM     26  C   UNL     1       1.159   2.238  -0.497  0.00  0.00    +0.002 A 
ATOM     27  C   UNL     1       2.393   1.704  -0.622  0.00  0.00    +0.026 A 
ATOM     28  C   UNL     1       2.567   0.292  -0.628  0.00  0.00    +0.043 A 
ATOM     29  N   UNL     1       3.639  -0.454  -0.736  0.00  0.00    -0.380 N 
ATOM     30  C   UNL     1       3.235  -1.863  -0.681  0.00  0.00    +0.144 C 
ATOM     31  C   UNL     1       1.731  -1.858  -0.521  0.00  0.00    -0.040 C 
ATOM     32  C   UNL     1       1.362  -0.557  -0.493  0.00  0.00    -0.001 A 
ATOM     33  C   UNL     1       0.058   0.104  -0.361  0.00  0.00    +0.010 A 
ATOM     34  H   UNL     1       4.548  -0.129  -0.836  0.00  0.00    +0.160 HD
ENDBRANCH  24  31
ENDBRANCH  23  24
ENDBRANCH  19  23
ENDBRANCH   1  20
TORSDOF 4
