REMARK  Name = ZINC06195099
REMARK  13 active torsions:
REMARK  status: ('A' for Active; 'I' for Inactive)
REMARK    1  A    between atoms: C_1  and  C_2
REMARK    2  A    between atoms: C_2  and  O_3
REMARK    3  A    between atoms: O_3  and  C_4
REMARK    4  A    between atoms: C_4  and  C_6
REMARK    5  A    between atoms: C_10  and  N_11
REMARK    6  A    between atoms: C_12  and  C_14
REMARK    7  A    between atoms: C_14  and  S_15
REMARK    8  A    between atoms: S_15  and  C_16
REMARK    9  A    between atoms: N_20  and  C_21
REMARK   10  A    between atoms: C_21  and  C_22
REMARK   11  A    between atoms: C_21  and  C_23
REMARK   12  A    between atoms: N_26  and  C_31
REMARK   13  A    between atoms: N_29  and  C_30
REMARK                            x       y       z     vdW  Elec       q    Type
REMARK                         _______ _______ _______ _____ _____    ______ ____
ROOT
ATOM      1  N   UNL     1       0.002  -0.004   0.002  0.00  0.00    -0.279 N 
ATOM      2  C   UNL     1      -0.016   1.344   0.009  0.00  0.00    +0.228 C 
ATOM      3  O   UNL     1       1.026   1.964   0.003  0.00  0.00    -0.275 OA
ATOM      4  H   UNL     1      -0.831  -0.500   0.007  0.00  0.00    +0.155 HD
ENDROOT
BRANCH   1   9
ATOM      5  C   UNL     1       1.434  -2.052  -0.017  0.00  0.00    +0.091 A 
ATOM      6  C   UNL     1       2.813  -2.508  -0.039  0.00  0.00    -0.021 A 
ATOM      7  C   UNL     1       3.743  -1.528  -0.042  0.00  0.00    -0.004 A 
ATOM      8  S   UNL     1       2.814  -0.021  -0.024  0.00  0.00    -0.077 S 
ATOM      9  C   UNL     1       1.212  -0.681  -0.013  0.00  0.00    +0.086 A 
ATOM     10  C   UNL     1       5.231  -1.696  -0.055  0.00  0.00    +0.043 C 
ATOM     11  C   UNL     1       5.558  -3.151   0.312  0.00  0.00    +0.005 C 
ATOM     12  C   UNL     1       4.672  -4.081  -0.522  0.00  0.00    +0.005 C 
ATOM     13  C   UNL     1       3.220  -3.976  -0.051  0.00  0.00    +0.037 C 
BRANCH   5  14
ATOM     14  C   UNL     1       0.319  -3.002  -0.004  0.00  0.00    +0.342 C 
ATOM     15  O   UNL     1      -0.156  -3.396  -1.052  0.00  0.00    -0.245 OA
BRANCH  14  16
ATOM     16  O   UNL     1      -0.179  -3.440   1.170  0.00  0.00    -0.461 OA
BRANCH  16  18
ATOM     17  C   UNL     1      -1.711  -4.761   2.526  0.00  0.00    +0.048 C 
ATOM     18  C   UNL     1      -1.284  -4.380   1.107  0.00  0.00    +0.229 C 
ENDBRANCH  16  18
ENDBRANCH  14  16
ENDBRANCH   5  14
ENDBRANCH   1   9
BRANCH   2  19
ATOM     19  C   UNL     1      -1.331   2.079   0.020  0.00  0.00    +0.173 C 
BRANCH  19  20
ATOM     20  S   UNL     1      -1.025   3.863   0.028  0.00  0.00    -0.078 S 
BRANCH  20  21
ATOM     21  C   UNL     1      -2.683   4.458   0.039  0.00  0.00    +0.172 A 
ATOM     22  N   UNL     1      -3.764   3.704   0.034  0.00  0.00    -0.204 NA
ATOM     23  C   UNL     1      -4.855   4.470   0.048  0.00  0.00    +0.169 A 
ATOM     24  C   UNL     1      -4.437   5.797   0.054  0.00  0.00    +0.153 A 
ATOM     25  N   UNL     1      -3.048   5.769   0.048  0.00  0.00    -0.311 N 
ATOM     26  C   UNL     1      -5.400   6.820   0.064  0.00  0.00    +0.282 A 
ATOM     27  O   UNL     1      -5.056   7.989   0.069  0.00  0.00    -0.265 OA
ATOM     28  N   UNL     1      -6.709   6.495   0.067  0.00  0.00    -0.262 N 
ATOM     29  C   UNL     1      -7.103   5.210   0.062  0.00  0.00    +0.333 A 
ATOM     30  O   UNL     1      -8.292   4.954   0.066  0.00  0.00    -0.246 OA
ATOM     31  N   UNL     1      -6.214   4.199   0.052  0.00  0.00    -0.280 N 
ATOM     32  C   UNL     1      -6.684   2.811   0.046  0.00  0.00    +0.155 C 
ATOM     33  C   UNL     1      -7.717   7.558   0.078  0.00  0.00    +0.157 C 
BRANCH  25  34
ATOM     34  C   UNL     1      -2.151   6.927   0.050  0.00  0.00    +0.084 C 
ATOM     35  C   UNL     1      -1.263   6.881   1.296  0.00  0.00    +0.030 C 
ATOM     36  C   UNL     1      -1.273   6.894  -1.203  0.00  0.00    +0.030 C 
ENDBRANCH  25  34
ENDBRANCH  20  21
ENDBRANCH  19  20
ENDBRANCH   2  19
TORSDOF 8
