REMARK  Name = ZINC16396519
REMARK  7 active torsions:
REMARK  status: ('A' for Active; 'I' for Inactive)
REMARK    1  A    between atoms: C_4  and  C_7
REMARK    2  A    between atoms: C_7  and  N_8
REMARK    3  A    between atoms: C_9  and  C_11
REMARK    4  A    between atoms: C_16  and  C_17
REMARK    5  A    between atoms: C_16  and  N_62
REMARK    6  A    between atoms: C_20  and  C_30
REMARK    7  A    between atoms: C_23  and  C_25
REMARK                            x       y       z     vdW  Elec       q    Type
REMARK                         _______ _______ _______ _____ _____    ______ ____
ROOT
ATOM      1  C   UNL     1       5.076   3.285  -1.473  0.00  0.00    +0.021 C 
ENDROOT
BRANCH   1   7
ATOM      2  C   UNL     1       1.203   2.160  -0.053  0.00  0.00    +0.071 C 
ATOM      3  C   UNL     1       1.342   2.796  -1.440  0.00  0.00    -0.006 C 
ATOM      4  C   UNL     1       2.670   3.552  -1.518  0.00  0.00    -0.077 C 
ATOM      5  C   UNL     1       3.693   2.038   0.074  0.00  0.00    -0.077 C 
ATOM      6  C   UNL     1       2.396   1.235   0.199  0.00  0.00    -0.006 C 
ATOM      7  N   UNL     1       3.779   2.601  -1.290  0.00  0.00    +0.385 N 
ATOM      8  H   UNL     1       3.707   1.836  -1.972  0.00  0.00    -0.081 HD
BRANCH   2  10
ATOM      9  N   UNL     1      -1.260   1.973  -0.192  0.00  0.00    -0.311 N 
ATOM     10  C   UNL     1      -0.075   1.363   0.009  0.00  0.00    +0.216 C 
ATOM     11  O   UNL     1      -0.036   0.173   0.235  0.00  0.00    -0.276 OA
ATOM     12  H   UNL     1      -1.291   2.925  -0.373  0.00  0.00    +0.149 HD
BRANCH   9  13
ATOM     13  C   UNL     1      -2.501   1.197  -0.137  0.00  0.00    +0.139 C 
BRANCH  13  17
ATOM     14  C   UNL     1      -5.827   3.777  -0.865  0.00  0.00    +0.000 A 
ATOM     15  C   UNL     1      -5.203   3.139  -1.921  0.00  0.00    +0.000 A 
ATOM     16  C   UNL     1      -4.127   2.304  -1.685  0.00  0.00    +0.005 A 
ATOM     17  C   UNL     1      -3.674   2.107  -0.394  0.00  0.00    -0.030 A 
ATOM     18  C   UNL     1      -4.302   2.741   0.662  0.00  0.00    +0.005 A 
ATOM     19  C   UNL     1      -5.375   3.580   0.426  0.00  0.00    +0.000 A 
ENDBRANCH  13  17
ENDBRANCH   9  13
ENDBRANCH   2  10
ENDBRANCH   1   7
BRANCH   1  20
ATOM     20  C   UNL     1       6.174   2.253  -1.468  0.00  0.00    +0.219 C 
ATOM     21  O   UNL     1       5.897   1.073  -1.425  0.00  0.00    -0.276 OA
ATOM     22  N   UNL     1       7.464   2.641  -1.510  0.00  0.00    -0.186 N 
ATOM     23  C   UNL     1       8.629   1.742  -1.505  0.00  0.00    +0.143 C 
ATOM     24  C   UNL     1       9.831   2.704  -1.568  0.00  0.00    +0.088 C 
ATOM     25  C   UNL     1       9.198   4.077  -1.595  0.00  0.00    +0.075 C 
ATOM     26  N   UNL     1       7.912   3.959  -1.561  0.00  0.00    -0.180 NA
BRANCH  25  27
ATOM     27  C   UNL     1       9.930   5.346  -1.651  0.00  0.00    +0.035 A 
ATOM     28  C   UNL     1       9.436   6.639  -1.685  0.00  0.00    +0.017 A 
ATOM     29  C   UNL     1      10.332   7.680  -1.733  0.00  0.00    +0.008 A 
ATOM     30  C   UNL     1      11.664   7.411  -1.756  0.00  0.00    +0.046 A 
ATOM     31  S   UNL     1      11.693   5.627  -1.702  0.00  0.00    -0.095 S 
ENDBRANCH  25  27
BRANCH  23  32
ATOM     32  C   UNL     1       8.664   0.928  -0.237  0.00  0.00    +0.013 A 
ATOM     33  C   UNL     1       9.009  -0.372  -0.066  0.00  0.00    +0.013 A 
ATOM     34  C   UNL     1       8.970  -0.914   1.205  0.00  0.00    +0.008 A 
ATOM     35  C   UNL     1       8.579  -0.133   2.241  0.00  0.00    +0.045 A 
ATOM     36  S   UNL     1       8.255   1.424   1.429  0.00  0.00    -0.100 S 
ENDBRANCH  23  32
ENDBRANCH   1  20
TORSDOF 7
