REMARK  Name = ZINC09541422
REMARK  9 active torsions:
REMARK  status: ('A' for Active; 'I' for Inactive)
REMARK    1  A    between atoms: C_1  and  C_2
REMARK    2  A    between atoms: C_2  and  O_3
REMARK    3  A    between atoms: O_3  and  C_4
REMARK    4  A    between atoms: C_8  and  C_11
REMARK    5  A    between atoms: C_9  and  O_10
REMARK    6  A    between atoms: C_14  and  C_26
REMARK    7  A    between atoms: C_16  and  C_18
REMARK    8  A    between atoms: C_23  and  O_24
REMARK    9  A    between atoms: O_24  and  C_25
REMARK                            x       y       z     vdW  Elec       q    Type
REMARK                         _______ _______ _______ _____ _____    ______ ____
ROOT
ATOM      1  C   UNL     1      -0.777   1.529  -1.137  0.00  0.00    -0.028 C 
ATOM      2  C   UNL     1      -0.172   0.954  -2.421  0.00  0.00    +0.044 C 
ATOM      3  C   UNL     1       1.324   1.102  -2.381  0.00  0.00    +0.040 C 
ATOM      4  N   UNL     1       1.972   1.360  -1.308  0.00  0.00    -0.298 NA
ATOM      5  C   UNL     1       1.351   1.549  -0.003  0.00  0.00    +0.084 C 
ATOM      6  N   UNL     1      -0.013   1.002   0.011  0.00  0.00    +0.401 N 
ATOM      7  H   UNL     1       0.030  -0.022  -0.050  0.00  0.00    -0.081 HD
ATOM      8  H   UNL     1      -0.480   1.273   0.884  0.00  0.00    -0.081 HD
ENDROOT
BRANCH   3   9
ATOM      9  C   UNL     1       2.080   0.945  -3.638  0.00  0.00    -0.004 A 
ATOM     10  C   UNL     1       1.409   0.658  -4.829  0.00  0.00    +0.011 A 
ATOM     11  C   UNL     1       2.121   0.517  -6.002  0.00  0.00    +0.016 A 
ATOM     12  C   UNL     1       3.499   0.648  -5.998  0.00  0.00    +0.018 A 
ATOM     13  C   UNL     1       4.171   0.927  -4.820  0.00  0.00    +0.016 A 
ATOM     14  C   UNL     1       3.470   1.076  -3.641  0.00  0.00    +0.011 A 
ATOM     15 BR   UNL     1       4.468   0.446  -7.609  0.00  0.00    -0.050 Br
ENDBRANCH   3   9
BRANCH   1  20
ATOM     16  C   UNL     1      -4.531   1.399  -1.607  0.00  0.00    +0.162 A 
ATOM     17  C   UNL     1      -4.868   0.323  -0.802  0.00  0.00    +0.049 A 
ATOM     18  C   UNL     1      -3.884  -0.357  -0.110  0.00  0.00    +0.004 A 
ATOM     19  C   UNL     1      -2.561   0.029  -0.223  0.00  0.00    +0.006 A 
ATOM     20  C   UNL     1      -2.219   1.106  -1.020  0.00  0.00    -0.016 A 
ATOM     21  C   UNL     1      -3.201   1.792  -1.717  0.00  0.00    +0.160 A 
BRANCH  21  22
ATOM     22  O   UNL     1      -2.865   2.848  -2.506  0.00  0.00    -0.503 OA
ATOM     23  H   UNL     1      -2.663   2.606  -3.420  0.00  0.00    +0.292 HD
ENDBRANCH  21  22
BRANCH  16  24
ATOM     24  O   UNL     1      -5.498   2.070  -2.288  0.00  0.00    -0.489 OA
BRANCH  24  26
ATOM     25  C   UNL     1      -7.782   2.482  -2.964  0.00  0.00    +0.048 C 
ATOM     26  C   UNL     1      -6.842   1.611  -2.128  0.00  0.00    +0.226 C 
ENDBRANCH  24  26
ENDBRANCH  16  24
ENDBRANCH   1  20
BRANCH   5  27
ATOM     27  C   UNL     1       2.175   0.846   1.046  0.00  0.00    +0.001 A 
ATOM     28  C   UNL     1       1.556   0.269   2.138  0.00  0.00    +0.007 A 
ATOM     29  C   UNL     1       2.311  -0.376   3.100  0.00  0.00    +0.000 A 
ATOM     30  C   UNL     1       3.686  -0.446   2.972  0.00  0.00    +0.004 A 
ATOM     31  C   UNL     1       4.309   0.129   1.881  0.00  0.00    +0.046 A 
ATOM     32  C   UNL     1       3.553   0.773   0.912  0.00  0.00    +0.123 A 
BRANCH  32  33
ATOM     33  O   UNL     1       4.163   1.335  -0.165  0.00  0.00    -0.495 OA
ATOM     34  C   UNL     1       5.586   1.221  -0.237  0.00  0.00    +0.277 C 
ENDBRANCH  32  33
ENDBRANCH   5  27
TORSDOF 7
