REMARK  Name = ZINC09137267
REMARK  8 active torsions:
REMARK  status: ('A' for Active; 'I' for Inactive)
REMARK    1  A    between atoms: C_4  and  C_7
REMARK    2  A    between atoms: C_7  and  N_8
REMARK    3  A    between atoms: C_17  and  C_19
REMARK    4  A    between atoms: C_19  and  O_21
REMARK    5  A    between atoms: O_21  and  C_22
REMARK    6  A    between atoms: C_22  and  C_23
REMARK    7  A    between atoms: N_25  and  C_26
REMARK    8  A    between atoms: C_26  and  C_31
REMARK                            x       y       z     vdW  Elec       q    Type
REMARK                         _______ _______ _______ _____ _____    ______ ____
ROOT
ATOM      1  N   UNL     1       0.091   5.535   0.031  0.00  0.00    -0.224 N 
ATOM      2  C   UNL     1       1.194   6.312   0.024  0.00  0.00    +0.275 A 
ATOM      3  O   UNL     1       1.101   7.526   0.031  0.00  0.00    -0.266 OA
ATOM      4  C   UNL     1       2.510   5.659   0.008  0.00  0.00    +0.050 A 
ATOM      5  C   UNL     1       3.707   6.369  -0.000  0.00  0.00    +0.014 A 
ATOM      6  C   UNL     1       4.901   5.681  -0.015  0.00  0.00    +0.001 A 
ATOM      7  C   UNL     1       4.920   4.292  -0.022  0.00  0.00    +0.001 A 
ATOM      8  C   UNL     1       3.745   3.570  -0.014  0.00  0.00    +0.011 A 
ATOM      9  C   UNL     1       2.530   4.245   0.007  0.00  0.00    +0.021 A 
ATOM     10  C   UNL     1       1.232   3.550   0.009  0.00  0.00    +0.176 A 
ATOM     11  N   UNL     1       0.127   4.257   0.024  0.00  0.00    -0.161 NA
ENDROOT
BRANCH  10  12
ATOM     12  C   UNL     1       1.175   2.076   0.002  0.00  0.00    +0.360 C 
ATOM     13  O   UNL     1       2.203   1.428  -0.011  0.00  0.00    -0.243 OA
BRANCH  12  14
ATOM     14  O   UNL     1      -0.018   1.448   0.010  0.00  0.00    -0.451 OA
BRANCH  14  15
ATOM     15  C   UNL     1       0.002  -0.004   0.002  0.00  0.00    +0.328 C 
BRANCH  15  16
ATOM     16  C   UNL     1      -1.412  -0.526   0.013  0.00  0.00    +0.252 C 
ATOM     17  O   UNL     1      -2.344   0.250   0.026  0.00  0.00    -0.272 OA
ATOM     18  N   UNL     1      -1.640  -1.854   0.008  0.00  0.00    -0.295 N 
ATOM     19  H   UNL     1      -0.894  -2.474  -0.003  0.00  0.00    +0.150 HD
BRANCH  18  20
ATOM     20  C   UNL     1      -3.014  -2.361   0.018  0.00  0.00    +0.121 C 
ATOM     21  C   UNL     1      -3.733  -1.914   1.308  0.00  0.00    +0.041 C 
ATOM     22  C   UNL     1      -4.620  -3.127   1.687  0.00  0.00    +0.003 C 
ATOM     23  C   UNL     1      -3.723  -4.335   1.323  0.00  0.00    +0.003 C 
ATOM     24  C   UNL     1      -3.009  -3.900   0.027  0.00  0.00    +0.041 C 
BRANCH  20  25
ATOM     25  C   UNL     1      -3.743  -1.867  -1.161  0.00  0.00    +0.088 C 
ATOM     26  N   UNL     1      -4.305  -1.485  -2.072  0.00  0.00    -0.194 NA
ENDBRANCH  20  25
ENDBRANCH  18  20
ENDBRANCH  15  16
ENDBRANCH  14  15
ENDBRANCH  12  14
ENDBRANCH  10  12
BRANCH   1  27
ATOM     27  C   UNL     1      -1.219   6.192   0.047  0.00  0.00    +0.182 C 
BRANCH  27  31
ATOM     28  C   UNL     1      -2.531   6.851  -3.964  0.00  0.00    +0.000 A 
ATOM     29  C   UNL     1      -2.854   5.674  -3.316  0.00  0.00    +0.000 A 
ATOM     30  C   UNL     1      -2.430   5.461  -2.018  0.00  0.00    +0.005 A 
ATOM     31  C   UNL     1      -1.681   6.424  -1.368  0.00  0.00    -0.026 A 
ATOM     32  C   UNL     1      -1.362   7.604  -2.015  0.00  0.00    +0.005 A 
ATOM     33  C   UNL     1      -1.782   7.815  -3.315  0.00  0.00    +0.000 A 
ENDBRANCH  27  31
ENDBRANCH   1  27
TORSDOF 8
