REMARK  Name = ZINC00876530
REMARK  7 active torsions:
REMARK  status: ('A' for Active; 'I' for Inactive)
REMARK    1  A    between atoms: C_1  and  C_2
REMARK    2  A    between atoms: C_6  and  C_15
REMARK    3  A    between atoms: C_13  and  C_14
REMARK    4  A    between atoms: C_17  and  C_30
REMARK    5  A    between atoms: C_18  and  N_29
REMARK    6  A    between atoms: C_25  and  C_27
REMARK    7  A    between atoms: C_25  and  C_28
REMARK                            x       y       z     vdW  Elec       q    Type
REMARK                         _______ _______ _______ _____ _____    ______ ____
ROOT
ATOM      1  C   UNL     1      -3.299   3.305   4.237  0.00  0.00    +0.106 C 
ATOM      2  C   UNL     1      -3.998   2.179   4.946  0.00  0.00    +0.098 C 
ATOM      3  C   UNL     1      -4.233   1.008   4.305  0.00  0.00    +0.198 C 
ATOM      4  O   UNL     1      -3.860   0.821   3.030  0.00  0.00    -0.445 OA
ATOM      5  C   UNL     1      -2.890   1.585   2.496  0.00  0.00    +0.115 C 
ATOM      6  C   UNL     1      -2.568   2.780   3.025  0.00  0.00    +0.046 C 
ATOM      7  C   UNL     1      -1.548   3.576   2.469  0.00  0.00    +0.164 C 
ATOM      8  O   UNL     1      -1.299   4.657   2.964  0.00  0.00    -0.292 OA
ATOM      9  C   UNL     1      -0.761   3.111   1.274  0.00  0.00    +0.086 C 
ATOM     10  C   UNL     1      -0.729   1.579   1.267  0.00  0.00    -0.021 C 
ATOM     11  C   UNL     1      -2.168   1.060   1.276  0.00  0.00    +0.081 C 
ATOM     12  C   UNL     1      -0.013   1.086   0.008  0.00  0.00    +0.012 C 
ATOM     13  C   UNL     1       0.008   1.074   2.509  0.00  0.00    +0.012 C 
ENDROOT
BRANCH   1  19
ATOM     14  C   UNL     1      -6.137  10.201   4.325  0.00  0.00    +0.044 C 
ATOM     15  C   UNL     1      -6.168   8.773   3.844  0.00  0.00    -0.047 A 
ATOM     16  C   UNL     1      -5.216   7.893   4.275  0.00  0.00    +0.013 A 
ATOM     17  C   UNL     1      -5.245   6.568   3.829  0.00  0.00    -0.001 A 
ATOM     18  C   UNL     1      -4.243   5.597   4.273  0.00  0.00    +0.020 A 
ATOM     19  C   UNL     1      -4.317   4.328   3.803  0.00  0.00    +0.030 A 
ATOM     20  C   UNL     1      -5.348   3.959   2.913  0.00  0.00    +0.253 A 
ATOM     21  O   UNL     1      -5.399   2.811   2.505  0.00  0.00    -0.268 OA
ATOM     22  N   UNL     1      -6.276   4.842   2.502  0.00  0.00    -0.322 N 
ATOM     23  H   UNL     1      -6.992   4.546   1.871  0.00  0.00    +0.169 HD
ATOM     24  C   UNL     1      -6.253   6.149   2.940  0.00  0.00    +0.049 A 
ATOM     25  C   UNL     1      -7.212   7.063   2.515  0.00  0.00    +0.030 A 
ATOM     26  C   UNL     1      -7.164   8.364   2.968  0.00  0.00    -0.046 A 
ATOM     27  C   UNL     1      -8.204   9.352   2.507  0.00  0.00    +0.044 C 
ENDBRANCH   1  19
BRANCH   3  28
ATOM     28  N   UNL     1      -4.867  -0.009   4.976  0.00  0.00    -0.328 N 
ATOM     29  H   UNL     1      -5.140   0.115   5.898  0.00  0.00    +0.145 HD
ATOM     30  H   UNL     1      -5.040  -0.852   4.528  0.00  0.00    +0.145 HD
ENDBRANCH   3  28
BRANCH   2  31
ATOM     31  C   UNL     1      -4.416   2.344   6.305  0.00  0.00    +0.101 C 
ATOM     32  N   UNL     1      -4.749   2.474   7.383  0.00  0.00    -0.191 NA
ENDBRANCH   2  31
TORSDOF 3
