REMARK  Name = ZINC32624422
REMARK  16 active torsions:
REMARK  status: ('A' for Active; 'I' for Inactive)
REMARK    1  A    between atoms: C_1  and  C_2
REMARK    2  A    between atoms: C_2  and  N_3
REMARK    3  A    between atoms: N_3  and  C_4
REMARK    4  A    between atoms: N_3  and  S_6
REMARK    5  A    between atoms: C_4  and  C_5
REMARK    6  A    between atoms: S_6  and  C_9
REMARK    7  A    between atoms: C_12  and  C_15
REMARK    8  A    between atoms: N_19  and  C_20
REMARK    9  A    between atoms: C_23  and  O_26
REMARK   10  A    between atoms: O_26  and  C_27
REMARK   11  A    between atoms: C_27  and  C_28
REMARK   12  A    between atoms: N_29  and  C_30
REMARK   13  A    between atoms: C_30  and  C_31
REMARK   14  A    between atoms: C_31  and  C_32
REMARK   15  A    between atoms: C_32  and  O_33
REMARK   16  A    between atoms: O_33  and  C_34
REMARK                            x       y       z     vdW  Elec       q    Type
REMARK                         _______ _______ _______ _____ _____    ______ ____
ROOT
ATOM      1  C   UNL     1       3.787  -0.673   0.368  0.00  0.00    +0.058 A 
ATOM      2  C   UNL     1       3.838  -2.014   0.498  0.00  0.00    +0.075 A 
ATOM      3  S   UNL     1       5.518  -2.374   0.013  0.00  0.00    -0.059 S 
ATOM      4  C   UNL     1       6.043  -0.701  -0.323  0.00  0.00    +0.152 A 
ATOM      5  N   UNL     1       7.218  -0.262  -0.731  0.00  0.00    -0.336 N 
ATOM      6  N   UNL     1       4.898   0.010  -0.045  0.00  0.00    -0.321 N 
ATOM      7  H   UNL     1       7.397   0.819  -0.830  0.00  0.00    +0.168 HD
ENDROOT
BRANCH   1  11
ATOM      8  C   UNL     1       0.199   1.423   1.256  0.00  0.00    +0.106 A 
ATOM      9  C   UNL     1       0.613   0.388   2.075  0.00  0.00    +0.029 A 
ATOM     10  C   UNL     1       1.777  -0.297   1.793  0.00  0.00    +0.012 A 
ATOM     11  C   UNL     1       2.538   0.057   0.677  0.00  0.00    -0.001 A 
ATOM     12  C   UNL     1       2.115   1.102  -0.145  0.00  0.00    +0.012 A 
ATOM     13  C   UNL     1       0.949   1.778   0.148  0.00  0.00    +0.029 A 
BRANCH   8  14
ATOM     14  S   UNL     1      -1.285   2.296   1.627  0.00  0.00    +0.061 S 
ATOM     15  O   UNL     1      -1.516   2.130   3.019  0.00  0.00    -0.153 OA
ATOM     16  O   UNL     1      -1.165   3.577   1.023  0.00  0.00    -0.153 OA
BRANCH  14  17
ATOM     17  N   UNL     1      -2.520   1.518   0.846  0.00  0.00    -0.177 NA
BRANCH  17  19
ATOM     18  C   UNL     1      -4.506   1.001   2.176  0.00  0.00    +0.022 C 
ATOM     19  C   UNL     1      -3.246   0.437   1.517  0.00  0.00    +0.106 C 
ENDBRANCH  17  19
BRANCH  17  20
ATOM     20  C   UNL     1      -2.887   1.911  -0.517  0.00  0.00    +0.106 C 
ATOM     21  C   UNL     1      -2.170   1.005  -1.520  0.00  0.00    +0.022 C 
ENDBRANCH  17  20
ENDBRANCH  14  17
ENDBRANCH   8  14
ENDBRANCH   1  11
BRANCH   5  22
ATOM     22  C   UNL     1       8.215  -1.151  -1.030  0.00  0.00    +0.041 A 
ATOM     23  C   UNL     1       9.127  -1.538  -0.046  0.00  0.00    +0.029 A 
ATOM     24  C   UNL     1      10.128  -2.437  -0.351  0.00  0.00    +0.047 A 
ATOM     25  C   UNL     1      10.233  -2.951  -1.636  0.00  0.00    +0.121 A 
ATOM     26  C   UNL     1       9.332  -2.567  -2.618  0.00  0.00    +0.047 A 
ATOM     27  C   UNL     1       8.326  -1.671  -2.321  0.00  0.00    +0.029 A 
BRANCH  25  28
ATOM     28  O   UNL     1      11.224  -3.834  -1.933  0.00  0.00    -0.492 OA
BRANCH  28  29
ATOM     29  C   UNL     1      12.118  -4.187  -0.875  0.00  0.00    +0.225 C 
ATOM     30  C   UNL     1      13.157  -5.183  -1.396  0.00  0.00    +0.048 C 
ENDBRANCH  28  29
ENDBRANCH  25  28
ENDBRANCH   5  22
BRANCH   6  31
ATOM     31  C   UNL     1       4.870   1.468  -0.188  0.00  0.00    +0.126 C 
BRANCH  31  32
ATOM     32  C   UNL     1       6.221   2.048   0.236  0.00  0.00    +0.050 C 
BRANCH  32  33
ATOM     33  C   UNL     1       6.192   3.570   0.087  0.00  0.00    +0.161 C 
BRANCH  33  34
ATOM     34  O   UNL     1       7.453   4.112   0.483  0.00  0.00    -0.383 OA
ATOM     35  C   UNL     1       7.532   5.535   0.382  0.00  0.00    +0.193 C 
ENDBRANCH  33  34
ENDBRANCH  32  33
ENDBRANCH  31  32
ENDBRANCH   6  31
TORSDOF 12
