REMARK  Name = ZINC45513020
REMARK  7 active torsions:
REMARK  status: ('A' for Active; 'I' for Inactive)
REMARK    1  A    between atoms: C_1  and  C_2
REMARK    2  A    between atoms: C_5  and  C_36
REMARK    3  A    between atoms: C_6  and  N_8
REMARK    4  A    between atoms: C_9  and  C_11
REMARK    5  A    between atoms: C_11  and  C_13
REMARK    6  A    between atoms: C_11  and  N_19
REMARK    7  A    between atoms: C_22  and  N_25
REMARK                            x       y       z     vdW  Elec       q    Type
REMARK                         _______ _______ _______ _____ _____    ______ ____
ROOT
ATOM      1  C   UNL     1       0.280  -2.900   4.854  0.00  0.00    +0.174 C 
ENDROOT
BRANCH   1   2
ATOM      2  C   UNL     1      -0.763  -3.968   5.059  0.00  0.00    -0.021 A 
ATOM      3  C   UNL     1      -0.515  -5.265   4.649  0.00  0.00    +0.005 A 
ATOM      4  C   UNL     1      -1.473  -6.244   4.838  0.00  0.00    +0.000 A 
ATOM      5  C   UNL     1      -2.678  -5.926   5.436  0.00  0.00    +0.000 A 
ATOM      6  C   UNL     1      -2.925  -4.630   5.846  0.00  0.00    +0.000 A 
ATOM      7  C   UNL     1      -1.966  -3.651   5.661  0.00  0.00    +0.005 A 
ENDBRANCH   1   2
BRANCH   1   8
ATOM      8  N   UNL     1       0.379  -2.073   6.064  0.00  0.00    -0.288 NA
ATOM      9  C   UNL     1       1.338  -0.977   5.875  0.00  0.00    +0.087 C 
ATOM     10  C   UNL     1       1.307  -0.055   7.096  0.00  0.00    +0.040 C 
ATOM     11  C   UNL     1       1.666  -0.861   8.347  0.00  0.00    +0.095 C 
ATOM     12  C   UNL     1       0.682  -2.026   8.494  0.00  0.00    +0.040 C 
ATOM     13  C   UNL     1       0.731  -2.890   7.232  0.00  0.00    +0.087 C 
BRANCH  11  14
ATOM     14  N   UNL     1       1.582   0.003   9.527  0.00  0.00    -0.289 N 
ATOM     15  C   UNL     1       2.629   0.298  10.397  0.00  0.00    +0.070 A 
ATOM     16  C   UNL     1       3.963  -0.078  10.443  0.00  0.00    +0.028 A 
ATOM     17  C   UNL     1       4.775   0.392  11.457  0.00  0.00    +0.002 A 
ATOM     18  C   UNL     1       4.263   1.237  12.426  0.00  0.00    +0.002 A 
ATOM     19  C   UNL     1       2.936   1.617  12.389  0.00  0.00    +0.028 A 
ATOM     20  C   UNL     1       2.113   1.151  11.374  0.00  0.00    +0.067 A 
ATOM     21  N   UNL     1       0.768   1.347  11.068  0.00  0.00    -0.306 N 
ATOM     22  H   UNL     1       0.146   1.895  11.571  0.00  0.00    +0.170 HD
ATOM     23  C   UNL     1       0.481   0.650   9.953  0.00  0.00    +0.328 A 
ATOM     24  O   UNL     1      -0.608   0.610   9.413  0.00  0.00    -0.247 OA
ENDBRANCH  11  14
ENDBRANCH   1   8
BRANCH   1  26
ATOM     25  N   UNL     1       0.226  -2.401   2.431  0.00  0.00    -0.284 N 
ATOM     26  C   UNL     1      -0.110  -2.034   3.684  0.00  0.00    +0.239 C 
ATOM     27  O   UNL     1      -0.727  -1.006   3.869  0.00  0.00    -0.273 OA
ATOM     28  H   UNL     1       0.647  -3.261   2.275  0.00  0.00    +0.155 HD
BRANCH  25  34
ATOM     29  C   UNL     1      -0.700   2.130   0.764  0.00  0.00    +0.044 C 
ATOM     30  C   UNL     1      -0.485   0.658   0.520  0.00  0.00    -0.049 A 
ATOM     31  C   UNL     1      -0.544   0.155  -0.767  0.00  0.00    +0.004 A 
ATOM     32  C   UNL     1      -0.348  -1.194  -0.994  0.00  0.00    +0.005 A 
ATOM     33  C   UNL     1      -0.092  -2.045   0.064  0.00  0.00    -0.029 A 
ATOM     34  C   UNL     1      -0.033  -1.543   1.357  0.00  0.00    +0.037 A 
ATOM     35  C   UNL     1      -0.225  -0.186   1.582  0.00  0.00    +0.027 A 
ATOM     36  C   UNL     1       0.121  -3.516  -0.185  0.00  0.00    +0.045 C 
ENDBRANCH  25  34
ENDBRANCH   1  26
TORSDOF 5
