REMARK  Name = ZINC60383801
REMARK  8 active torsions:
REMARK  status: ('A' for Active; 'I' for Inactive)
REMARK    1  A    between atoms: C_1  and  C_2
REMARK    2  A    between atoms: C_2  and  C_3
REMARK    3  A    between atoms: C_3  and  C_4
REMARK    4  A    between atoms: C_13  and  O_15
REMARK    5  A    between atoms: O_15  and  C_16
REMARK    6  A    between atoms: C_16  and  C_17
REMARK    7  A    between atoms: N_19  and  C_20
REMARK    8  A    between atoms: C_25  and  C_26
REMARK                            x       y       z     vdW  Elec       q    Type
REMARK                         _______ _______ _______ _____ _____    ______ ____
ROOT
ATOM      1  C   UNL     1       5.691  -4.125   2.122  0.00  0.00    +0.324 C 
ENDROOT
BRANCH   1   2
ATOM      2  C   UNL     1       6.677  -5.063   2.770  0.00  0.00    +0.255 C 
ATOM      3  O   UNL     1       6.542  -6.262   2.651  0.00  0.00    -0.272 OA
ATOM      4  N   UNL     1       7.709  -4.568   3.482  0.00  0.00    -0.282 N 
ATOM      5  H   UNL     1       7.864  -3.611   3.511  0.00  0.00    +0.155 HD
BRANCH   4   6
ATOM      6  C   UNL     1       8.558  -5.436   4.179  0.00  0.00    +0.045 A 
ATOM      7  C   UNL     1       8.099  -6.684   4.580  0.00  0.00    +0.025 A 
ATOM      8  C   UNL     1       8.938  -7.538   5.268  0.00  0.00    +0.022 A 
ATOM      9  C   UNL     1      10.235  -7.151   5.558  0.00  0.00    +0.042 A 
ATOM     10  C   UNL     1      10.694  -5.909   5.159  0.00  0.00    +0.034 A 
ATOM     11  C   UNL     1       9.861  -5.053   4.466  0.00  0.00    +0.077 A 
ATOM     12 CL   UNL     1      11.287  -8.227   6.424  0.00  0.00    -0.084 Cl
BRANCH  11  13
ATOM     13  C   UNL     1      10.364  -3.702   4.026  0.00  0.00    +0.419 C 
ATOM     14  F   UNL     1      11.695  -3.547   4.427  0.00  0.00    -0.166 F 
ATOM     15  F   UNL     1      10.282  -3.604   2.633  0.00  0.00    -0.166 F 
ATOM     16  F   UNL     1       9.581  -2.700   4.611  0.00  0.00    -0.166 F 
ENDBRANCH  11  13
ENDBRANCH   4   6
ENDBRANCH   1   2
BRANCH   1  17
ATOM     17  O   UNL     1       4.697  -4.883   1.429  0.00  0.00    -0.483 OA
BRANCH  17  27
ATOM     18  C   UNL     1       0.706  -2.003  -1.216  0.00  0.00    -0.030 A 
ATOM     19  C   UNL     1      -0.244  -2.710  -1.882  0.00  0.00    +0.096 A 
ATOM     20  C   UNL     1      -0.198  -4.119  -1.883  0.00  0.00    +0.337 A 
ATOM     21  O   UNL     1      -1.055  -4.740  -2.485  0.00  0.00    -0.245 OA
ATOM     22  O   UNL     1       0.766  -4.794  -1.238  0.00  0.00    -0.422 OA
ATOM     23  C   UNL     1       1.740  -4.152  -0.556  0.00  0.00    +0.143 A 
ATOM     24  C   UNL     1       1.758  -2.745  -0.518  0.00  0.00    +0.021 A 
ATOM     25  C   UNL     1       2.768  -2.077   0.183  0.00  0.00    +0.015 A 
ATOM     26  C   UNL     1       3.736  -2.793   0.825  0.00  0.00    +0.046 A 
ATOM     27  C   UNL     1       3.726  -4.186   0.786  0.00  0.00    +0.125 A 
ATOM     28  C   UNL     1       2.728  -4.864   0.106  0.00  0.00    +0.092 A 
BRANCH  18  29
ATOM     29  C   UNL     1       0.680  -0.497  -1.199  0.00  0.00    +0.036 C 
BRANCH  29  31
ATOM     30  C   UNL     1      -0.057   1.518   0.082  0.00  0.00    +0.004 C 
ATOM     31  C   UNL     1      -0.031  -0.012   0.066  0.00  0.00    +0.001 C 
ENDBRANCH  29  31
ENDBRANCH  18  29
ENDBRANCH  17  27
ENDBRANCH   1  17
TORSDOF 7
