REMARK  Name = ZINC10751609
REMARK  6 active torsions:
REMARK  status: ('A' for Active; 'I' for Inactive)
REMARK    1  A    between atoms: C_6  and  C_7
REMARK    2  A    between atoms: C_7  and  O_9
REMARK    3  A    between atoms: O_9  and  C_10
REMARK    4  A    between atoms: C_10  and  C_11
REMARK    5  A    between atoms: N_13  and  C_14
REMARK    6  A    between atoms: C_17  and  N_21
REMARK                            x       y       z     vdW  Elec       q    Type
REMARK                         _______ _______ _______ _____ _____    ______ ____
ROOT
ATOM      1  C   UNL     1      -2.395   1.385  -0.081  0.00  0.00    +0.255 C 
ATOM      2  O   UNL     1      -2.384   0.173  -0.088  0.00  0.00    -0.272 OA
ATOM      3  N   UNL     1      -1.238   2.069   0.019  0.00  0.00    -0.281 N 
ATOM      4  H   UNL     1      -1.251   3.035   0.105  0.00  0.00    +0.155 HD
ENDROOT
BRANCH   3   5
ATOM      5  C   UNL     1      -0.016   1.385  -0.001  0.00  0.00    +0.052 A 
ATOM      6  C   UNL     1       0.076   0.144  -0.617  0.00  0.00    +0.027 A 
ATOM      7  C   UNL     1       1.283  -0.526  -0.640  0.00  0.00    +0.034 A 
ATOM      8  C   UNL     1       2.401   0.038  -0.052  0.00  0.00    +0.128 A 
ATOM      9  C   UNL     1       2.313   1.274   0.561  0.00  0.00    +0.054 A 
ATOM     10  C   UNL     1       1.108   1.950   0.589  0.00  0.00    +0.064 A 
ATOM     11 CL   UNL     1       0.999   3.502   1.359  0.00  0.00    -0.082 Cl
BRANCH   8  12
ATOM     12  N   UNL     1       3.693  -0.683  -0.080  0.00  0.00    +0.056 N 
ATOM     13  O   UNL     1       3.771  -1.772  -0.620  0.00  0.00    -0.126 OA
ATOM     14  O   UNL     1       4.678  -0.188   0.438  0.00  0.00    -0.126 OA
ENDBRANCH   8  12
ENDBRANCH   3   5
BRANCH   1  15
ATOM     15  C   UNL     1      -3.702   2.128  -0.184  0.00  0.00    +0.328 C 
BRANCH  15  16
ATOM     16  O   UNL     1      -4.793   1.175  -0.280  0.00  0.00    -0.452 OA
BRANCH  16  17
ATOM     17  C   UNL     1      -6.039   1.679  -0.380  0.00  0.00    +0.340 C 
ATOM     18  O   UNL     1      -6.208   2.882  -0.386  0.00  0.00    -0.245 OA
BRANCH  17  24
ATOM     19  C   UNL     1      -7.006  -0.614  -0.480  0.00  0.00    +0.016 A 
ATOM     20  C   UNL     1      -8.093  -1.457  -0.570  0.00  0.00    +0.015 A 
ATOM     21  C   UNL     1      -9.371  -0.936  -0.672  0.00  0.00    +0.013 A 
ATOM     22  C   UNL     1      -9.568   0.435  -0.680  0.00  0.00    +0.015 A 
ATOM     23  C   UNL     1      -8.490   1.289  -0.585  0.00  0.00    +0.016 A 
ATOM     24  C   UNL     1      -7.198   0.770  -0.482  0.00  0.00    +0.059 A 
ATOM     25  I   UNL     1     -11.016  -2.226  -0.815  0.00  0.00    -0.044 I 
ENDBRANCH  17  24
ENDBRANCH  16  17
ENDBRANCH  15  16
ENDBRANCH   1  15
TORSDOF 6
