REMARK  Name = ZINC38669846
REMARK  10 active torsions:
REMARK  status: ('A' for Active; 'I' for Inactive)
REMARK    1  A    between atoms: C_1  and  O_2
REMARK    2  A    between atoms: O_2  and  C_3
REMARK    3  A    between atoms: C_6  and  O_9
REMARK    4  A    between atoms: O_9  and  C_10
REMARK    5  A    between atoms: C_14  and  C_16
REMARK    6  A    between atoms: C_19  and  O_23
REMARK    7  A    between atoms: C_21  and  O_22
REMARK    8  A    between atoms: O_23  and  C_24
REMARK    9  A    between atoms: C_24  and  C_25
REMARK   10  A    between atoms: C_28  and  N_31
REMARK                            x       y       z     vdW  Elec       q    Type
REMARK                         _______ _______ _______ _____ _____    ______ ____
ROOT
ATOM      1  C   UNL     1      -7.072  -4.458   1.260  0.00  0.00    +0.025 A 
ATOM      2  C   UNL     1      -6.968  -5.237   2.397  0.00  0.00    +0.013 A 
ATOM      3  C   UNL     1      -7.757  -4.965   3.498  0.00  0.00    +0.046 A 
ATOM      4  C   UNL     1      -8.657  -3.909   3.464  0.00  0.00    +0.124 A 
ATOM      5  C   UNL     1      -8.764  -3.127   2.325  0.00  0.00    +0.091 A 
ATOM      6  C   UNL     1      -7.966  -3.398   1.223  0.00  0.00    +0.126 A 
ENDROOT
BRANCH   1  11
ATOM      7  C   UNL     1      -4.951  -3.907   0.078  0.00  0.00    +0.153 C 
ATOM      8  C   UNL     1      -3.955  -4.814   0.153  0.00  0.00    +0.176 C 
ATOM      9  N   UNL     1      -4.448  -6.057   0.177  0.00  0.00    -0.182 NA
ATOM     10  N   UNL     1      -5.678  -6.130   0.127  0.00  0.00    -0.294 N 
ATOM     11  C   UNL     1      -6.210  -4.758   0.061  0.00  0.00    +0.199 C 
ATOM     12  H   UNL     1      -6.202  -6.946   0.134  0.00  0.00    +0.184 HD
BRANCH   7  13
ATOM     13  O   UNL     1      -4.853  -2.562   0.034  0.00  0.00    -0.456 OA
BRANCH  13  17
ATOM     14  C   UNL     1      -6.002  -0.647  -3.438  0.00  0.00    +0.120 A 
ATOM     15  C   UNL     1      -5.978  -2.033  -3.386  0.00  0.00    +0.049 A 
ATOM     16  C   UNL     1      -5.593  -2.674  -2.224  0.00  0.00    +0.050 A 
ATOM     17  C   UNL     1      -5.231  -1.931  -1.110  0.00  0.00    +0.128 A 
ATOM     18  C   UNL     1      -5.256  -0.545  -1.162  0.00  0.00    +0.050 A 
ATOM     19  C   UNL     1      -5.636   0.095  -2.325  0.00  0.00    +0.049 A 
BRANCH  14  21
ATOM     20  C   UNL     1      -6.745  -0.844  -5.688  0.00  0.00    +0.277 C 
ATOM     21  O   UNL     1      -6.381  -0.017  -4.582  0.00  0.00    -0.495 OA
ENDBRANCH  14  21
ENDBRANCH  13  17
ENDBRANCH   7  13
ENDBRANCH   1  11
BRANCH   6  22
ATOM     22  O   UNL     1      -8.064  -2.629   0.107  0.00  0.00    -0.506 OA
ATOM     23  H   UNL     1      -8.718  -2.945  -0.532  0.00  0.00    +0.292 HD
ENDBRANCH   6  22
BRANCH   4  24
ATOM     24  O   UNL     1      -9.434  -3.642   4.547  0.00  0.00    -0.487 OA
BRANCH  24  25
ATOM     25  C   UNL     1      -9.271  -4.490   5.686  0.00  0.00    +0.264 C 
BRANCH  25  26
ATOM     26  C   UNL     1     -10.208  -4.046   6.780  0.00  0.00    -0.010 A 
ATOM     27  C   UNL     1      -9.794  -3.104   7.704  0.00  0.00    +0.009 A 
ATOM     28  C   UNL     1     -10.653  -2.696   8.708  0.00  0.00    +0.033 A 
ATOM     29  C   UNL     1     -11.926  -3.230   8.787  0.00  0.00    +0.126 A 
ATOM     30  C   UNL     1     -12.340  -4.171   7.863  0.00  0.00    +0.033 A 
ATOM     31  C   UNL     1     -11.482  -4.575   6.857  0.00  0.00    +0.009 A 
BRANCH  29  32
ATOM     32  N   UNL     1     -12.845  -2.795   9.862  0.00  0.00    +0.056 N 
ATOM     33  O   UNL     1     -12.483  -1.972  10.671  0.00  0.00    -0.126 OA
ATOM     34  O   UNL     1     -13.958  -3.261   9.932  0.00  0.00    -0.126 OA
ENDBRANCH  29  32
ENDBRANCH  25  26
ENDBRANCH  24  25
ENDBRANCH   4  24
TORSDOF 9
