REMARK  Name = ZINC40960298
REMARK  9 active torsions:
REMARK  status: ('A' for Active; 'I' for Inactive)
REMARK    1  A    between atoms: C_1  and  C_2
REMARK    2  A    between atoms: C_4  and  O_10
REMARK    3  A    between atoms: C_6  and  C_9
REMARK    4  A    between atoms: O_10  and  C_11
REMARK    5  A    between atoms: C_11  and  C_13
REMARK    6  A    between atoms: C_11  and  C_14
REMARK    7  A    between atoms: N_16  and  N_17
REMARK    8  A    between atoms: C_18  and  C_19
REMARK    9  A    between atoms: C_22  and  O_25
REMARK                            x       y       z     vdW  Elec       q    Type
REMARK                         _______ _______ _______ _____ _____    ______ ____
ROOT
ATOM      1  C   UNL     1      -0.449  -4.789  -3.553  0.00  0.00    +0.273 C 
ATOM      2  O   UNL     1      -0.864  -4.079  -4.445  0.00  0.00    -0.270 OA
ATOM      3  N   UNL     1      -0.531  -6.129  -3.664  0.00  0.00    -0.204 N 
ATOM      4  H   UNL     1      -0.200  -6.696  -2.950  0.00  0.00    +0.177 HD
ENDROOT
BRANCH   1   5
ATOM      5  C   UNL     1       0.159  -4.171  -2.320  0.00  0.00    +0.257 C 
ATOM      6  C   UNL     1       1.641  -4.543  -2.241  0.00  0.00    +0.062 C 
BRANCH   5   7
ATOM      7  O   UNL     1       0.028  -2.749  -2.386  0.00  0.00    -0.480 OA
BRANCH   7  11
ATOM      8  C   UNL     1       0.512  -2.800   2.471  0.00  0.00    +0.045 C 
ATOM      9  C   UNL     1       0.258  -2.065   1.180  0.00  0.00    -0.028 A 
ATOM     10  C   UNL     1       0.260  -2.752  -0.018  0.00  0.00    +0.050 A 
ATOM     11  C   UNL     1       0.026  -2.075  -1.206  0.00  0.00    +0.122 A 
ATOM     12  C   UNL     1      -0.210  -0.708  -1.187  0.00  0.00    +0.050 A 
ATOM     13  C   UNL     1      -0.212  -0.024   0.013  0.00  0.00    -0.028 A 
ATOM     14  C   UNL     1       0.017  -0.702   1.197  0.00  0.00    +0.047 A 
ATOM     15 CL   UNL     1       0.008   0.158   2.705  0.00  0.00    -0.083 Cl
ATOM     16  C   UNL     1      -0.468   1.461   0.033  0.00  0.00    +0.045 C 
ENDBRANCH   7  11
ENDBRANCH   5   7
ENDBRANCH   1   5
BRANCH   3  17
ATOM     17  N   UNL     1      -1.097  -6.704  -4.810  0.00  0.00    -0.188 NA
ATOM     18  C   UNL     1      -1.176  -7.995  -4.917  0.00  0.00    +0.138 C 
BRANCH  18  19
ATOM     19  C   UNL     1      -1.771  -8.599  -6.122  0.00  0.00    -0.005 A 
ATOM     20  C   UNL     1      -2.244  -7.784  -7.154  0.00  0.00    +0.013 A 
ATOM     21  C   UNL     1      -2.799  -8.354  -8.280  0.00  0.00    +0.046 A 
ATOM     22  C   UNL     1      -2.888  -9.736  -8.390  0.00  0.00    +0.117 A 
ATOM     23  C   UNL     1      -2.419 -10.549  -7.367  0.00  0.00    +0.046 A 
ATOM     24  C   UNL     1      -1.858  -9.989  -6.240  0.00  0.00    +0.013 A 
BRANCH  22  25
ATOM     25  O   UNL     1      -3.436 -10.293  -9.501  0.00  0.00    -0.507 OA
ATOM     26  H   UNL     1      -2.798 -10.475 -10.205  0.00  0.00    +0.292 HD
ENDBRANCH  22  25
ENDBRANCH  18  19
ENDBRANCH   3  17
TORSDOF 6
