REMARK  Name = ZINC16981864
REMARK  9 active torsions:
REMARK  status: ('A' for Active; 'I' for Inactive)
REMARK    1  A    between atoms: C_1  and  C_2
REMARK    2  A    between atoms: C_2  and  C_16
REMARK    3  A    between atoms: N_7  and  C_8
REMARK    4  A    between atoms: C_16  and  C_17
REMARK    5  A    between atoms: C_17  and  C_18
REMARK    6  A    between atoms: C_18  and  C_19
REMARK    7  A    between atoms: C_22  and  N_25
REMARK    8  A    between atoms: N_25  and  C_26
REMARK    9  A    between atoms: C_26  and  C_27
REMARK                            x       y       z     vdW  Elec       q    Type
REMARK                         _______ _______ _______ _____ _____    ______ ____
ROOT
ATOM      1  C   UNL     1      -2.236   1.234   3.771  0.00  0.00    +0.056 C 
ATOM      2  C   UNL     1      -0.765   1.655   3.745  0.00  0.00    +0.112 C 
ATOM      3  N   UNL     1      -0.669   3.119   3.776  0.00  0.00    -0.337 N 
ATOM      4  C   UNL     1       0.330   3.702   4.384  0.00  0.00    +0.191 C 
ATOM      5  N   UNL     1       1.275   3.001   5.035  0.00  0.00    -0.187 NA
ATOM      6  C   UNL     1       1.104   1.721   5.306  0.00  0.00    +0.189 C 
ATOM      7  N   UNL     1      -0.076   1.121   4.931  0.00  0.00    -0.250 N 
ATOM      8  N   UNL     1       2.078   1.006   5.946  0.00  0.00    -0.331 N 
ATOM      9  N   UNL     1       0.419   5.079   4.356  0.00  0.00    -0.329 N 
ATOM     10  H   UNL     1       1.923  -0.061   6.165  0.00  0.00    +0.145 HD
ATOM     11  H   UNL     1       3.017   1.497   6.240  0.00  0.00    +0.145 HD
ATOM     12  H   UNL     1       1.253   5.587   4.862  0.00  0.00    +0.145 HD
ATOM     13  H   UNL     1      -0.345   5.668   3.828  0.00  0.00    +0.145 HD
ATOM     14  H   UNL     1      -1.444   3.726   3.284  0.00  0.00    +0.164 HD
ENDROOT
BRANCH   7  15
ATOM     15  C   UNL     1      -0.602   0.043   5.650  0.00  0.00    +0.038 A 
ATOM     16  C   UNL     1      -1.078   0.233   6.941  0.00  0.00    +0.023 A 
ATOM     17  C   UNL     1      -1.601  -0.833   7.647  0.00  0.00    +0.002 A 
ATOM     18  C   UNL     1      -1.641  -2.090   7.073  0.00  0.00    +0.000 A 
ATOM     19  C   UNL     1      -1.163  -2.284   5.790  0.00  0.00    +0.002 A 
ATOM     20  C   UNL     1      -0.644  -1.222   5.077  0.00  0.00    +0.023 A 
ENDBRANCH   7  15
BRANCH   2  21
ATOM     21  C   UNL     1      -0.098   1.120   2.477  0.00  0.00    +0.048 C 
BRANCH  21  22
ATOM     22  C   UNL     1      -0.810   1.689   1.248  0.00  0.00    +0.009 C 
BRANCH  22  23
ATOM     23  C   UNL     1      -0.143   1.155  -0.021  0.00  0.00    +0.035 C 
BRANCH  23  24
ATOM     24  C   UNL     1      -0.844   1.715  -1.232  0.00  0.00    -0.047 A 
ATOM     25  C   UNL     1      -1.910   1.033  -1.789  0.00  0.00    +0.005 A 
ATOM     26  C   UNL     1      -2.559   1.547  -2.895  0.00  0.00    +0.023 A 
ATOM     27  C   UNL     1      -2.132   2.745  -3.454  0.00  0.00    +0.027 A 
ATOM     28  C   UNL     1      -1.057   3.424  -2.896  0.00  0.00    +0.023 A 
ATOM     29  C   UNL     1      -0.416   2.908  -1.786  0.00  0.00    +0.005 A 
BRANCH  27  30
ATOM     30  N   UNL     1      -2.782   3.264  -4.576  0.00  0.00    -0.343 N 
ATOM     31  H   UNL     1      -2.443   4.213  -5.018  0.00  0.00    +0.146 HD
BRANCH  30  32
ATOM     32  C   UNL     1      -3.915   2.546  -5.164  0.00  0.00    +0.113 C 
BRANCH  32  33
ATOM     33  C   UNL     1      -4.441   3.324  -6.372  0.00  0.00    +0.098 C 
ATOM     34 BR   UNL     1      -5.962   2.361  -7.161  0.00  0.00    -0.090 Br
ENDBRANCH  32  33
ENDBRANCH  30  32
ENDBRANCH  27  30
ENDBRANCH  23  24
ENDBRANCH  22  23
ENDBRANCH  21  22
ENDBRANCH   2  21
TORSDOF 8
