REMARK  Name = ZINC60155867
REMARK  11 active torsions:
REMARK  status: ('A' for Active; 'I' for Inactive)
REMARK    1  A    between atoms: C_1  and  C_2
REMARK    2  A    between atoms: C_5  and  C_8
REMARK    3  A    between atoms: C_8  and  C_10
REMARK    4  A    between atoms: C_8  and  N_31
REMARK    5  A    between atoms: C_10  and  N_11
REMARK    6  A    between atoms: C_12  and  C_14
REMARK    7  A    between atoms: C_19  and  S_20
REMARK    8  A    between atoms: S_20  and  C_21
REMARK    9  A    between atoms: C_21  and  C_22
REMARK   10  A    between atoms: N_31  and  C_32
REMARK   11  A    between atoms: N_31  and  C_33
REMARK                            x       y       z     vdW  Elec       q    Type
REMARK                         _______ _______ _______ _____ _____    ______ ____
ROOT
ATOM      1  N   UNL     1      -1.116  -6.359   0.374  0.00  0.00    -0.313 N 
ATOM      2  C   UNL     1      -2.197  -7.131   0.595  0.00  0.00    +0.245 C 
ATOM      3  O   UNL     1      -3.280  -6.617   0.800  0.00  0.00    -0.270 OA
ATOM      4  H   UNL     1      -0.252  -6.769   0.210  0.00  0.00    +0.149 HD
ENDROOT
BRANCH   2   5
ATOM      5  C   UNL     1      -2.068  -8.600   0.586  0.00  0.00    +0.050 A 
ATOM      6  C   UNL     1      -0.825  -9.195   0.356  0.00  0.00    +0.014 A 
ATOM      7  C   UNL     1      -0.712 -10.568   0.350  0.00  0.00    +0.001 A 
ATOM      8  C   UNL     1      -1.824 -11.364   0.570  0.00  0.00    +0.001 A 
ATOM      9  C   UNL     1      -3.059 -10.793   0.799  0.00  0.00    +0.015 A 
ATOM     10  C   UNL     1      -3.193  -9.409   0.816  0.00  0.00    +0.020 A 
BRANCH  10  11
ATOM     11  S   UNL     1      -4.766  -8.675   1.116  0.00  0.00    -0.118 S 
BRANCH  11  12
ATOM     12  C   UNL     1      -5.874 -10.093   1.349  0.00  0.00    +0.131 C 
BRANCH  12  13
ATOM     13  C   UNL     1      -7.272  -9.598   1.617  0.00  0.00    +0.070 A 
ATOM     14  C   UNL     1      -7.791  -9.323   2.834  0.00  0.00    +0.116 A 
ATOM     15  N   UNL     1      -9.079  -8.903   2.639  0.00  0.00    -0.306 N 
ATOM     16  C   UNL     1     -10.059  -8.501   3.499  0.00  0.00    +0.092 A 
ATOM     17  C   UNL     1     -11.271  -8.129   3.034  0.00  0.00    +0.018 A 
ATOM     18  C   UNL     1     -11.539  -8.152   1.656  0.00  0.00    +0.005 A 
ATOM     19  C   UNL     1     -10.571  -8.552   0.788  0.00  0.00    +0.047 A 
ATOM     20  C   UNL     1      -9.311  -8.936   1.288  0.00  0.00    +0.138 A 
ATOM     21  N   UNL     1      -8.203  -9.355   0.691  0.00  0.00    -0.232 NA
ENDBRANCH  12  13
ENDBRANCH  11  12
ENDBRANCH  10  11
ENDBRANCH   2   5
BRANCH   1  22
ATOM     22  C   UNL     1      -1.244  -4.899   0.382  0.00  0.00    +0.094 C 
BRANCH  22  23
ATOM     23  C   UNL     1       0.090  -4.268  -0.022  0.00  0.00    -0.021 C 
BRANCH  23  28
ATOM     24  C   UNL     1       1.298  -5.663  -5.498  0.00  0.00    +0.044 C 
ATOM     25  C   UNL     1       0.983  -5.299  -4.070  0.00  0.00    -0.050 A 
ATOM     26  C   UNL     1       1.585  -5.987  -3.033  0.00  0.00    +0.003 A 
ATOM     27  C   UNL     1       1.296  -5.653  -1.722  0.00  0.00    +0.002 A 
ATOM     28  C   UNL     1       0.406  -4.631  -1.450  0.00  0.00    -0.059 A 
ATOM     29  C   UNL     1      -0.195  -3.943  -2.487  0.00  0.00    +0.002 A 
ATOM     30  C   UNL     1       0.097  -4.274  -3.797  0.00  0.00    +0.003 A 
ENDBRANCH  23  28
BRANCH  23  31
ATOM     31  N   UNL     1      -0.002  -2.807   0.103  0.00  0.00    +0.382 N 
ATOM     32  C   UNL     1      -0.292  -2.452   1.498  0.00  0.00    -0.096 C 
ATOM     33  C   UNL     1       1.273  -2.200  -0.302  0.00  0.00    -0.096 C 
ATOM     34  H   UNL     1      -0.742  -2.465  -0.492  0.00  0.00    -0.082 HD
ENDBRANCH  23  31
ENDBRANCH  22  23
ENDBRANCH   1  22
TORSDOF 8
