REMARK  Name = ZINC40112753
REMARK  6 active torsions:
REMARK  status: ('A' for Active; 'I' for Inactive)
REMARK    1  A    between atoms: C_3  and  C_8
REMARK    2  A    between atoms: C_5  and  O_7
REMARK    3  A    between atoms: N_9  and  N_10
REMARK    4  A    between atoms: N_10  and  C_11
REMARK    5  A    between atoms: C_12  and  C_23
REMARK    6  A    between atoms: C_14  and  C_16
REMARK                            x       y       z     vdW  Elec       q    Type
REMARK                         _______ _______ _______ _____ _____    ______ ____
ROOT
ATOM      1  C   UNL     1       4.819   5.559  -0.016  0.00  0.00    +0.244 A 
ATOM      2  C   UNL     1       5.919   6.403  -0.028  0.00  0.00    +0.203 A 
ATOM      3  N   UNL     1       5.442   7.675  -0.016  0.00  0.00    -0.196 NA
ATOM      4  C   UNL     1       4.135   7.631   0.003  0.00  0.00    +0.231 A 
ATOM      5  O   UNL     1       3.727   6.347  -0.002  0.00  0.00    -0.419 OA
ENDROOT
BRANCH   4   6
ATOM      6  C   UNL     1       3.243   8.808   0.022  0.00  0.00    +0.037 A 
ATOM      7  C   UNL     1       1.857   8.637   0.047  0.00  0.00    +0.016 A 
ATOM      8  C   UNL     1       1.029   9.739   0.064  0.00  0.00    +0.039 A 
ATOM      9  C   UNL     1       1.570  11.016   0.056  0.00  0.00    +0.123 A 
ATOM     10  C   UNL     1       2.944  11.191   0.030  0.00  0.00    +0.039 A 
ATOM     11  C   UNL     1       3.782  10.096   0.019  0.00  0.00    +0.016 A 
ATOM     12  F   UNL     1       0.754  12.092   0.073  0.00  0.00    -0.205 F 
ENDBRANCH   4   6
BRANCH   1  13
ATOM     13  N   UNL     1       4.838   4.182  -0.023  0.00  0.00    -0.205 N 
ATOM     14  H   UNL     1       5.685   3.709  -0.034  0.00  0.00    +0.177 HD
BRANCH  13  16
ATOM     15  C   UNL     1       3.654   2.166  -0.022  0.00  0.00    +0.138 C 
ATOM     16  N   UNL     1       3.635   3.464  -0.015  0.00  0.00    -0.187 NA
BRANCH  15  19
ATOM     17  C   UNL     1      -0.017   1.378   0.010  0.00  0.00    +0.004 A 
ATOM     18  C   UNL     1       1.166   2.089   0.002  0.00  0.00    +0.010 A 
ATOM     19  C   UNL     1       2.387   1.411  -0.013  0.00  0.00    -0.002 A 
ATOM     20  C   UNL     1       2.404   0.014  -0.021  0.00  0.00    +0.054 A 
ATOM     21  C   UNL     1       1.211  -0.688  -0.013  0.00  0.00    +0.117 A 
ATOM     22  C   UNL     1       0.002  -0.004   0.002  0.00  0.00    +0.045 A 
BRANCH  21  23
ATOM     23  O   UNL     1       1.222  -2.047  -0.021  0.00  0.00    -0.507 OA
ATOM     24  H   UNL     1       1.234  -2.445   0.861  0.00  0.00    +0.292 HD
ENDBRANCH  21  23
ENDBRANCH  15  19
ENDBRANCH  13  16
ENDBRANCH   1  13
BRANCH   2  25
ATOM     25  C   UNL     1       7.296   6.009  -0.050  0.00  0.00    +0.124 C 
ATOM     26  N   UNL     1       8.388   5.696  -0.067  0.00  0.00    -0.189 NA
ENDBRANCH   2  25
TORSDOF 6
