REMARK  Name = ZINC28947938
REMARK  7 active torsions:
REMARK  status: ('A' for Active; 'I' for Inactive)
REMARK    1  A    between atoms: C_1  and  C_2
REMARK    2  A    between atoms: C_4  and  C_16
REMARK    3  A    between atoms: C_6  and  C_11
REMARK    4  A    between atoms: N_18  and  C_19
REMARK    5  A    between atoms: C_19  and  C_21
REMARK    6  A    between atoms: C_19  and  C_28
REMARK    7  A    between atoms: N_32  and  C_33
REMARK                            x       y       z     vdW  Elec       q    Type
REMARK                         _______ _______ _______ _____ _____    ______ ____
ROOT
ATOM      1  C   UNL     1       2.543   0.406   0.502  0.00  0.00    +0.246 C 
ATOM      2  O   UNL     1       2.289  -0.538   1.225  0.00  0.00    -0.270 OA
ATOM      3  N   UNL     1       1.593   0.904  -0.314  0.00  0.00    -0.298 N 
ATOM      4  H   UNL     1       1.822   1.758  -0.968  0.00  0.00    +0.150 HD
ENDROOT
BRANCH   1   8
ATOM      5  C   UNL     1       3.124   0.054   3.622  0.00  0.00    +0.070 C 
ATOM      6  C   UNL     1       4.374   0.715   3.100  0.00  0.00    +0.091 A 
ATOM      7  C   UNL     1       4.635   1.103   1.716  0.00  0.00    +0.076 A 
ATOM      8  C   UNL     1       3.895   1.008   0.518  0.00  0.00    +0.053 A 
ATOM      9  C   UNL     1       4.473   1.501  -0.646  0.00  0.00    +0.042 A 
ATOM     10  C   UNL     1       5.755   2.063  -0.585  0.00  0.00    +0.082 A 
ATOM     11  N   UNL     1       6.423   2.132   0.558  0.00  0.00    -0.209 NA
ATOM     12  C   UNL     1       5.918   1.677   1.693  0.00  0.00    +0.260 A 
ATOM     13  O   UNL     1       6.389   1.633   2.956  0.00  0.00    -0.334 OA
ATOM     14  N   UNL     1       5.418   1.046   3.799  0.00  0.00    -0.080 NA
BRANCH  10  15
ATOM     15  C   UNL     1       6.372   2.589  -1.817  0.00  0.00    +0.038 A 
ATOM     16  C   UNL     1       7.601   3.173  -1.985  0.00  0.00    +0.017 A 
ATOM     17  C   UNL     1       7.968   3.592  -3.244  0.00  0.00    +0.008 A 
ATOM     18  C   UNL     1       7.104   3.414  -4.278  0.00  0.00    +0.046 A 
ATOM     19  S   UNL     1       5.718   2.623  -3.478  0.00  0.00    -0.095 S 
ENDBRANCH  10  15
ENDBRANCH   1   8
BRANCH   3  20
ATOM     20  C   UNL     1       0.255   0.308  -0.330  0.00  0.00    +0.170 C 
BRANCH  20  21
ATOM     21  C   UNL     1      -0.400   0.578  -1.660  0.00  0.00    -0.020 A 
ATOM     22  C   UNL     1      -0.251   1.811  -2.266  0.00  0.00    +0.007 A 
ATOM     23  C   UNL     1      -0.847   2.057  -3.489  0.00  0.00    +0.020 A 
ATOM     24  C   UNL     1      -1.601   1.072  -4.101  0.00  0.00    +0.041 A 
ATOM     25  C   UNL     1      -1.754  -0.160  -3.492  0.00  0.00    +0.020 A 
ATOM     26  C   UNL     1      -1.153  -0.407  -2.272  0.00  0.00    +0.007 A 
ATOM     27 CL   UNL     1      -2.355   1.383  -5.633  0.00  0.00    -0.084 Cl
ENDBRANCH  20  21
BRANCH  20  28
ATOM     28  C   UNL     1      -0.578   0.913   0.771  0.00  0.00    +0.134 A 
ATOM     29  N   UNL     1      -0.651   2.184   1.059  0.00  0.00    -0.238 NA
ATOM     30  C   UNL     1      -1.485   2.356   2.095  0.00  0.00    +0.130 A 
ATOM     31  C   UNL     1      -1.947   1.146   2.463  0.00  0.00    +0.106 A 
ATOM     32  N   UNL     1      -1.376   0.231   1.621  0.00  0.00    -0.336 N 
ATOM     33  C   UNL     1      -1.588  -1.218   1.639  0.00  0.00    +0.150 C 
ENDBRANCH  20  28
ENDBRANCH   3  20
TORSDOF 5
