REMARK  Name = ZINC31960047
REMARK  9 active torsions:
REMARK  status: ('A' for Active; 'I' for Inactive)
REMARK    1  A    between atoms: C_1  and  C_2
REMARK    2  A    between atoms: C_5  and  C_22
REMARK    3  A    between atoms: C_6  and  C_8
REMARK    4  A    between atoms: C_11  and  N_17
REMARK    5  A    between atoms: C_12  and  C_13
REMARK    6  A    between atoms: C_13  and  O_15
REMARK    7  A    between atoms: O_15  and  C_16
REMARK    8  A    between atoms: C_18  and  C_20
REMARK    9  A    between atoms: C_20  and  N_21
REMARK                            x       y       z     vdW  Elec       q    Type
REMARK                         _______ _______ _______ _____ _____    ______ ____
ROOT
ATOM      1  C   UNL     1      -4.912   0.276  -0.013  0.00  0.00    +0.005 A 
ATOM      2  C   UNL     1      -4.740  -1.070   0.001  0.00  0.00    +0.056 A 
ATOM      3  S   UNL     1      -2.987  -1.257   0.249  0.00  0.00    -0.080 S 
ATOM      4  C   UNL     1      -2.524   0.408   0.338  0.00  0.00    +0.086 A 
ATOM      5  C   UNL     1      -3.723   1.087   0.167  0.00  0.00    +0.095 A 
ENDROOT
BRANCH   1  11
ATOM      6  C   UNL     1      -8.905   2.609   1.868  0.00  0.00    +0.044 C 
ATOM      7  C   UNL     1      -8.171   2.010   0.697  0.00  0.00    -0.050 A 
ATOM      8  C   UNL     1      -8.745   2.031  -0.562  0.00  0.00    +0.003 A 
ATOM      9  C   UNL     1      -8.077   1.483  -1.642  0.00  0.00    +0.004 A 
ATOM     10  C   UNL     1      -6.830   0.917  -1.471  0.00  0.00    -0.043 A 
ATOM     11  C   UNL     1      -6.249   0.888  -0.205  0.00  0.00    -0.013 A 
ATOM     12  C   UNL     1      -6.927   1.442   0.881  0.00  0.00    +0.012 A 
ATOM     13  C   UNL     1      -6.101   0.326  -2.650  0.00  0.00    +0.044 C 
ENDBRANCH   1  11
BRANCH   4  14
ATOM     14  N   UNL     1      -1.257   0.938   0.527  0.00  0.00    -0.281 N 
ATOM     15  C   UNL     1      -0.199   0.116   0.676  0.00  0.00    +0.200 C 
ATOM     16  O   UNL     1      -0.355  -1.086   0.643  0.00  0.00    -0.278 OA
ATOM     17  H   UNL     1      -1.116   2.028   0.557  0.00  0.00    +0.155 HD
BRANCH  15  18
ATOM     18  C   UNL     1       1.179   0.692   0.876  0.00  0.00    +0.011 C 
BRANCH  18  19
ATOM     19  N   UNL     1       2.153  -0.401   1.004  0.00  0.00    +0.384 N 
ATOM     20  H   UNL     1       3.159   0.019   1.150  0.00  0.00    -0.089 HD
ATOM     21  H   UNL     1       2.140  -1.012   0.090  0.00  0.00    -0.089 HD
ATOM     22  H   UNL     1       1.888  -1.028   1.868  0.00  0.00    -0.089 HD
ENDBRANCH  18  19
ENDBRANCH  15  18
ENDBRANCH   4  14
BRANCH   5  23
ATOM     23  C   UNL     1      -3.784   2.549   0.170  0.00  0.00    +0.342 C 
ATOM     24  O   UNL     1      -3.683   3.163  -0.875  0.00  0.00    -0.245 OA
BRANCH  23  25
ATOM     25  O   UNL     1      -3.952   3.215   1.331  0.00  0.00    -0.464 OA
ATOM     26  C   UNL     1      -4.004   4.664   1.257  0.00  0.00    +0.280 C 
ENDBRANCH  23  25
ENDBRANCH   5  23
TORSDOF 6
