REMARK  Name = ZINC12385028
REMARK  5 active torsions:
REMARK  status: ('A' for Active; 'I' for Inactive)
REMARK    1  A    between atoms: C_1  and  C_2
REMARK    2  A    between atoms: C_7  and  C_17
REMARK    3  A    between atoms: C_27  and  C_29
REMARK    4  A    between atoms: C_29  and  O_31
REMARK    5  A    between atoms: O_31  and  C_32
REMARK                            x       y       z     vdW  Elec       q    Type
REMARK                         _______ _______ _______ _____ _____    ______ ____
ROOT
ATOM      1  C   UNL     1       0.739   2.806  -2.284  0.00  0.00    +0.009 C 
ATOM      2  C   UNL     1       1.261   2.938  -0.852  0.00  0.00    +0.013 C 
ATOM      3  C   UNL     1       0.281   3.763  -0.018  0.00  0.00    +0.055 C 
ATOM      4  C   UNL     1      -1.079   3.085   0.002  0.00  0.00    +0.017 C 
ATOM      5  C   UNL     1      -1.172   1.746  -0.045  0.00  0.00    +0.037 C 
ATOM      6  C   UNL     1      -2.450   0.944  -0.003  0.00  0.00    +0.139 C 
ATOM      7  N   UNL     1      -3.654   1.728  -0.182  0.00  0.00    -0.331 N 
ATOM      8  C   UNL     1      -4.033   2.691   0.752  0.00  0.00    +0.049 A 
ATOM      9  C   UNL     1      -5.162   2.528   1.539  0.00  0.00    +0.025 A 
ATOM     10  C   UNL     1      -5.440   3.455   2.528  0.00  0.00    +0.002 A 
ATOM     11  C   UNL     1      -4.601   4.536   2.731  0.00  0.00    +0.002 A 
ATOM     12  C   UNL     1      -3.483   4.712   1.933  0.00  0.00    +0.025 A 
ATOM     13  C   UNL     1      -3.213   3.795   0.932  0.00  0.00    +0.052 A 
ATOM     14  N   UNL     1      -2.135   3.935   0.067  0.00  0.00    -0.316 N 
ATOM     15  C   UNL     1      -0.003   0.953  -0.128  0.00  0.00    +0.177 C 
ATOM     16  O   UNL     1      -0.116  -0.258  -0.140  0.00  0.00    -0.291 OA
ATOM     17  C   UNL     1       1.369   1.551  -0.208  0.00  0.00    +0.171 C 
ATOM     18  H   UNL     1      -4.206   1.581  -0.966  0.00  0.00    +0.147 HD
ATOM     19  H   UNL     1      -2.137   4.696  -0.535  0.00  0.00    +0.152 HD
ENDROOT
BRANCH   6  20
ATOM     20  C   UNL     1      -2.534   0.238   1.326  0.00  0.00    +0.015 A 
ATOM     21  C   UNL     1      -1.814   0.711   2.406  0.00  0.00    +0.047 A 
ATOM     22  C   UNL     1      -1.891   0.062   3.627  0.00  0.00    +0.124 A 
ATOM     23  C   UNL     1      -2.691  -1.060   3.765  0.00  0.00    +0.041 A 
ATOM     24  C   UNL     1      -3.410  -1.533   2.685  0.00  0.00    +0.041 A 
ATOM     25  C   UNL     1      -3.337  -0.881   1.465  0.00  0.00    +0.129 A 
ATOM     26  F   UNL     1      -4.045  -1.341   0.410  0.00  0.00    -0.205 F 
ATOM     27  F   UNL     1      -1.187   0.524   4.683  0.00  0.00    -0.205 F 
ENDBRANCH   6  20
BRANCH  17  28
ATOM     28  C   UNL     1       2.257   0.671  -1.048  0.00  0.00    +0.318 C 
ATOM     29  O   UNL     1       2.768   1.110  -2.052  0.00  0.00    -0.250 OA
BRANCH  28  30
ATOM     30  O   UNL     1       2.482  -0.601  -0.683  0.00  0.00    -0.467 OA
ATOM     31  C   UNL     1       3.348  -1.390  -1.540  0.00  0.00    +0.280 C 
ENDBRANCH  28  30
ENDBRANCH  17  28
TORSDOF 3
