REMARK  Name = ZINC20764612
REMARK  8 active torsions:
REMARK  status: ('A' for Active; 'I' for Inactive)
REMARK    1  A    between atoms: C_1  and  C_2
REMARK    2  A    between atoms: C_2  and  O_3
REMARK    3  A    between atoms: O_3  and  C_4
REMARK    4  A    between atoms: C_7  and  C_10
REMARK    5  A    between atoms: C_12  and  C_26
REMARK    6  A    between atoms: C_15  and  C_18
REMARK    7  A    between atoms: C_23  and  O_24
REMARK    8  A    between atoms: C_29  and  C_32
REMARK                            x       y       z     vdW  Elec       q    Type
REMARK                         _______ _______ _______ _____ _____    ______ ____
ROOT
ATOM      1  C   UNL     1       2.720  -0.497   1.833  0.00  0.00    +0.040 C 
ATOM      2  N   UNL     1       2.327  -0.243   0.642  0.00  0.00    -0.299 NA
ATOM      3  C   UNL     1       2.490   1.048  -0.016  0.00  0.00    +0.081 C 
ATOM      4  N   UNL     1       3.505   1.855   0.671  0.00  0.00    +0.401 N 
ATOM      5  C   UNL     1       3.215   1.916   2.114  0.00  0.00    -0.028 C 
ATOM      6  C   UNL     1       3.415   0.515   2.702  0.00  0.00    +0.044 C 
ATOM      7  H   UNL     1       4.496   1.403   0.522  0.00  0.00    -0.081 HD
ATOM      8  H   UNL     1       3.502   2.876   0.261  0.00  0.00    -0.081 HD
ENDROOT
BRANCH   5   9
ATOM      9  C   UNL     1       4.154   2.887   2.782  0.00  0.00    -0.018 A 
ATOM     10  C   UNL     1       5.340   3.236   2.165  0.00  0.00    +0.025 A 
ATOM     11  C   UNL     1       6.200   4.132   2.775  0.00  0.00    +0.041 A 
ATOM     12  C   UNL     1       5.879   4.672   4.008  0.00  0.00    +0.023 A 
ATOM     13  C   UNL     1       4.697   4.322   4.630  0.00  0.00    +0.047 A 
ATOM     14  C   UNL     1       3.830   3.427   4.018  0.00  0.00    +0.119 A 
ATOM     15 CL   UNL     1       7.686   4.575   1.995  0.00  0.00    -0.084 Cl
BRANCH  14  16
ATOM     16  O   UNL     1       2.666   3.082   4.628  0.00  0.00    -0.507 OA
ATOM     17  H   UNL     1       2.410   3.510   5.608  0.00  0.00    +0.292 HD
ENDBRANCH  14  16
ENDBRANCH   5   9
BRANCH   1  21
ATOM     18  C   UNL     1       2.033  -4.380   3.406  0.00  0.00    +0.121 A 
ATOM     19  C   UNL     1       1.618  -4.071   2.117  0.00  0.00    +0.046 A 
ATOM     20  C   UNL     1       1.839  -2.812   1.603  0.00  0.00    +0.013 A 
ATOM     21  C   UNL     1       2.482  -1.845   2.380  0.00  0.00    -0.004 A 
ATOM     22  C   UNL     1       2.902  -2.161   3.675  0.00  0.00    +0.013 A 
ATOM     23  C   UNL     1       2.673  -3.421   4.183  0.00  0.00    +0.046 A 
BRANCH  18  24
ATOM     24  O   UNL     1       1.814  -5.621   3.909  0.00  0.00    -0.492 OA
BRANCH  24  26
ATOM     25  C   UNL     1       1.934  -7.313   5.631  0.00  0.00    +0.048 C 
ATOM     26  C   UNL     1       2.267  -5.871   5.242  0.00  0.00    +0.225 C 
ENDBRANCH  24  26
ENDBRANCH  18  24
ENDBRANCH   1  21
BRANCH   3  27
ATOM     27  C   UNL     1       1.175   1.783   0.000  0.00  0.00    -0.040 A 
ATOM     28  C   UNL     1      -0.013   1.076   0.008  0.00  0.00    +0.004 A 
ATOM     29  C   UNL     1      -1.219   1.751   0.017  0.00  0.00    +0.012 A 
ATOM     30  C   UNL     1      -1.238   3.133   0.030  0.00  0.00    +0.055 A 
ATOM     31  C   UNL     1      -0.050   3.840   0.022  0.00  0.00    +0.012 A 
ATOM     32  C   UNL     1       1.156   3.165   0.008  0.00  0.00    +0.004 A 
BRANCH  30  33
ATOM     33  C   UNL     1      -2.553   3.869   0.047  0.00  0.00    +0.417 C 
ATOM     34  F   UNL     1      -2.973   4.103  -1.267  0.00  0.00    -0.166 F 
ATOM     35  F   UNL     1      -3.511   3.096   0.712  0.00  0.00    -0.166 F 
ATOM     36  F   UNL     1      -2.396   5.090   0.711  0.00  0.00    -0.166 F 
ENDBRANCH  30  33
ENDBRANCH   3  27
TORSDOF 7
