REMARK  Name = ZINC59170697
REMARK  6 active torsions:
REMARK  status: ('A' for Active; 'I' for Inactive)
REMARK    1  A    between atoms: C_5  and  N_7
REMARK    2  A    between atoms: C_8  and  C_10
REMARK    3  A    between atoms: C_14  and  N_31
REMARK    4  A    between atoms: N_20  and  C_21
REMARK    5  A    between atoms: C_24  and  S_27
REMARK    6  A    between atoms: S_27  and  N_30
REMARK                            x       y       z     vdW  Elec       q    Type
REMARK                         _______ _______ _______ _____ _____    ______ ____
ROOT
ATOM      1  C   UNL     1       0.131  -4.213   0.247  0.00  0.00    +0.098 A 
ATOM      2  C   UNL     1      -1.052  -4.941   0.242  0.00  0.00    +0.030 A 
ATOM      3  C   UNL     1      -0.944  -6.401   0.280  0.00  0.00    +0.020 A 
ATOM      4  C   UNL     1      -2.055  -7.209   0.011  0.00  0.00    +0.044 A 
ATOM      5  C   UNL     1      -1.929  -8.569   0.049  0.00  0.00    +0.127 A 
ATOM      6  C   UNL     1      -0.708  -9.156   0.351  0.00  0.00    +0.036 A 
ATOM      7  C   UNL     1       0.400  -8.377   0.620  0.00  0.00    +0.049 A 
ATOM      8  C   UNL     1       0.294  -6.994   0.589  0.00  0.00    +0.138 A 
ATOM      9  O   UNL     1       1.369  -6.213   0.858  0.00  0.00    -0.439 OA
ATOM     10  C   UNL     1       1.392  -4.980   0.284  0.00  0.00    +0.212 A 
ATOM     11  N   UNL     1       2.502  -4.484  -0.219  0.00  0.00    -0.325 N 
ATOM     12  H   UNL     1       2.478  -3.656  -0.723  0.00  0.00    +0.169 HD
ENDROOT
BRANCH  11  13
ATOM     13  C   UNL     1       3.689  -5.136  -0.030  0.00  0.00    +0.042 A 
ATOM     14  C   UNL     1       4.020  -5.640   1.230  0.00  0.00    +0.027 A 
ATOM     15  C   UNL     1       5.219  -6.296   1.413  0.00  0.00    +0.030 A 
ATOM     16  C   UNL     1       6.094  -6.456   0.352  0.00  0.00    +0.105 A 
ATOM     17  C   UNL     1       5.773  -5.958  -0.898  0.00  0.00    +0.030 A 
ATOM     18  C   UNL     1       4.574  -5.305  -1.097  0.00  0.00    +0.027 A 
BRANCH  16  19
ATOM     19  S   UNL     1       7.623  -7.295   0.596  0.00  0.00    +0.056 S 
ATOM     20  O   UNL     1       8.505  -6.835  -0.419  0.00  0.00    -0.153 OA
ATOM     21  O   UNL     1       7.931  -7.186   1.979  0.00  0.00    -0.153 OA
BRANCH  19  22
ATOM     22  N   UNL     1       7.354  -8.901   0.296  0.00  0.00    -0.204 NA
ATOM     23  H   UNL     1       8.069  -9.457  -0.050  0.00  0.00    +0.144 HD
ATOM     24  H   UNL     1       6.480  -9.286   0.467  0.00  0.00    +0.144 HD
ENDBRANCH  19  22
ENDBRANCH  16  19
ENDBRANCH  11  13
BRANCH   1  26
ATOM     25  N   UNL     1       1.286  -2.062   0.324  0.00  0.00    -0.279 N 
ATOM     26  C   UNL     1       0.128  -2.741   0.212  0.00  0.00    +0.253 C 
ATOM     27  O   UNL     1      -0.921  -2.138   0.082  0.00  0.00    -0.270 OA
ATOM     28  H   UNL     1       2.127  -2.542   0.379  0.00  0.00    +0.155 HD
BRANCH  25  33
ATOM     29  C   UNL     1       0.181   1.420  -0.101  0.00  0.00    +0.002 A 
ATOM     30  C   UNL     1       1.258   2.105   0.431  0.00  0.00    +0.003 A 
ATOM     31  C   UNL     1       2.345   1.411   0.928  0.00  0.00    +0.040 A 
ATOM     32  C   UNL     1       2.359   0.028   0.895  0.00  0.00    +0.144 A 
ATOM     33  C   UNL     1       1.277  -0.663   0.360  0.00  0.00    +0.069 A 
ATOM     34  C   UNL     1       0.187   0.039  -0.138  0.00  0.00    +0.026 A 
ATOM     35  F   UNL     1       3.422  -0.650   1.380  0.00  0.00    -0.204 F 
ENDBRANCH  25  33
ENDBRANCH   1  26
BRANCH   5  36
ATOM     36  N   UNL     1      -3.103  -9.424  -0.235  0.00  0.00    +0.056 N 
ATOM     37  O   UNL     1      -4.170  -8.918  -0.499  0.00  0.00    -0.126 OA
ATOM     38  O   UNL     1      -2.997 -10.628  -0.203  0.00  0.00    -0.126 OA
ENDBRANCH   5  36
TORSDOF 6
