REMARK  Name = ZINC59370859
REMARK  6 active torsions:
REMARK  status: ('A' for Active; 'I' for Inactive)
REMARK    1  A    between atoms: C_4  and  O_10
REMARK    2  A    between atoms: C_5  and  N_7
REMARK    3  A    between atoms: O_10  and  C_11
REMARK    4  A    between atoms: C_11  and  C_12
REMARK    5  A    between atoms: C_12  and  N_13
REMARK    6  A    between atoms: C_21  and  C_23
REMARK                            x       y       z     vdW  Elec       q    Type
REMARK                         _______ _______ _______ _____ _____    ______ ____
ROOT
ATOM      1  N   UNL     1       6.029  -1.506  -1.322  0.00  0.00    -0.288 NA
ATOM      2  C   UNL     1       6.211  -0.607  -2.471  0.00  0.00    +0.090 C 
ATOM      3  C   UNL     1       5.828  -1.361  -3.756  0.00  0.00    +0.058 C 
ATOM      4  C   UNL     1       6.481  -2.704  -3.707  0.00  0.00    -0.004 A 
ATOM      5  C   UNL     1       7.051  -3.292  -2.618  0.00  0.00    -0.015 A 
ATOM      6  C   UNL     1       7.606  -4.555  -2.813  0.00  0.00    +0.013 A 
ATOM      7  C   UNL     1       7.559  -5.134  -4.035  0.00  0.00    +0.046 A 
ATOM      8  S   UNL     1       6.707  -3.893  -4.998  0.00  0.00    -0.101 S 
ATOM      9  C   UNL     1       7.050  -2.560  -1.280  0.00  0.00    +0.125 C 
ENDROOT
BRANCH   9  10
ATOM     10  C   UNL     1       6.729  -3.531  -0.172  0.00  0.00    +0.011 A 
ATOM     11  C   UNL     1       7.569  -4.134   0.704  0.00  0.00    +0.013 A 
ATOM     12  C   UNL     1       7.046  -4.998   1.647  0.00  0.00    +0.008 A 
ATOM     13  C   UNL     1       5.708  -5.216   1.669  0.00  0.00    +0.045 A 
ATOM     14  S   UNL     1       5.143  -4.178   0.331  0.00  0.00    -0.100 S 
ENDBRANCH   9  10
BRANCH   1  15
ATOM     15  C   UNL     1       5.999  -0.751  -0.063  0.00  0.00    +0.126 C 
BRANCH  15  16
ATOM     16  C   UNL     1       4.772   0.164  -0.045  0.00  0.00    +0.244 C 
BRANCH  16  17
ATOM     17  O   UNL     1       3.586  -0.632  -0.037  0.00  0.00    -0.488 OA
BRANCH  17  21
ATOM     18  C   UNL     1      -0.017   1.378   0.010  0.00  0.00    +0.002 A 
ATOM     19  C   UNL     1       1.170   2.088   0.002  0.00  0.00    +0.004 A 
ATOM     20  C   UNL     1       2.377   1.417  -0.013  0.00  0.00    +0.048 A 
ATOM     21  C   UNL     1       2.399   0.030  -0.021  0.00  0.00    +0.151 A 
ATOM     22  C   UNL     1       1.207  -0.680  -0.013  0.00  0.00    +0.168 A 
ATOM     23  C   UNL     1       0.002  -0.004   0.002  0.00  0.00    +0.036 A 
BRANCH  22  24
ATOM     24  N   UNL     1       1.226  -2.160  -0.022  0.00  0.00    +0.060 N 
ATOM     25  O   UNL     1       0.188  -2.778  -0.015  0.00  0.00    -0.126 OA
ATOM     26  O   UNL     1       2.281  -2.750  -0.036  0.00  0.00    -0.126 OA
ENDBRANCH  22  24
ENDBRANCH  17  21
ENDBRANCH  16  17
ENDBRANCH  15  16
ENDBRANCH   1  15
TORSDOF 6
