REMARK  Name = ZINC05677137
REMARK  5 active torsions:
REMARK  status: ('A' for Active; 'I' for Inactive)
REMARK    1  A    between atoms: C_1  and  C_2
REMARK    2  A    between atoms: C_9  and  C_11
REMARK    3  A    between atoms: N_13  and  N_14
REMARK    4  A    between atoms: C_15  and  C_16
REMARK    5  A    between atoms: C_21  and  O_22
REMARK                            x       y       z     vdW  Elec       q    Type
REMARK                         _______ _______ _______ _____ _____    ______ ____
ROOT
ATOM      1  C   UNL     1      -2.967   0.774  -0.188  0.00  0.00    +0.236 C 
ATOM      2  O   UNL     1      -3.776   1.420   0.444  0.00  0.00    -0.274 OA
ATOM      3  N   UNL     1      -2.713  -0.505   0.151  0.00  0.00    -0.207 N 
ATOM      4  H   UNL     1      -2.066  -1.021  -0.355  0.00  0.00    +0.177 HD
ENDROOT
BRANCH   1  12
ATOM      5  C   UNL     1      -0.013   1.304  -2.639  0.00  0.00    +0.012 C 
ATOM      6  C   UNL     1      -0.725   1.456  -1.293  0.00  0.00    -0.017 C 
ATOM      7  C   UNL     1       0.009   0.836  -0.114  0.00  0.00    +0.008 C 
ATOM      8  C   UNL     1      -0.600   1.312   1.205  0.00  0.00    +0.001 C 
ATOM      9  C   UNL     1      -0.595   2.845   1.220  0.00  0.00    +0.000 C 
ATOM     10  C   UNL     1      -1.697   3.344   0.286  0.00  0.00    +0.005 C 
ATOM     11  C   UNL     1      -1.523   2.736  -1.104  0.00  0.00    +0.008 C 
ATOM     12  C   UNL     1      -2.246   1.403  -1.352  0.00  0.00    +0.086 C 
ENDBRANCH   1  12
BRANCH   3  13
ATOM     13  N   UNL     1      -3.383  -1.090   1.233  0.00  0.00    -0.188 NA
ATOM     14  C   UNL     1      -3.138  -2.322   1.560  0.00  0.00    +0.142 C 
BRANCH  14  15
ATOM     15  C   UNL     1      -3.844  -2.937   2.698  0.00  0.00    +0.036 A 
ATOM     16  C   UNL     1      -3.583  -4.262   3.053  0.00  0.00    +0.013 A 
ATOM     17  C   UNL     1      -4.246  -4.832   4.120  0.00  0.00    +0.001 A 
ATOM     18  C   UNL     1      -5.169  -4.094   4.841  0.00  0.00    +0.004 A 
ATOM     19  C   UNL     1      -5.436  -2.782   4.501  0.00  0.00    +0.046 A 
ATOM     20  C   UNL     1      -4.775  -2.193   3.435  0.00  0.00    +0.125 A 
BRANCH  20  21
ATOM     21  O   UNL     1      -5.032  -0.901   3.103  0.00  0.00    -0.506 OA
ATOM     22  H   UNL     1      -5.750  -0.795   2.464  0.00  0.00    +0.292 HD
ENDBRANCH  20  21
ENDBRANCH  14  15
ENDBRANCH   3  13
TORSDOF 4
