REMARK  Name = ZINC39692395
REMARK  12 active torsions:
REMARK  status: ('A' for Active; 'I' for Inactive)
REMARK    1  A    between atoms: C_1  and  C_2
REMARK    2  A    between atoms: C_2  and  N_3
REMARK    3  A    between atoms: C_4  and  C_25
REMARK    4  A    between atoms: C_7  and  S_8
REMARK    5  A    between atoms: S_8  and  C_9
REMARK    6  A    between atoms: C_9  and  C_10
REMARK    7  A    between atoms: C_17  and  C_24
REMARK    8  A    between atoms: C_18  and  C_21
REMARK    9  A    between atoms: C_28  and  C_31
REMARK   10  A    between atoms: C_31  and  C_32
REMARK   11  A    between atoms: C_31  and  C_33
REMARK   12  A    between atoms: C_31  and  C_34
REMARK                            x       y       z     vdW  Elec       q    Type
REMARK                         _______ _______ _______ _____ _____    ______ ____
ROOT
ATOM      1  N   UNL     1      -1.179  -1.030  -0.063  0.00  0.00    -0.302 N 
ATOM      2  C   UNL     1      -1.936  -1.304   1.053  0.00  0.00    +0.165 A 
ATOM      3  N   UNL     1      -3.176  -1.456   0.650  0.00  0.00    -0.128 NA
ATOM      4  N   UNL     1      -3.246  -1.298  -0.624  0.00  0.00    -0.122 NA
ATOM      5  C   UNL     1      -2.055  -1.031  -1.111  0.00  0.00    +0.192 A 
ENDROOT
BRANCH   2   6
ATOM      6  C   UNL     1      -1.446  -1.407   2.444  0.00  0.00    +0.019 A 
ATOM      7  C   UNL     1      -0.221  -0.840   2.799  0.00  0.00    +0.012 A 
ATOM      8  C   UNL     1       0.232  -0.940   4.098  0.00  0.00    +0.005 A 
ATOM      9  C   UNL     1      -0.526  -1.601   5.049  0.00  0.00    -0.042 A 
ATOM     10  C   UNL     1      -1.741  -2.166   4.703  0.00  0.00    +0.005 A 
ATOM     11  C   UNL     1      -2.208  -2.068   3.409  0.00  0.00    +0.012 A 
BRANCH   9  12
ATOM     12  C   UNL     1      -0.025  -1.708   6.466  0.00  0.00    -0.013 C 
ATOM     13  C   UNL     1       0.159  -0.305   7.048  0.00  0.00    +0.015 C 
ATOM     14  C   UNL     1      -1.042  -2.480   7.309  0.00  0.00    +0.015 C 
ATOM     15  C   UNL     1       1.315  -2.446   6.479  0.00  0.00    +0.015 C 
ENDBRANCH   9  12
ENDBRANCH   2   6
BRANCH   1  17
ATOM     16  C   UNL     1       0.526   0.722  -0.047  0.00  0.00    +0.027 C 
ATOM     17  C   UNL     1       0.264  -0.784  -0.115  0.00  0.00    +0.122 C 
ENDBRANCH   1  17
BRANCH   5  18
ATOM     18  S   UNL     1      -1.661  -0.733  -2.802  0.00  0.00    -0.081 S 
BRANCH  18  19
ATOM     19  C   UNL     1      -3.254  -0.879  -3.657  0.00  0.00    +0.113 C 
BRANCH  19  20
ATOM     20  C   UNL     1      -3.057  -0.643  -5.132  0.00  0.00    -0.023 C 
ATOM     21  C   UNL     1      -2.943  -1.680  -5.984  0.00  0.00    +0.074 C 
ATOM     22  C   UNL     1      -2.752  -1.450  -7.413  0.00  0.00    +0.261 C 
ATOM     23  O   UNL     1      -2.651  -2.404  -8.168  0.00  0.00    -0.269 OA
ATOM     24  N   UNL     1      -2.687  -0.208  -7.904  0.00  0.00    -0.170 NA
ATOM     25  C   UNL     1      -2.789   0.845  -7.136  0.00  0.00    +0.098 C 
ATOM     26  C   UNL     1      -2.989   0.741  -5.676  0.00  0.00    +0.009 C 
ATOM     27  C   UNL     1      -3.088   1.889  -4.978  0.00  0.00    -0.039 C 
ATOM     28  C   UNL     1      -2.991   3.188  -5.742  0.00  0.00    +0.192 C 
ATOM     29  S   UNL     1      -2.746   2.593  -7.463  0.00  0.00    -0.088 S 
ATOM     30  C   UNL     1      -3.289   1.877  -3.484  0.00  0.00    +0.041 C 
BRANCH  28  31
ATOM     31  C   UNL     1      -1.804   3.996  -5.284  0.00  0.00    +0.373 C 
ATOM     32  O   UNL     1      -0.745   3.918  -5.883  0.00  0.00    -0.245 OA
ATOM     33  O   UNL     1      -1.903   4.728  -4.313  0.00  0.00    -0.245 OA
ENDBRANCH  28  31
ENDBRANCH  19  20
ENDBRANCH  18  19
ENDBRANCH   5  18
TORSDOF 7
