REMARK  Name = ZINC39668779
REMARK  9 active torsions:
REMARK  status: ('A' for Active; 'I' for Inactive)
REMARK    1  A    between atoms: C_1  and  C_2
REMARK    2  A    between atoms: C_3  and  C_13
REMARK    3  A    between atoms: C_4  and  C_7
REMARK    4  A    between atoms: C_17  and  C_26
REMARK    5  A    between atoms: N_28  and  C_29
REMARK    6  A    between atoms: C_29  and  C_30
REMARK    7  A    between atoms: C_30  and  C_32
REMARK    8  A    between atoms: C_30  and  O_33
REMARK    9  A    between atoms: O_33  and  C_34
REMARK                            x       y       z     vdW  Elec       q    Type
REMARK                         _______ _______ _______ _____ _____    ______ ____
ROOT
ATOM      1  C   UNL     1      -0.471  -0.706   0.359  0.00  0.00    +0.252 C 
ATOM      2  O   UNL     1      -1.106  -0.875  -0.664  0.00  0.00    -0.270 OA
ATOM      3  N   UNL     1      -1.113  -0.566   1.536  0.00  0.00    -0.296 N 
ATOM      4  C   UNL     1      -0.525  -0.259   2.861  0.00  0.00    +0.121 C 
ATOM      5  C   UNL     1      -1.530   0.713   3.518  0.00  0.00    +0.100 C 
ATOM      6  C   UNL     1      -2.869   0.428   2.817  0.00  0.00    -0.004 C 
ATOM      7  C   UNL     1      -2.569  -0.679   1.796  0.00  0.00    +0.115 C 
ATOM      8  C   UNL     1      -3.366   1.679   2.099  0.00  0.00    -0.010 C 
ATOM      9  C   UNL     1      -4.726   1.387   1.458  0.00  0.00    -0.082 C 
ATOM     10  N   UNL     1      -5.681   0.980   2.496  0.00  0.00    +0.379 N 
ATOM     11  C   UNL     1      -5.242  -0.275   3.118  0.00  0.00    -0.082 C 
ATOM     12  C   UNL     1      -3.904  -0.053   3.829  0.00  0.00    -0.010 C 
ATOM     13  H   UNL     1      -5.738   1.701   3.200  0.00  0.00    -0.086 HD
ATOM     14  H   UNL     1      -6.591   0.847   2.080  0.00  0.00    -0.086 HD
ENDROOT
BRANCH   1  17
ATOM     15  C   UNL     1       1.252   1.830  -0.250  0.00  0.00    +0.090 C 
ATOM     16  C   UNL     1       1.766   0.445   0.048  0.00  0.00    +0.147 A 
ATOM     17  C   UNL     1       1.000  -0.652   0.312  0.00  0.00    +0.106 A 
ATOM     18  C   UNL     1       1.926  -1.772   0.541  0.00  0.00    +0.126 A 
ATOM     19  N   UNL     1       3.138  -1.296   0.406  0.00  0.00    -0.077 NA
ATOM     20  O   UNL     1       3.050   0.080   0.094  0.00  0.00    -0.359 OA
BRANCH  18  21
ATOM     21  C   UNL     1       1.557  -3.171   0.864  0.00  0.00    +0.004 A 
ATOM     22  C   UNL     1       0.440  -3.436   1.654  0.00  0.00    +0.010 A 
ATOM     23  C   UNL     1       0.101  -4.741   1.950  0.00  0.00    +0.001 A 
ATOM     24  C   UNL     1       0.869  -5.785   1.466  0.00  0.00    +0.000 A 
ATOM     25  C   UNL     1       1.979  -5.528   0.682  0.00  0.00    +0.001 A 
ATOM     26  C   UNL     1       2.324  -4.227   0.374  0.00  0.00    +0.010 A 
ENDBRANCH  18  21
ENDBRANCH   1  17
BRANCH   5  27
ATOM     27  C   UNL     1      -1.107   2.141   3.286  0.00  0.00    +0.218 C 
ATOM     28  O   UNL     1      -0.444   2.426   2.311  0.00  0.00    -0.275 OA
ATOM     29  N   UNL     1      -1.466   3.101   4.160  0.00  0.00    -0.312 N 
ATOM     30  H   UNL     1      -1.996   2.873   4.940  0.00  0.00    +0.149 HD
BRANCH  29  31
ATOM     31  C   UNL     1      -1.055   4.489   3.934  0.00  0.00    +0.148 C 
BRANCH  31  32
ATOM     32  C   UNL     1      -1.589   5.370   5.066  0.00  0.00    +0.187 C 
ATOM     33  C   UNL     1      -1.267   6.835   4.766  0.00  0.00    +0.053 C 
BRANCH  32  34
ATOM     34  O   UNL     1      -0.973   4.989   6.297  0.00  0.00    -0.486 OA
BRANCH  34  35
ATOM     35  C   UNL     1      -1.650   5.277   7.441  0.00  0.00    +0.139 A 
ATOM     36  C   UNL     1      -2.831   6.010   7.396  0.00  0.00    +0.049 A 
ATOM     37  C   UNL     1      -3.486   6.278   8.587  0.00  0.00    +0.023 A 
ATOM     38  C   UNL     1      -2.947   5.812   9.772  0.00  0.00    +0.111 A 
ATOM     39  N   UNL     1      -1.825   5.120   9.780  0.00  0.00    -0.260 NA
ATOM     40  C   UNL     1      -1.175   4.839   8.668  0.00  0.00    +0.156 A 
ENDBRANCH  34  35
ENDBRANCH  32  34
ENDBRANCH  31  32
ENDBRANCH  29  31
ENDBRANCH   5  27
TORSDOF 7
