REMARK  Name = ZINC36013923
REMARK  16 active torsions:
REMARK  status: ('A' for Active; 'I' for Inactive)
REMARK    1  A    between atoms: C_1  and  C_2
REMARK    2  A    between atoms: C_2  and  N_3
REMARK    3  A    between atoms: C_4  and  C_25
REMARK    4  A    between atoms: C_5  and  C_20
REMARK    5  A    between atoms: C_6  and  C_11
REMARK    6  A    between atoms: C_14  and  C_17
REMARK    7  A    between atoms: C_17  and  C_18
REMARK    8  A    between atoms: C_17  and  C_19
REMARK    9  A    between atoms: C_20  and  O_22
REMARK   10  A    between atoms: O_22  and  C_23
REMARK   11  A    between atoms: C_23  and  C_24
REMARK   12  A    between atoms: C_25  and  N_26
REMARK   13  A    between atoms: N_34  and  C_35
REMARK   14  A    between atoms: C_35  and  C_36
REMARK   15  A    between atoms: C_35  and  C_37
REMARK   16  A    between atoms: C_35  and  C_38
REMARK                            x       y       z     vdW  Elec       q    Type
REMARK                         _______ _______ _______ _____ _____    ______ ____
ROOT
ATOM      1  N   UNL     1       0.722  -0.427  -1.174  0.00  0.00    -0.258 N 
ATOM      2  C   UNL     1      -0.034  -0.556  -2.304  0.00  0.00    +0.041 C 
ATOM      3  C   UNL     1       0.506  -1.010  -3.455  0.00  0.00    +0.080 C 
ATOM      4  C   UNL     1       1.978  -1.372  -3.449  0.00  0.00    +0.144 C 
ATOM      5  N   UNL     1       2.703  -1.196  -2.180  0.00  0.00    -0.288 N 
ATOM      6  C   UNL     1       2.025  -0.726  -1.114  0.00  0.00    +0.307 C 
ATOM      7  O   UNL     1       2.616  -0.574  -0.062  0.00  0.00    -0.252 OA
ATOM      8  H   UNL     1       3.647  -1.411  -2.113  0.00  0.00    +0.151 HD
ENDROOT
BRANCH   4   9
ATOM      9  C   UNL     1       2.103  -2.817  -3.859  0.00  0.00    -0.022 A 
ATOM     10  C   UNL     1       1.863  -3.820  -2.938  0.00  0.00    +0.006 A 
ATOM     11  C   UNL     1       1.978  -5.145  -3.313  0.00  0.00    +0.004 A 
ATOM     12  C   UNL     1       2.332  -5.468  -4.610  0.00  0.00    -0.045 A 
ATOM     13  C   UNL     1       2.570  -4.465  -5.531  0.00  0.00    +0.004 A 
ATOM     14  C   UNL     1       2.451  -3.140  -5.157  0.00  0.00    +0.006 A 
BRANCH  12  15
ATOM     15  C   UNL     1       2.458  -6.913  -5.019  0.00  0.00    +0.013 C 
ATOM     16  C   UNL     1       1.473  -7.210  -6.152  0.00  0.00    +0.012 C 
ATOM     17  C   UNL     1       3.885  -7.184  -5.500  0.00  0.00    +0.012 C 
ENDBRANCH  12  15
ENDBRANCH   4   9
BRANCH   1  19
ATOM     18  C   UNL     1       0.172   1.599   0.082  0.00  0.00    +0.025 C 
ATOM     19  C   UNL     1       0.070   0.073   0.040  0.00  0.00    +0.111 C 
ENDBRANCH   1  19
BRANCH   3  20
ATOM     20  C   UNL     1      -0.275  -1.145  -4.627  0.00  0.00    +0.339 C 
ATOM     21  O   UNL     1      -0.713  -2.236  -4.944  0.00  0.00    -0.245 OA
BRANCH  20  22
ATOM     22  O   UNL     1      -0.536  -0.065  -5.392  0.00  0.00    -0.462 OA
BRANCH  22  23
ATOM     23  C   UNL     1      -1.331  -0.274  -6.560  0.00  0.00    +0.229 C 
ATOM     24  C   UNL     1      -1.519   1.055  -7.295  0.00  0.00    +0.048 C 
ENDBRANCH  22  23
ENDBRANCH  20  22
ENDBRANCH   3  20
BRANCH   2  25
ATOM     25  C   UNL     1      -1.494  -0.185  -2.266  0.00  0.00    +0.136 C 
BRANCH  25  26
ATOM     26  N   UNL     1      -2.215  -1.121  -1.393  0.00  0.00    -0.294 NA
ATOM     27  C   UNL     1      -2.206  -2.478  -1.955  0.00  0.00    +0.104 C 
ATOM     28  C   UNL     1      -2.805  -3.453  -0.936  0.00  0.00    +0.124 C 
ATOM     29  N   UNL     1      -4.129  -2.955  -0.535  0.00  0.00    -0.283 N 
ATOM     30  C   UNL     1      -4.241  -1.558  -0.089  0.00  0.00    +0.124 C 
ATOM     31  C   UNL     1      -3.586  -0.657  -1.141  0.00  0.00    +0.104 C 
ATOM     32  C   UNL     1      -5.211  -3.757  -0.574  0.00  0.00    +0.303 C 
ATOM     33  O   UNL     1      -5.086  -4.933  -0.857  0.00  0.00    -0.253 OA
ATOM     34  N   UNL     1      -6.432  -3.256  -0.300  0.00  0.00    -0.294 N 
ATOM     35  H   UNL     1      -6.524  -2.336  -0.008  0.00  0.00    +0.151 HD
BRANCH  34  36
ATOM     36  C   UNL     1      -7.620  -4.102  -0.443  0.00  0.00    +0.028 C 
ATOM     37  C   UNL     1      -7.500  -5.311   0.486  0.00  0.00    +0.031 C 
ATOM     38  C   UNL     1      -8.867  -3.296  -0.073  0.00  0.00    +0.031 C 
ATOM     39  C   UNL     1      -7.733  -4.581  -1.892  0.00  0.00    +0.031 C 
ENDBRANCH  34  36
ENDBRANCH  25  26
ENDBRANCH   2  25
TORSDOF 9
