REMARK  Name = ZINC02069188
REMARK  14 active torsions:
REMARK  status: ('A' for Active; 'I' for Inactive)
REMARK    1  A    between atoms: C_1  and  C_2
REMARK    2  A    between atoms: C_2  and  C_3
REMARK    3  A    between atoms: C_2  and  C_4
REMARK    4  A    between atoms: C_6  and  C_30
REMARK    5  A    between atoms: C_7  and  S_13
REMARK    6  A    between atoms: C_8  and  C_10
REMARK    7  A    between atoms: C_10  and  C_11
REMARK    8  A    between atoms: C_10  and  C_12
REMARK    9  A    between atoms: S_13  and  N_16
REMARK   10  A    between atoms: C_21  and  C_22
REMARK   11  A    between atoms: C_21  and  N_73
REMARK   12  A    between atoms: C_23  and  C_24
REMARK   13  A    between atoms: C_30  and  C_31
REMARK   14  A    between atoms: C_30  and  C_32
REMARK                            x       y       z     vdW  Elec       q    Type
REMARK                         _______ _______ _______ _____ _____    ______ ____
ROOT
ATOM      1  S   UNL     1       2.670   3.558   1.190  0.00  0.00    +0.061 S 
ATOM      2  O   UNL     1       2.360   4.780   1.845  0.00  0.00    -0.153 OA
ATOM      3  O   UNL     1       3.292   2.471   1.862  0.00  0.00    -0.153 OA
ENDROOT
BRANCH   1   4
ATOM      4  N   UNL     1       3.642   3.941  -0.094  0.00  0.00    -0.180 NA
ATOM      5  C   UNL     1       4.563   2.947  -0.667  0.00  0.00    +0.091 C 
ATOM      6  C   UNL     1       4.334   2.897  -2.186  0.00  0.00    -0.061 C 
ATOM      7  C   UNL     1       3.425   5.146  -2.202  0.00  0.00    -0.061 C 
ATOM      8  C   UNL     1       3.613   5.286  -0.688  0.00  0.00    +0.091 C 
ATOM      9  N   UNL     1       4.487   4.263  -2.732  0.00  0.00    +0.384 N 
ATOM     10  H   UNL     1       5.401   4.634  -2.448  0.00  0.00    -0.081 HD
BRANCH   9  11
ATOM     11  C   UNL     1       4.422   4.225  -4.208  0.00  0.00    -0.051 C 
BRANCH  11  12
ATOM     12  C   UNL     1       5.319   3.125  -4.714  0.00  0.00    -0.045 C 
ATOM     13  C   UNL     1       4.835   2.197  -5.527  0.00  0.00    +0.002 C 
BRANCH  13  14
ATOM     14  C   UNL     1       5.715   1.118  -6.024  0.00  0.00    -0.025 A 
ATOM     15  C   UNL     1       7.057   1.077  -5.643  0.00  0.00    +0.008 A 
ATOM     16  C   UNL     1       7.871   0.064  -6.105  0.00  0.00    +0.001 A 
ATOM     17  C   UNL     1       7.364  -0.903  -6.954  0.00  0.00    +0.000 A 
ATOM     18  C   UNL     1       6.035  -0.865  -7.340  0.00  0.00    +0.001 A 
ATOM     19  C   UNL     1       5.209   0.139  -6.880  0.00  0.00    +0.008 A 
ENDBRANCH  13  14
ENDBRANCH  11  12
ENDBRANCH   9  11
ENDBRANCH   1   4
BRANCH   1  23
ATOM     20  C   UNL     1      -1.218   1.976  -0.506  0.00  0.00    -0.044 A 
ATOM     21  C   UNL     1      -0.136   1.129  -0.351  0.00  0.00    +0.009 A 
ATOM     22  C   UNL     1       1.052   1.613   0.165  0.00  0.00    -0.018 A 
ATOM     23  C   UNL     1       1.156   2.941   0.531  0.00  0.00    +0.112 A 
ATOM     24  C   UNL     1       0.072   3.787   0.382  0.00  0.00    -0.018 A 
ATOM     25  C   UNL     1      -1.115   3.303  -0.135  0.00  0.00    +0.009 A 
BRANCH  20  27
ATOM     26  C   UNL     1      -3.632   1.639  -0.051  0.00  0.00    +0.012 C 
ATOM     27  C   UNL     1      -2.511   1.450  -1.074  0.00  0.00    +0.013 C 
ATOM     28  C   UNL     1      -2.853   2.215  -2.354  0.00  0.00    +0.012 C 
ENDBRANCH  20  27
BRANCH  24  29
ATOM     29  C   UNL     1       0.185   5.235   0.783  0.00  0.00    +0.015 C 
ATOM     30  C   UNL     1      -0.691   6.088  -0.136  0.00  0.00    +0.012 C 
ATOM     31  C   UNL     1      -0.280   5.401   2.231  0.00  0.00    +0.012 C 
ENDBRANCH  24  29
BRANCH  22  32
ATOM     32  C   UNL     1       2.233   0.691   0.327  0.00  0.00    +0.015 C 
ATOM     33  C   UNL     1       1.933  -0.333   1.423  0.00  0.00    +0.012 C 
ATOM     34  C   UNL     1       2.498  -0.036  -0.992  0.00  0.00    +0.012 C 
ENDBRANCH  22  32
ENDBRANCH   1  23
TORSDOF 8
