REMARK  Name = ZINC12151258
REMARK  12 active torsions:
REMARK  status: ('A' for Active; 'I' for Inactive)
REMARK    1  A    between atoms: C_1  and  C_2
REMARK    2  A    between atoms: C_5  and  C_8
REMARK    3  A    between atoms: C_8  and  O_9
REMARK    4  A    between atoms: O_9  and  C_10
REMARK    5  A    between atoms: C_11  and  C_24
REMARK    6  A    between atoms: C_15  and  O_22
REMARK    7  A    between atoms: C_16  and  O_20
REMARK    8  A    between atoms: O_20  and  C_21
REMARK    9  A    between atoms: O_22  and  C_23
REMARK   10  A    between atoms: C_24  and  N_59
REMARK   11  A    between atoms: C_25  and  C_26
REMARK   12  A    between atoms: C_25  and  N_59
REMARK                            x       y       z     vdW  Elec       q    Type
REMARK                         _______ _______ _______ _____ _____    ______ ____
ROOT
ATOM      1  C   UNL     1       6.487  -4.274  -3.554  0.00  0.00    +0.217 A 
ATOM      2  C   UNL     1       5.475  -5.006  -2.923  0.00  0.00    -0.002 A 
ATOM      3  C   UNL     1       4.821  -5.989  -3.606  0.00  0.00    +0.017 A 
ATOM      4  C   UNL     1       5.185  -6.228  -4.946  0.00  0.00    +0.005 A 
ATOM      5  C   UNL     1       4.548  -7.222  -5.707  0.00  0.00    +0.059 A 
ATOM      6  C   UNL     1       4.931  -7.431  -6.999  0.00  0.00    +0.162 A 
ATOM      7  C   UNL     1       5.953  -6.664  -7.577  0.00  0.00    +0.164 A 
ATOM      8  C   UNL     1       6.588  -5.691  -6.861  0.00  0.00    +0.077 A 
ATOM      9  C   UNL     1       6.218  -5.452  -5.527  0.00  0.00    +0.079 A 
ATOM     10  N   UNL     1       6.828  -4.504  -4.804  0.00  0.00    -0.213 NA
ENDROOT
BRANCH   7  11
ATOM     11  O   UNL     1       6.316  -6.892  -8.866  0.00  0.00    -0.491 OA
ATOM     12  C   UNL     1       7.363  -6.079  -9.399  0.00  0.00    +0.277 C 
ENDBRANCH   7  11
BRANCH   6  13
ATOM     13  O   UNL     1       4.314  -8.393  -7.736  0.00  0.00    -0.491 OA
ATOM     14  C   UNL     1       3.280  -9.141  -7.091  0.00  0.00    +0.277 C 
ENDBRANCH   6  13
BRANCH   1  15
ATOM     15  O   UNL     1       7.133  -3.304  -2.860  0.00  0.00    -0.471 OA
BRANCH  15  16
ATOM     16  C   UNL     1       8.158  -2.586  -3.550  0.00  0.00    +0.266 C 
BRANCH  16  21
ATOM     17  C   UNL     1      10.460   1.361  -0.012  0.00  0.00    +0.044 C 
ATOM     18  C   UNL     1       9.860   0.332  -0.935  0.00  0.00    -0.050 A 
ATOM     19  C   UNL     1      10.393  -0.943  -0.990  0.00  0.00    +0.004 A 
ATOM     20  C   UNL     1       9.843  -1.887  -1.837  0.00  0.00    +0.007 A 
ATOM     21  C   UNL     1       8.758  -1.557  -2.627  0.00  0.00    -0.010 A 
ATOM     22  C   UNL     1       8.227  -0.281  -2.576  0.00  0.00    +0.007 A 
ATOM     23  C   UNL     1       8.775   0.661  -1.726  0.00  0.00    +0.004 A 
ENDBRANCH  16  21
ENDBRANCH  15  16
ENDBRANCH   1  15
BRANCH   2  24
ATOM     24  C   UNL     1       5.113  -4.714  -1.490  0.00  0.00    -0.041 C 
BRANCH  24  25
ATOM     25  N   UNL     1       4.238  -3.527  -1.445  0.00  0.00    +0.386 N 
ATOM     26  H   UNL     1       3.387  -3.714  -1.989  0.00  0.00    -0.085 HD
ATOM     27  H   UNL     1       4.734  -2.725  -1.850  0.00  0.00    -0.085 HD
BRANCH  25  28
ATOM     28  C   UNL     1       3.867  -3.217  -0.052  0.00  0.00    -0.024 C 
BRANCH  28  29
ATOM     29  C   UNL     1       2.974  -2.003  -0.037  0.00  0.00    +0.044 A 
ATOM     30  C   UNL     1       1.631  -2.016  -0.024  0.00  0.00    +0.114 A 
ATOM     31  N   UNL     1       1.195  -0.694  -0.013  0.00  0.00    -0.300 N 
ATOM     32  C   UNL     1       0.002  -0.004   0.002  0.00  0.00    +0.100 A 
ATOM     33  C   UNL     1      -0.016   1.328   0.009  0.00  0.00    +0.067 A 
ATOM     34  S   UNL     1       1.726   1.720  -0.005  0.00  0.00    -0.058 S 
ATOM     35  C   UNL     1       2.343   0.054  -0.020  0.00  0.00    +0.177 A 
ATOM     36  N   UNL     1       3.386  -0.726  -0.034  0.00  0.00    -0.228 NA
ENDBRANCH  28  29
ENDBRANCH  25  28
ENDBRANCH  24  25
ENDBRANCH   2  24
TORSDOF 9
