REMARK  Name = ZINC20904415
REMARK  11 active torsions:
REMARK  status: ('A' for Active; 'I' for Inactive)
REMARK    1  A    between atoms: C_1  and  C_2
REMARK    2  A    between atoms: C_2  and  C_3
REMARK    3  A    between atoms: C_2  and  C_4
REMARK    4  A    between atoms: C_4  and  N_5
REMARK    5  A    between atoms: C_6  and  C_31
REMARK    6  A    between atoms: C_8  and  C_18
REMARK    7  A    between atoms: N_20  and  C_21
REMARK    8  A    between atoms: C_21  and  C_22
REMARK    9  A    between atoms: C_22  and  N_23
REMARK   10  A    between atoms: N_23  and  C_24
REMARK   11  A    between atoms: N_23  and  C_25
REMARK                            x       y       z     vdW  Elec       q    Type
REMARK                         _______ _______ _______ _____ _____    ______ ____
ROOT
ATOM      1  N   UNL     1       0.445  -2.783   1.480  0.00  0.00    -0.289 N 
ATOM      2  C   UNL     1       0.908  -2.359   0.161  0.00  0.00    +0.129 C 
ATOM      3  C   UNL     1       0.930  -0.836   0.053  0.00  0.00    +0.131 C 
ATOM      4  C   UNL     1       1.666  -0.244   1.226  0.00  0.00    -0.021 A 
ATOM      5  C   UNL     1       2.405   0.910   1.083  0.00  0.00    +0.005 A 
ATOM      6  C   UNL     1       3.064   1.450   2.175  0.00  0.00    +0.000 A 
ATOM      7  C   UNL     1       2.985   0.837   3.413  0.00  0.00    +0.001 A 
ATOM      8  C   UNL     1       2.252  -0.323   3.568  0.00  0.00    +0.013 A 
ATOM      9  C   UNL     1       1.594  -0.873   2.470  0.00  0.00    +0.041 A 
ATOM     10  C   UNL     1       0.832  -2.134   2.595  0.00  0.00    +0.247 C 
ATOM     11  O   UNL     1       0.559  -2.581   3.692  0.00  0.00    -0.270 OA
ENDROOT
BRANCH   2  12
ATOM     12  C   UNL     1      -0.016  -2.916  -0.891  0.00  0.00    +0.011 A 
ATOM     13  C   UNL     1       0.286  -3.650  -1.990  0.00  0.00    +0.013 A 
ATOM     14  C   UNL     1      -0.737  -4.059  -2.825  0.00  0.00    +0.008 A 
ATOM     15  C   UNL     1      -2.012  -3.713  -2.520  0.00  0.00    +0.045 A 
ATOM     16  S   UNL     1      -1.792  -2.787  -1.010  0.00  0.00    -0.100 S 
ENDBRANCH   2  12
BRANCH   3  17
ATOM     17  C   UNL     1      -0.484  -0.316   0.036  0.00  0.00    +0.223 C 
ATOM     18  O   UNL     1      -1.308  -0.774   0.799  0.00  0.00    -0.275 OA
ATOM     19  N   UNL     1      -0.833   0.659  -0.827  0.00  0.00    -0.317 N 
ATOM     20  H   UNL     1      -0.085   1.078  -1.516  0.00  0.00    +0.149 HD
BRANCH  19  21
ATOM     21  C   UNL     1      -2.210   1.161  -0.847  0.00  0.00    +0.085 C 
BRANCH  21  22
ATOM     22  C   UNL     1      -2.338   2.254  -1.909  0.00  0.00    -0.060 C 
BRANCH  22  23
ATOM     23  N   UNL     1      -3.718   2.757  -1.930  0.00  0.00    +0.381 N 
ATOM     24  C   UNL     1      -4.651   1.718  -2.385  0.00  0.00    -0.096 C 
ATOM     25  H   UNL     1      -3.994   3.031  -0.901  0.00  0.00    -0.082 HD
BRANCH  23  26
ATOM     26  C   UNL     1      -3.827   3.963  -2.762  0.00  0.00    -0.069 C 
ATOM     27  C   UNL     1      -2.915   5.055  -2.200  0.00  0.00    -0.015 C 
ATOM     28  C   UNL     1      -3.028   6.310  -3.067  0.00  0.00    -0.002 C 
ATOM     29  C   UNL     1      -4.476   6.803  -3.064  0.00  0.00    -0.000 C 
ATOM     30  C   UNL     1      -5.388   5.711  -3.626  0.00  0.00    -0.002 C 
ATOM     31  C   UNL     1      -5.275   4.456  -2.759  0.00  0.00    -0.015 C 
ENDBRANCH  23  26
ENDBRANCH  22  23
ENDBRANCH  21  22
ENDBRANCH  19  21
ENDBRANCH   3  17
BRANCH   1  32
ATOM     32  C   UNL     1      -0.456  -3.933   1.592  0.00  0.00    +0.111 C 
BRANCH  32  34
ATOM     33  C   UNL     1       1.249  -5.260   2.848  0.00  0.00    +0.009 C 
ATOM     34  C   UNL     1       0.365  -5.225   1.599  0.00  0.00    +0.000 C 
ATOM     35  C   UNL     1      -0.579  -6.429   1.609  0.00  0.00    +0.009 C 
ENDBRANCH  32  34
ENDBRANCH   1  32
TORSDOF 8
