REMARK  Name = ZINC37198854
REMARK  6 active torsions:
REMARK  status: ('A' for Active; 'I' for Inactive)
REMARK    1  A    between atoms: C_1  and  C_2
REMARK    2  A    between atoms: C_4  and  N_9
REMARK    3  A    between atoms: N_9  and  C_10
REMARK    4  A    between atoms: C_10  and  C_12
REMARK    5  A    between atoms: C_10  and  C_13
REMARK    6  A    between atoms: C_16  and  N_19
REMARK                            x       y       z     vdW  Elec       q    Type
REMARK                         _______ _______ _______ _____ _____    ______ ____
ROOT
ATOM      1  C   UNL     1      -0.563  -4.724  -3.712  0.00  0.00    -0.027 A 
ATOM      2  C   UNL     1      -0.424  -3.991  -4.876  0.00  0.00    +0.007 A 
ATOM      3  C   UNL     1      -0.969  -4.458  -6.056  0.00  0.00    +0.023 A 
ATOM      4  C   UNL     1      -1.658  -5.663  -6.073  0.00  0.00    +0.035 A 
ATOM      5  C   UNL     1      -1.796  -6.396  -4.901  0.00  0.00    +0.023 A 
ATOM      6  C   UNL     1      -1.244  -5.928  -3.726  0.00  0.00    +0.007 A 
ENDROOT
BRANCH   4   7
ATOM      7  N   UNL     1      -2.212  -6.138  -7.267  0.00  0.00    -0.270 N 
ATOM      8  C   UNL     1      -1.598  -5.889  -8.440  0.00  0.00    +0.301 C 
ATOM      9  O   UNL     1      -0.515  -5.337  -8.455  0.00  0.00    -0.253 OA
ATOM     10  N   UNL     1      -2.185  -6.253  -9.598  0.00  0.00    -0.313 N 
ATOM     11  H   UNL     1      -3.038  -6.646  -7.250  0.00  0.00    +0.156 HD
ATOM     12  H   UNL     1      -3.049  -6.693  -9.586  0.00  0.00    +0.146 HD
ATOM     13  H   UNL     1      -1.743  -6.074 -10.443  0.00  0.00    +0.146 HD
ENDBRANCH   4   7
BRANCH   1  14
ATOM     14  C   UNL     1       0.034  -4.212  -2.426  0.00  0.00    +0.098 C 
ATOM     15  C   UNL     1       1.532  -4.518  -2.402  0.00  0.00    +0.033 C 
BRANCH  14  16
ATOM     16  N   UNL     1      -0.171  -2.764  -2.335  0.00  0.00    -0.337 N 
ATOM     17  H   UNL     1      -0.286  -2.239  -3.142  0.00  0.00    +0.147 HD
BRANCH  16  21
ATOM     18  C   UNL     1      -0.632   1.336   0.335  0.00  0.00    +0.045 C 
ATOM     19  C   UNL     1      -0.422  -0.153   0.239  0.00  0.00    -0.035 A 
ATOM     20  C   UNL     1      -0.393  -0.768  -0.998  0.00  0.00    +0.027 A 
ATOM     21  C   UNL     1      -0.200  -2.140  -1.085  0.00  0.00    +0.028 A 
ATOM     22  C   UNL     1      -0.035  -2.891   0.072  0.00  0.00    +0.024 A 
ATOM     23  C   UNL     1      -0.065  -2.271   1.306  0.00  0.00    +0.017 A 
ATOM     24  C   UNL     1      -0.252  -0.903   1.390  0.00  0.00    +0.021 A 
ATOM     25 BR   UNL     1      -0.284  -0.057   3.080  0.00  0.00    -0.050 Br
ENDBRANCH  16  21
ENDBRANCH  14  16
ENDBRANCH   1  14
TORSDOF 4
