REMARK  Name = ZINC52901403
REMARK  3 active torsions:
REMARK  status: ('A' for Active; 'I' for Inactive)
REMARK    1  A    between atoms: C_3  and  C_6
REMARK    2  A    between atoms: C_7  and  C_13
REMARK    3  A    between atoms: C_11  and  N_12
REMARK                            x       y       z     vdW  Elec       q    Type
REMARK                         _______ _______ _______ _____ _____    ______ ____
ROOT
ATOM      1  C   UNL     1       3.723   1.879  -0.058  0.00  0.00    +0.055 A 
ATOM      2  C   UNL     1       4.714   1.576  -1.026  0.00  0.00    +0.103 A 
ATOM      3  N   UNL     1       5.842   2.132  -0.643  0.00  0.00    -0.172 NA
ATOM      4  N   UNL     1       5.629   2.805   0.565  0.00  0.00    -0.263 N 
ATOM      5  H   UNL     1       6.298   3.300   1.065  0.00  0.00    +0.190 HD
ATOM      6  C   UNL     1       4.327   2.652   0.918  0.00  0.00    +0.120 A 
ENDROOT
BRANCH   2   7
ATOM      7  C   UNL     1       4.513   0.772  -2.255  0.00  0.00    +0.006 A 
ATOM      8  C   UNL     1       3.363   0.945  -3.023  0.00  0.00    +0.014 A 
ATOM      9  C   UNL     1       3.177   0.196  -4.167  0.00  0.00    +0.050 A 
ATOM     10  C   UNL     1       4.132  -0.731  -4.556  0.00  0.00    +0.166 A 
ATOM     11  C   UNL     1       5.285  -0.907  -3.793  0.00  0.00    +0.167 A 
ATOM     12  C   UNL     1       5.478  -0.154  -2.649  0.00  0.00    +0.059 A 
ATOM     13  O   UNL     1       6.056  -1.866  -4.384  0.00  0.00    -0.453 OA
ATOM     14  C   UNL     1       5.178  -2.563  -5.288  0.00  0.00    +0.466 C 
ATOM     15  O   UNL     1       4.183  -1.579  -5.625  0.00  0.00    -0.453 OA
ENDBRANCH   2   7
BRANCH   1  18
ATOM     16  C   UNL     1      -0.050   1.590  -0.222  0.00  0.00    +0.008 A 
ATOM     17  C   UNL     1       1.179   2.218  -0.220  0.00  0.00    +0.016 A 
ATOM     18  C   UNL     1       2.308   1.453  -0.089  0.00  0.00    +0.025 A 
ATOM     19  S   UNL     1       1.624  -0.191   0.034  0.00  0.00    -0.096 S 
ATOM     20  C   UNL     1      -0.103   0.241  -0.095  0.00  0.00    +0.046 A 
ENDBRANCH   1  18
BRANCH   6  21
ATOM     21  N   UNL     1       3.715   3.172   2.051  0.00  0.00    -0.343 N 
ATOM     22  H   UNL     1       2.774   3.003   2.215  0.00  0.00    +0.144 HD
ATOM     23  H   UNL     1       4.228   3.705   2.679  0.00  0.00    +0.144 HD
ENDBRANCH   6  21
TORSDOF 3
