REMARK  Name = ZINC10092698
REMARK  11 active torsions:
REMARK  status: ('A' for Active; 'I' for Inactive)
REMARK    1  A    between atoms: C_1  and  C_2
REMARK    2  A    between atoms: C_5  and  S_8
REMARK    3  A    between atoms: S_8  and  N_11
REMARK    4  A    between atoms: N_11  and  C_12
REMARK    5  A    between atoms: N_11  and  C_13
REMARK    6  A    between atoms: C_16  and  C_19
REMARK    7  A    between atoms: N_21  and  C_22
REMARK    8  A    between atoms: C_22  and  C_23
REMARK    9  A    between atoms: C_23  and  N_29
REMARK   10  A    between atoms: N_29  and  C_30
REMARK   11  A    between atoms: N_29  and  C_31
REMARK                            x       y       z     vdW  Elec       q    Type
REMARK                         _______ _______ _______ _____ _____    ______ ____
ROOT
ATOM      1  C   UNL     1       2.241  -5.265  -1.265  0.00  0.00    +0.051 A 
ATOM      2  C   UNL     1       1.444  -5.547  -2.371  0.00  0.00    +0.025 A 
ATOM      3  C   UNL     1       2.025  -5.810  -3.591  0.00  0.00    +0.015 A 
ATOM      4  C   UNL     1       3.417  -5.794  -3.718  0.00  0.00    +0.037 A 
ATOM      5  C   UNL     1       4.214  -5.511  -2.605  0.00  0.00    +0.015 A 
ATOM      6  C   UNL     1       3.627  -5.243  -1.390  0.00  0.00    +0.025 A 
ENDROOT
BRANCH   4   7
ATOM      7  C   UNL     1       4.043  -6.077  -5.024  0.00  0.00    +0.244 C 
ATOM      8  O   UNL     1       3.348  -6.323  -5.990  0.00  0.00    -0.270 OA
ATOM      9  N   UNL     1       5.385  -6.061  -5.145  0.00  0.00    -0.313 N 
ATOM     10  H   UNL     1       5.939  -5.864  -4.373  0.00  0.00    +0.149 HD
BRANCH   9  11
ATOM     11  C   UNL     1       6.007  -6.341  -6.441  0.00  0.00    +0.092 C 
BRANCH  11  12
ATOM     12  C   UNL     1       7.528  -6.261  -6.305  0.00  0.00    -0.050 C 
ATOM     13  C   UNL     1       8.178  -6.553  -7.660  0.00  0.00    -0.010 C 
ATOM     14  C   UNL     1       7.702  -5.524  -8.686  0.00  0.00    -0.001 C 
ATOM     15  C   UNL     1       8.099  -4.121  -8.223  0.00  0.00    -0.000 C 
ATOM     16  C   UNL     1       7.449  -3.828  -6.869  0.00  0.00    -0.001 C 
ATOM     17  C   UNL     1       7.925  -4.857  -5.842  0.00  0.00    -0.010 C 
BRANCH  12  18
ATOM     18  N   UNL     1       7.985  -7.249  -5.319  0.00  0.00    +0.381 N 
ATOM     19  C   UNL     1       7.604  -8.596  -5.764  0.00  0.00    -0.096 C 
ATOM     20  C   UNL     1       9.446  -7.171  -5.189  0.00  0.00    -0.096 C 
ATOM     21  H   UNL     1       7.557  -7.056  -4.426  0.00  0.00    -0.082 HD
ENDBRANCH  12  18
ENDBRANCH  11  12
ENDBRANCH   9  11
ENDBRANCH   4   7
BRANCH   1  22
ATOM     22  N   UNL     1       1.651  -4.999  -0.034  0.00  0.00    -0.206 N 
ATOM     23  C   UNL     1       1.950  -5.850   1.120  0.00  0.00    +0.157 C 
BRANCH  22  24
ATOM     24  S   UNL     1       0.610  -3.721   0.127  0.00  0.00    +0.074 S 
ATOM     25  O   UNL     1      -0.309  -4.073   1.151  0.00  0.00    -0.150 OA
ATOM     26  O   UNL     1       0.192  -3.371  -1.185  0.00  0.00    -0.150 OA
BRANCH  24  31
ATOM     27  C   UNL     1       3.818   0.943   2.216  0.00  0.00    +0.044 C 
ATOM     28  C   UNL     1       3.017  -0.222   1.694  0.00  0.00    -0.050 A 
ATOM     29  C   UNL     1       2.892  -0.420   0.332  0.00  0.00    +0.005 A 
ATOM     30  C   UNL     1       2.157  -1.488  -0.147  0.00  0.00    +0.029 A 
ATOM     31  C   UNL     1       1.548  -2.360   0.737  0.00  0.00    +0.109 A 
ATOM     32  C   UNL     1       1.675  -2.163   2.099  0.00  0.00    +0.029 A 
ATOM     33  C   UNL     1       2.413  -1.097   2.578  0.00  0.00    +0.005 A 
ENDBRANCH  24  31
ENDBRANCH  22  24
ENDBRANCH   1  22
TORSDOF 7
