REMARK  Name = ZINC15002573
REMARK  8 active torsions:
REMARK  status: ('A' for Active; 'I' for Inactive)
REMARK    1  A    between atoms: C_1  and  N_2
REMARK    2  A    between atoms: N_2  and  C_3
REMARK    3  A    between atoms: C_3  and  C_5
REMARK    4  A    between atoms: C_3  and  C_13
REMARK    5  A    between atoms: C_5  and  C_6
REMARK    6  A    between atoms: C_18  and  C_19
REMARK    7  A    between atoms: C_18  and  N_63
REMARK    8  A    between atoms: C_28  and  C_30
REMARK                            x       y       z     vdW  Elec       q    Type
REMARK                         _______ _______ _______ _____ _____    ______ ____
ROOT
ATOM      1  C   UNL     1      -3.918  -0.708   5.312  0.00  0.00    +0.083 C 
ENDROOT
BRANCH   1   2
ATOM      2  C   UNL     1      -3.265  -1.239   4.034  0.00  0.00    +0.006 C 
ATOM      3  C   UNL     1      -4.124  -0.860   2.825  0.00  0.00    -0.013 C 
ATOM      4  C   UNL     1      -3.436  -1.342   1.545  0.00  0.00    -0.078 C 
ATOM      5  C   UNL     1      -1.250  -1.110   2.565  0.00  0.00    -0.078 C 
ATOM      6  C   UNL     1      -1.873  -0.621   3.875  0.00  0.00    -0.013 C 
ATOM      7  N   UNL     1      -2.112  -0.693   1.439  0.00  0.00    +0.382 N 
ATOM      8  H   UNL     1      -2.236   0.326   1.475  0.00  0.00    -0.081 HD
BRANCH   7   9
ATOM      9  C   UNL     1      -1.475  -1.054   0.156  0.00  0.00    -0.043 C 
BRANCH   9  10
ATOM     10  C   UNL     1      -0.237  -0.213  -0.025  0.00  0.00    -0.060 A 
ATOM     11  C   UNL     1       0.983  -0.675   0.434  0.00  0.00    +0.005 A 
ATOM     12  C   UNL     1       2.122   0.089   0.266  0.00  0.00    +0.050 A 
ATOM     13  C   UNL     1       2.043   1.323  -0.358  0.00  0.00    +0.166 A 
ATOM     14  C   UNL     1       0.814   1.791  -0.815  0.00  0.00    +0.166 A 
ATOM     15  C   UNL     1      -0.324   1.020  -0.643  0.00  0.00    +0.051 A 
ATOM     16  O   UNL     1       0.998   3.017  -1.387  0.00  0.00    -0.453 OA
ATOM     17  C   UNL     1       2.412   3.114  -1.641  0.00  0.00    +0.466 C 
ATOM     18  O   UNL     1       2.998   2.256  -0.644  0.00  0.00    -0.453 OA
ENDBRANCH   9  10
ENDBRANCH   7   9
ENDBRANCH   1   2
BRANCH   1  20
ATOM     19  C   UNL     1      -5.421  -2.749   5.421  0.00  0.00    +0.132 C 
ATOM     20  N   UNL     1      -5.253  -1.294   5.458  0.00  0.00    -0.294 N 
ATOM     21  C   UNL     1      -6.325  -0.496   5.627  0.00  0.00    +0.282 C 
ATOM     22  O   UNL     1      -6.195   0.714   5.590  0.00  0.00    -0.267 OA
BRANCH  21  23
ATOM     23  C   UNL     1      -7.649  -1.084   5.856  0.00  0.00    +0.189 A 
ATOM     24  C   UNL     1      -8.790  -0.399   6.162  0.00  0.00    +0.054 A 
ATOM     25  C   UNL     1      -9.811  -1.353   6.293  0.00  0.00    +0.042 A 
ATOM     26  C   UNL     1      -9.256  -2.563   6.063  0.00  0.00    +0.196 A 
ATOM     27  O   UNL     1      -7.954  -2.397   5.795  0.00  0.00    -0.458 OA
ENDBRANCH  21  23
ENDBRANCH   1  20
BRANCH   1  28
ATOM     28  C   UNL     1      -3.059  -1.087   6.519  0.00  0.00    +0.059 C 
BRANCH  28  29
ATOM     29  C   UNL     1      -3.637  -0.462   7.763  0.00  0.00    -0.027 A 
ATOM     30  C   UNL     1      -3.364   0.859   8.065  0.00  0.00    +0.005 A 
ATOM     31  C   UNL     1      -3.898   1.433   9.203  0.00  0.00    +0.000 A 
ATOM     32  C   UNL     1      -4.697   0.684  10.046  0.00  0.00    +0.001 A 
ATOM     33  C   UNL     1      -4.967  -0.638   9.748  0.00  0.00    +0.020 A 
ATOM     34  C   UNL     1      -4.437  -1.212   8.606  0.00  0.00    +0.044 A 
ATOM     35 CL   UNL     1      -4.775  -2.873   8.232  0.00  0.00    -0.083 Cl
ENDBRANCH  28  29
ENDBRANCH   1  28
TORSDOF 7
