REMARK  Name = ZINC21219870
REMARK  11 active torsions:
REMARK  status: ('A' for Active; 'I' for Inactive)
REMARK    1  A    between atoms: C_1  and  C_2
REMARK    2  A    between atoms: C_2  and  C_3
REMARK    3  A    between atoms: C_2  and  O_4
REMARK    4  A    between atoms: O_4  and  C_5
REMARK    5  A    between atoms: C_8  and  C_11
REMARK    6  A    between atoms: C_16  and  C_26
REMARK    7  A    between atoms: C_28  and  O_35
REMARK    8  A    between atoms: C_29  and  O_34
REMARK    9  A    between atoms: C_30  and  O_32
REMARK   10  A    between atoms: O_32  and  C_33
REMARK   11  A    between atoms: O_35  and  C_36
REMARK                            x       y       z     vdW  Elec       q    Type
REMARK                         _______ _______ _______ _____ _____    ______ ____
ROOT
ATOM      1  C   UNL     1       1.131  -1.539  -0.999  0.00  0.00    +0.032 C 
ATOM      2  C   UNL     1       0.295  -2.005  -2.190  0.00  0.00    +0.059 C 
ATOM      3  C   UNL     1      -0.185  -3.429  -1.959  0.00  0.00    +0.017 C 
ATOM      4  C   UNL     1      -0.465  -3.858  -0.717  0.00  0.00    +0.036 C 
ATOM      5  C   UNL     1      -0.983  -5.228  -0.349  0.00  0.00    +0.136 C 
ATOM      6  N   UNL     1      -0.927  -6.198  -1.422  0.00  0.00    -0.331 N 
ATOM      7  C   UNL     1      -1.686  -6.037  -2.579  0.00  0.00    +0.049 A 
ATOM      8  C   UNL     1      -2.699  -6.922  -2.910  0.00  0.00    +0.025 A 
ATOM      9  C   UNL     1      -3.457  -6.696  -4.046  0.00  0.00    +0.002 A 
ATOM     10  C   UNL     1      -3.209  -5.595  -4.845  0.00  0.00    +0.002 A 
ATOM     11  C   UNL     1      -2.187  -4.717  -4.526  0.00  0.00    +0.025 A 
ATOM     12  C   UNL     1      -1.415  -4.954  -3.402  0.00  0.00    +0.052 A 
ATOM     13  N   UNL     1      -0.308  -4.174  -3.085  0.00  0.00    -0.316 N 
ATOM     14  C   UNL     1      -0.282  -2.999   0.392  0.00  0.00    +0.163 C 
ATOM     15  O   UNL     1      -0.561  -3.409   1.502  0.00  0.00    -0.292 OA
ATOM     16  C   UNL     1       0.242  -1.602   0.248  0.00  0.00    +0.088 C 
ATOM     17  H   UNL     1      -0.276  -7.080  -1.332  0.00  0.00    +0.147 HD
ATOM     18  H   UNL     1       0.505  -4.190  -3.826  0.00  0.00    +0.152 HD
ENDROOT
BRANCH   1  22
ATOM     19  C   UNL     1       2.448   2.476  -1.637  0.00  0.00    +0.121 A 
ATOM     20  C   UNL     1       3.376   1.465  -1.432  0.00  0.00    +0.046 A 
ATOM     21  C   UNL     1       2.947   0.168  -1.226  0.00  0.00    +0.007 A 
ATOM     22  C   UNL     1       1.596  -0.123  -1.224  0.00  0.00    -0.043 A 
ATOM     23  C   UNL     1       0.669   0.882  -1.434  0.00  0.00    +0.007 A 
ATOM     24  C   UNL     1       1.093   2.182  -1.635  0.00  0.00    +0.046 A 
BRANCH  19  25
ATOM     25  O   UNL     1       2.867   3.753  -1.840  0.00  0.00    -0.489 OA
BRANCH  25  27
ATOM     26  C   UNL     1       4.542   5.239  -2.751  0.00  0.00    +0.051 C 
ATOM     27  C   UNL     1       4.276   3.965  -1.946  0.00  0.00    +0.167 C 
ATOM     28  C   UNL     1       4.877   4.111  -0.546  0.00  0.00    +0.051 C 
ENDBRANCH  25  27
ENDBRANCH  19  25
ENDBRANCH   1  22
BRANCH   5  29
ATOM     29  C   UNL     1      -2.416  -5.093   0.099  0.00  0.00    -0.016 A 
ATOM     30  C   UNL     1      -3.369  -4.613  -0.779  0.00  0.00    +0.055 A 
ATOM     31  C   UNL     1      -4.690  -4.493  -0.373  0.00  0.00    +0.165 A 
ATOM     32  C   UNL     1      -5.051  -4.843   0.922  0.00  0.00    +0.201 A 
ATOM     33  C   UNL     1      -4.088  -5.319   1.804  0.00  0.00    +0.165 A 
ATOM     34  C   UNL     1      -2.771  -5.442   1.388  0.00  0.00    +0.055 A 
BRANCH  33  35
ATOM     35  O   UNL     1      -4.437  -5.663   3.072  0.00  0.00    -0.491 OA
ATOM     36  C   UNL     1      -3.395  -6.144   3.924  0.00  0.00    +0.277 C 
ENDBRANCH  33  35
BRANCH  32  37
ATOM     37  O   UNL     1      -6.345  -4.720   1.326  0.00  0.00    -0.501 OA
ATOM     38  H   UNL     1      -6.630  -4.997   2.352  0.00  0.00    +0.292 HD
ENDBRANCH  32  37
BRANCH  31  39
ATOM     39  O   UNL     1      -5.629  -4.026  -1.240  0.00  0.00    -0.491 OA
ATOM     40  C   UNL     1      -5.167  -3.570  -2.513  0.00  0.00    +0.277 C 
ENDBRANCH  31  39
ENDBRANCH   5  29
TORSDOF 7
