REMARK  Name = ZINC20694627
REMARK  8 active torsions:
REMARK  status: ('A' for Active; 'I' for Inactive)
REMARK    1  A    between atoms: C_1  and  C_2
REMARK    2  A    between atoms: C_2  and  C_3
REMARK    3  A    between atoms: C_3  and  C_4
REMARK    4  A    between atoms: N_6  and  C_7
REMARK    5  A    between atoms: C_20  and  C_23
REMARK    6  A    between atoms: C_27  and  O_30
REMARK    7  A    between atoms: C_28  and  O_29
REMARK    8  A    between atoms: O_30  and  C_31
REMARK                            x       y       z     vdW  Elec       q    Type
REMARK                         _______ _______ _______ _____ _____    ______ ____
ROOT
ATOM      1  C   UNL     1      -2.588   3.375  -0.042  0.00  0.00    +0.039 A 
ATOM      2  C   UNL     1      -3.668   4.128  -0.473  0.00  0.00    +0.025 A 
ATOM      3  C   UNL     1      -3.601   4.805  -1.676  0.00  0.00    +0.023 A 
ATOM      4  C   UNL     1      -2.456   4.731  -2.443  0.00  0.00    +0.062 A 
ATOM      5  C   UNL     1      -1.364   3.976  -2.013  0.00  0.00    +0.052 A 
ATOM      6  C   UNL     1      -1.428   3.293  -0.812  0.00  0.00    +0.003 A 
ATOM      7  C   UNL     1      -0.295   2.458  -0.293  0.00  0.00    +0.050 C 
ATOM      8  C   UNL     1      -0.620   0.985  -0.386  0.00  0.00    -0.023 C 
ATOM      9  C   UNL     1       0.441   0.303  -0.740  0.00  0.00    -0.030 C 
ATOM     10  C   UNL     1       1.627   1.227  -0.935  0.00  0.00    +0.033 C 
ATOM     11  C   UNL     1       0.972   2.619  -1.161  0.00  0.00    +0.029 C 
ATOM     12  C   UNL     1       0.558   2.709  -2.632  0.00  0.00    +0.109 C 
ATOM     13  N   UNL     1      -0.230   3.944  -2.826  0.00  0.00    -0.335 N 
ATOM     14 CL   UNL     1      -2.374   5.583  -3.953  0.00  0.00    -0.082 Cl
ATOM     15  H   UNL     1       0.105   4.702  -3.549  0.00  0.00    +0.147 HD
ENDROOT
BRANCH  12  16
ATOM     16  C   UNL     1      -0.264   1.499  -2.997  0.00  0.00    +0.018 A 
ATOM     17  C   UNL     1      -1.623   1.484  -2.745  0.00  0.00    +0.009 A 
ATOM     18  C   UNL     1      -2.380   0.379  -3.084  0.00  0.00    +0.004 A 
ATOM     19  C   UNL     1      -1.779  -0.722  -3.667  0.00  0.00    +0.049 A 
ATOM     20  C   UNL     1      -0.417  -0.715  -3.918  0.00  0.00    +0.162 A 
ATOM     21  C   UNL     1       0.344   0.400  -3.581  0.00  0.00    +0.163 A 
BRANCH  21  22
ATOM     22  O   UNL     1       1.682   0.411  -3.826  0.00  0.00    -0.503 OA
ATOM     23  H   UNL     1       2.164  -0.462  -4.290  0.00  0.00    +0.292 HD
ENDBRANCH  21  22
BRANCH  20  24
ATOM     24  O   UNL     1       0.175  -1.797  -4.491  0.00  0.00    -0.491 OA
ATOM     25  C   UNL     1      -0.668  -2.906  -4.809  0.00  0.00    +0.277 C 
ENDBRANCH  20  24
ENDBRANCH  12  16
BRANCH   1  28
ATOM     26  C   UNL     1      -3.860   2.339   1.681  0.00  0.00    +0.217 C 
ATOM     27  O   UNL     1      -4.870   2.541   1.041  0.00  0.00    -0.275 OA
ATOM     28  N   UNL     1      -2.661   2.691   1.177  0.00  0.00    -0.285 N 
ATOM     29  H   UNL     1      -1.739   2.440   1.723  0.00  0.00    +0.155 HD
BRANCH  26  30
ATOM     30  C   UNL     1      -3.946   1.695   3.041  0.00  0.00    +0.096 C 
BRANCH  30  32
ATOM     31  C   UNL     1      -5.497   0.744   4.754  0.00  0.00    +0.004 C 
ATOM     32  C   UNL     1      -5.410   1.398   3.373  0.00  0.00    +0.006 C 
ENDBRANCH  30  32
ENDBRANCH  26  30
ENDBRANCH   1  28
TORSDOF 6
