REMARK  Name = ZINC06409810
REMARK  9 active torsions:
REMARK  status: ('A' for Active; 'I' for Inactive)
REMARK    1  A    between atoms: C_1  and  C_2
REMARK    2  A    between atoms: C_7  and  C_14
REMARK    3  A    between atoms: C_14  and  C_16
REMARK    4  A    between atoms: C_14  and  N_71
REMARK    5  A    between atoms: N_20  and  C_21
REMARK    6  A    between atoms: C_26  and  C_27
REMARK    7  A    between atoms: C_26  and  N_71
REMARK    8  A    between atoms: C_34  and  C_35
REMARK    9  A    between atoms: C_34  and  N_71
REMARK                            x       y       z     vdW  Elec       q    Type
REMARK                         _______ _______ _______ _____ _____    ______ ____
ROOT
ATOM      1  C   UNL     1       4.254   2.946   1.186  0.00  0.00    +0.039 C 
ENDROOT
BRANCH   1   8
ATOM      2  C   UNL     1       4.261  -4.906  -0.218  0.00  0.00    +0.044 C 
ATOM      3  C   UNL     1       4.278  -3.481   0.273  0.00  0.00    -0.048 A 
ATOM      4  C   UNL     1       4.380  -3.224   1.633  0.00  0.00    +0.004 A 
ATOM      5  C   UNL     1       4.396  -1.940   2.099  0.00  0.00    +0.010 A 
ATOM      6  C   UNL     1       4.311  -0.875   1.197  0.00  0.00    -0.001 A 
ATOM      7  C   UNL     1       4.327   0.514   1.662  0.00  0.00    +0.017 A 
ATOM      8  C   UNL     1       4.241   1.506   0.741  0.00  0.00    +0.011 A 
ATOM      9  C   UNL     1       4.133   1.195  -0.631  0.00  0.00    +0.251 A 
ATOM     10  O   UNL     1       4.052   2.102  -1.441  0.00  0.00    -0.268 OA
ATOM     11  N   UNL     1       4.124  -0.077  -1.068  0.00  0.00    -0.322 N 
ATOM     12  H   UNL     1       4.052  -0.255  -2.018  0.00  0.00    +0.169 HD
ATOM     13  C   UNL     1       4.208  -1.131  -0.183  0.00  0.00    +0.049 A 
ATOM     14  C   UNL     1       4.193  -2.447  -0.634  0.00  0.00    +0.029 A 
ENDBRANCH   1   8
BRANCH   1  15
ATOM     15  C   UNL     1       5.521   3.607   0.710  0.00  0.00    +0.143 A 
ATOM     16  N   UNL     1       5.795   3.982  -0.516  0.00  0.00    -0.115 NA
ATOM     17  N   UNL     1       6.972   4.508  -0.518  0.00  0.00    -0.023 NA
ATOM     18  N   UNL     1       7.459   4.470   0.674  0.00  0.00    -0.044 NA
ATOM     19  N   UNL     1       6.594   3.922   1.459  0.00  0.00    -0.227 N 
BRANCH  19  20
ATOM     20  C   UNL     1       6.751   3.686   2.897  0.00  0.00    +0.111 C 
ATOM     21  C   UNL     1       7.041   5.017   3.622  0.00  0.00    +0.027 C 
ATOM     22  C   UNL     1       8.055   4.633   4.728  0.00  0.00    +0.002 C 
ATOM     23  C   UNL     1       8.947   3.581   4.023  0.00  0.00    +0.002 C 
ATOM     24  C   UNL     1       7.963   2.773   3.152  0.00  0.00    +0.027 C 
ENDBRANCH  19  20
ENDBRANCH   1  15
BRANCH   1  25
ATOM     25  N   UNL     1       3.096   3.645   0.589  0.00  0.00    +0.394 N 
ATOM     26  H   UNL     1       3.205   3.657  -0.432  0.00  0.00    -0.080 HD
BRANCH  25  27
ATOM     27  C   UNL     1       3.038   5.037   1.082  0.00  0.00    -0.041 C 
BRANCH  27  28
ATOM     28  C   UNL     1       2.163   5.841   0.155  0.00  0.00    -0.064 A 
ATOM     29  C   UNL     1       2.698   6.392  -0.995  0.00  0.00    +0.003 A 
ATOM     30  C   UNL     1       1.896   7.125  -1.848  0.00  0.00    +0.020 A 
ATOM     31  C   UNL     1       0.559   7.317  -1.546  0.00  0.00    +0.041 A 
ATOM     32  C   UNL     1       0.026   6.771  -0.393  0.00  0.00    +0.020 A 
ATOM     33  C   UNL     1       0.828   6.033   0.457  0.00  0.00    +0.003 A 
ATOM     34 CL   UNL     1      -0.448   8.243  -2.615  0.00  0.00    -0.084 Cl
ENDBRANCH  27  28
ENDBRANCH  25  27
BRANCH  25  35
ATOM     35  C   UNL     1       1.846   2.934   0.930  0.00  0.00    -0.045 C 
BRANCH  35  36
ATOM     36  C   UNL     1       1.731   2.749   2.445  0.00  0.00    +0.102 C 
ATOM     37  C   UNL     1       0.531   1.838   2.785  0.00  0.00    +0.032 C 
ATOM     38  C   UNL     1      -0.051   2.451   4.079  0.00  0.00    +0.030 C 
ATOM     39  C   UNL     1       0.867   3.660   4.367  0.00  0.00    +0.160 C 
ATOM     40  O   UNL     1       1.431   4.009   3.084  0.00  0.00    -0.378 OA
ENDBRANCH  35  36
ENDBRANCH  25  35
ENDBRANCH   1  25
TORSDOF 8
