REMARK  Name = ZINC08859965
REMARK  10 active torsions:
REMARK  status: ('A' for Active; 'I' for Inactive)
REMARK    1  A    between atoms: C_1  and  C_2
REMARK    2  A    between atoms: C_2  and  C_3
REMARK    3  A    between atoms: C_2  and  C_4
REMARK    4  A    between atoms: C_7  and  S_10
REMARK    5  A    between atoms: S_10  and  N_13
REMARK    6  A    between atoms: N_13  and  C_14
REMARK    7  A    between atoms: C_30  and  C_34
REMARK    8  A    between atoms: C_34  and  C_35
REMARK    9  A    between atoms: C_34  and  C_36
REMARK   10  A    between atoms: C_34  and  C_37
REMARK                            x       y       z     vdW  Elec       q    Type
REMARK                         _______ _______ _______ _____ _____    ______ ____
ROOT
ATOM      1  C   UNL     1       5.755   3.043  -1.484  0.00  0.00    +0.056 A 
ATOM      2  C   UNL     1       4.433   2.877  -1.132  0.00  0.00    +0.032 A 
ATOM      3  C   UNL     1       3.834   1.626  -1.162  0.00  0.00    +0.003 A 
ATOM      4  C   UNL     1       4.547   0.503  -1.530  0.00  0.00    +0.132 A 
ATOM      5  C   UNL     1       5.897   0.643  -1.912  0.00  0.00    +0.026 A 
ATOM      6  C   UNL     1       6.508   1.920  -1.889  0.00  0.00    +0.008 A 
ATOM      7  C   UNL     1       7.854   2.048  -2.267  0.00  0.00    +0.010 A 
ATOM      8  C   UNL     1       8.553   0.946  -2.655  0.00  0.00    +0.001 A 
ATOM      9  C   UNL     1       7.952  -0.310  -2.681  0.00  0.00    +0.001 A 
ATOM     10  C   UNL     1       6.650  -0.472  -2.319  0.00  0.00    +0.012 A 
ATOM     11  O   UNL     1       3.768  -0.632  -1.455  0.00  0.00    -0.487 OA
ATOM     12  C   UNL     1       2.752  -0.343  -0.509  0.00  0.00    +0.181 C 
ATOM     13  C   UNL     1       2.442   1.142  -0.865  0.00  0.00    +0.064 C 
ATOM     14  C   UNL     1       1.705   1.722   0.324  0.00  0.00    +0.016 C 
ATOM     15  C   UNL     1       0.362   0.979   0.426  0.00  0.00    -0.005 C 
ATOM     16  C   UNL     1       0.553  -0.529   0.550  0.00  0.00    +0.007 C 
ATOM     17  C   UNL     1       1.434  -1.085  -0.585  0.00  0.00    +0.045 C 
ENDROOT
BRANCH  15  18
ATOM     18  C   UNL     1      -0.397   1.488   1.654  0.00  0.00    -0.035 C 
ATOM     19  C   UNL     1       0.407   1.172   2.917  0.00  0.00    +0.011 C 
ATOM     20  C   UNL     1      -0.595   3.001   1.540  0.00  0.00    +0.011 C 
ATOM     21  C   UNL     1      -1.761   0.799   1.732  0.00  0.00    +0.011 C 
ENDBRANCH  15  18
BRANCH   1  22
ATOM     22  N   UNL     1       6.343   4.309  -1.443  0.00  0.00    -0.216 N 
ATOM     23  H   UNL     1       7.005   4.558  -2.106  0.00  0.00    +0.174 HD
BRANCH  22  24
ATOM     24  S   UNL     1       5.910   5.385  -0.261  0.00  0.00    +0.072 S 
ATOM     25  O   UNL     1       6.764   6.511  -0.403  0.00  0.00    -0.150 OA
ATOM     26  O   UNL     1       4.493   5.492  -0.309  0.00  0.00    -0.150 OA
BRANCH  24  30
ATOM     27  C   UNL     1       6.928   3.483   3.719  0.00  0.00    -0.045 A 
ATOM     28  C   UNL     1       7.864   4.263   3.066  0.00  0.00    +0.006 A 
ATOM     29  C   UNL     1       7.553   4.844   1.851  0.00  0.00    +0.029 A 
ATOM     30  C   UNL     1       6.306   4.644   1.288  0.00  0.00    +0.109 A 
ATOM     31  C   UNL     1       5.368   3.869   1.944  0.00  0.00    +0.029 A 
ATOM     32  C   UNL     1       5.681   3.284   3.157  0.00  0.00    +0.006 A 
BRANCH  27  34
ATOM     33  C   UNL     1       6.295   3.352   6.113  0.00  0.00    +0.012 C 
ATOM     34  C   UNL     1       7.267   2.850   5.044  0.00  0.00    +0.013 C 
ATOM     35  C   UNL     1       7.153   1.328   4.926  0.00  0.00    +0.012 C 
ENDBRANCH  27  34
ENDBRANCH  24  30
ENDBRANCH  22  24
ENDBRANCH   1  22
TORSDOF 5
