REMARK  Name = ZINC07441086
REMARK  7 active torsions:
REMARK  status: ('A' for Active; 'I' for Inactive)
REMARK    1  A    between atoms: C_1  and  C_2
REMARK    2  A    between atoms: C_5  and  N_8
REMARK    3  A    between atoms: C_9  and  C_11
REMARK    4  A    between atoms: C_11  and  C_13
REMARK    5  A    between atoms: C_11  and  O_19
REMARK    6  A    between atoms: O_19  and  C_20
REMARK    7  A    between atoms: C_23  and  C_26
REMARK                            x       y       z     vdW  Elec       q    Type
REMARK                         _______ _______ _______ _____ _____    ______ ____
ROOT
ATOM      1  C   UNL     1      -1.256   3.477   0.006  0.00  0.00    +0.289 C 
ENDROOT
BRANCH   1   2
ATOM      2  C   UNL     1      -1.188   4.238  -1.293  0.00  0.00    +0.002 A 
ATOM      3  C   UNL     1      -2.015   3.887  -2.344  0.00  0.00    +0.008 A 
ATOM      4  C   UNL     1      -1.955   4.588  -3.534  0.00  0.00    +0.000 A 
ATOM      5  C   UNL     1      -1.063   5.635  -3.676  0.00  0.00    +0.000 A 
ATOM      6  C   UNL     1      -0.233   5.982  -2.627  0.00  0.00    +0.000 A 
ATOM      7  C   UNL     1      -0.295   5.284  -1.435  0.00  0.00    +0.008 A 
ENDBRANCH   1   2
BRANCH   1   9
ATOM      8  N   UNL     1      -2.486   5.264   1.194  0.00  0.00    -0.282 N 
ATOM      9  C   UNL     1      -2.426   3.972   0.817  0.00  0.00    +0.263 C 
ATOM     10  O   UNL     1      -3.313   3.206   1.131  0.00  0.00    -0.271 OA
ATOM     11  H   UNL     1      -1.815   5.892   0.882  0.00  0.00    +0.155 HD
BRANCH   8  16
ATOM     12  C   UNL     1      -6.660   7.034   4.604  0.00  0.00    +0.044 C 
ATOM     13  C   UNL     1      -5.551   6.564   3.698  0.00  0.00    -0.050 A 
ATOM     14  C   UNL     1      -5.047   5.283   3.832  0.00  0.00    +0.005 A 
ATOM     15  C   UNL     1      -4.031   4.849   3.003  0.00  0.00    +0.023 A 
ATOM     16  C   UNL     1      -3.516   5.701   2.035  0.00  0.00    +0.034 A 
ATOM     17  C   UNL     1      -4.021   6.988   1.906  0.00  0.00    +0.023 A 
ATOM     18  C   UNL     1      -5.040   7.414   2.735  0.00  0.00    +0.005 A 
ENDBRANCH   8  16
ENDBRANCH   1   9
BRANCH   1  19
ATOM     19  O   UNL     1      -1.420   2.084  -0.267  0.00  0.00    -0.475 OA
BRANCH  19  20
ATOM     20  C   UNL     1      -0.293   1.367  -0.513  0.00  0.00    +0.122 A 
ATOM     21  C   UNL     1      -0.369  -0.012  -0.664  0.00  0.00    +0.046 A 
ATOM     22  C   UNL     1       0.773  -0.744  -0.908  0.00  0.00    +0.017 A 
ATOM     23  C   UNL     1       2.007  -0.098  -1.005  0.00  0.00    +0.039 A 
ATOM     24  C   UNL     1       2.079   1.288  -0.852  0.00  0.00    +0.017 A 
ATOM     25  C   UNL     1       0.932   2.013  -0.608  0.00  0.00    +0.046 A 
BRANCH  23  26
ATOM     26  C   UNL     1       3.233  -0.879  -1.267  0.00  0.00    +0.248 A 
ATOM     27  N   UNL     1       4.450  -0.401  -1.387  0.00  0.00    -0.108 NA
ATOM     28  N   UNL     1       5.266  -1.370  -1.609  0.00  0.00    -0.116 NA
ATOM     29  C   UNL     1       4.608  -2.494  -1.649  0.00  0.00    +0.332 A 
ATOM     30  O   UNL     1       3.311  -2.214  -1.435  0.00  0.00    -0.423 OA
ENDBRANCH  23  26
ENDBRANCH  19  20
ENDBRANCH   1  19
TORSDOF 6
