REMARK  Name = ZINC39266946
REMARK  8 active torsions:
REMARK  status: ('A' for Active; 'I' for Inactive)
REMARK    1  A    between atoms: C_3  and  S_28
REMARK    2  A    between atoms: C_6  and  C_7
REMARK    3  A    between atoms: C_7  and  C_8
REMARK    4  A    between atoms: C_8  and  N_9
REMARK    5  A    between atoms: C_10  and  C_12
REMARK    6  A    between atoms: N_17  and  C_19
REMARK    7  A    between atoms: C_19  and  C_20
REMARK    8  A    between atoms: S_28  and  N_31
REMARK                            x       y       z     vdW  Elec       q    Type
REMARK                         _______ _______ _______ _____ _____    ______ ____
ROOT
ATOM      1  N   UNL     1      -3.004  -1.778  -1.420  0.00  0.00    -0.315 N 
ATOM      2  C   UNL     1      -3.594  -2.117  -2.584  0.00  0.00    +0.218 C 
ATOM      3  O   UNL     1      -3.084  -1.801  -3.637  0.00  0.00    -0.275 OA
ATOM      4  H   UNL     1      -3.412  -2.031  -0.578  0.00  0.00    +0.149 HD
ENDROOT
BRANCH   2   5
ATOM      5  C   UNL     1      -4.889  -2.888  -2.575  0.00  0.00    +0.101 C 
ATOM      6  C   UNL     1      -6.025  -2.055  -1.937  0.00  0.00    +0.110 C 
ATOM      7  C   UNL     1      -7.247  -2.406  -2.756  0.00  0.00    +0.217 C 
ATOM      8  O   UNL     1      -8.393  -2.191  -2.422  0.00  0.00    -0.276 OA
ATOM      9  N   UNL     1      -6.879  -2.992  -3.909  0.00  0.00    -0.296 N 
ATOM     10  C   UNL     1      -5.418  -3.096  -4.011  0.00  0.00    +0.121 C 
BRANCH   9  11
ATOM     11  C   UNL     1      -7.815  -3.466  -4.931  0.00  0.00    +0.143 C 
BRANCH  11  12
ATOM     12  C   UNL     1      -8.089  -2.357  -5.914  0.00  0.00    -0.029 A 
ATOM     13  C   UNL     1      -9.132  -1.478  -5.689  0.00  0.00    +0.008 A 
ATOM     14  C   UNL     1      -9.386  -0.460  -6.589  0.00  0.00    +0.040 A 
ATOM     15  C   UNL     1      -8.594  -0.320  -7.716  0.00  0.00    +0.142 A 
ATOM     16  C   UNL     1      -7.549  -1.202  -7.941  0.00  0.00    +0.076 A 
ATOM     17  C   UNL     1      -7.295  -2.216  -7.036  0.00  0.00    +0.028 A 
ATOM     18 CL   UNL     1      -6.556  -1.029  -9.354  0.00  0.00    -0.081 Cl
ATOM     19  F   UNL     1      -8.841   0.674  -8.597  0.00  0.00    -0.204 F 
ENDBRANCH  11  12
ENDBRANCH   9  11
ENDBRANCH   2   5
BRANCH   1  20
ATOM     20  C   UNL     1      -1.745  -1.028  -1.429  0.00  0.00    +0.109 C 
BRANCH  20  21
ATOM     21  C   UNL     1      -1.293  -0.775   0.011  0.00  0.00    +0.054 C 
BRANCH  21  27
ATOM     22  C   UNL     1      -0.017   1.378   0.010  0.00  0.00    +0.005 A 
ATOM     23  C   UNL     1       1.171   2.086   0.002  0.00  0.00    +0.029 A 
ATOM     24  C   UNL     1       2.377   1.411  -0.013  0.00  0.00    +0.105 A 
ATOM     25  C   UNL     1       2.396   0.029  -0.020  0.00  0.00    +0.029 A 
ATOM     26  C   UNL     1       1.208  -0.679  -0.012  0.00  0.00    +0.005 A 
ATOM     27  C   UNL     1       0.002  -0.004   0.002  0.00  0.00    -0.046 A 
BRANCH  24  28
ATOM     28  S   UNL     1       3.891   2.312  -0.024  0.00  0.00    +0.056 S 
ATOM     29  O   UNL     1       4.872   1.453  -0.588  0.00  0.00    -0.153 OA
ATOM     30  O   UNL     1       3.597   3.593  -0.566  0.00  0.00    -0.153 OA
BRANCH  28  31
ATOM     31  N   UNL     1       4.327   2.556   1.555  0.00  0.00    -0.204 NA
ATOM     32  H   UNL     1       3.768   2.215   2.271  0.00  0.00    +0.144 HD
ATOM     33  H   UNL     1       5.142   3.039   1.764  0.00  0.00    +0.144 HD
ENDBRANCH  28  31
ENDBRANCH  24  28
ENDBRANCH  21  27
ENDBRANCH  20  21
ENDBRANCH   1  20
TORSDOF 8
