REMARK  Name = ZINC23611779
REMARK  7 active torsions:
REMARK  status: ('A' for Active; 'I' for Inactive)
REMARK    1  A    between atoms: C_1  and  C_2
REMARK    2  A    between atoms: C_5  and  S_9
REMARK    3  A    between atoms: S_9  and  N_12
REMARK    4  A    between atoms: N_12  and  C_13
REMARK    5  A    between atoms: C_17  and  C_19
REMARK    6  A    between atoms: N_27  and  C_28
REMARK    7  A    between atoms: C_28  and  C_29
REMARK                            x       y       z     vdW  Elec       q    Type
REMARK                         _______ _______ _______ _____ _____    ______ ____
ROOT
ATOM      1  C   UNL     1      -4.427   4.577  -2.848  0.00  0.00    +0.049 A 
ATOM      2  C   UNL     1      -3.309   3.752  -2.844  0.00  0.00    +0.024 A 
ATOM      3  C   UNL     1      -3.305   2.582  -3.579  0.00  0.00    +0.003 A 
ATOM      4  C   UNL     1      -4.407   2.231  -4.332  0.00  0.00    +0.013 A 
ATOM      5  C   UNL     1      -5.532   3.055  -4.348  0.00  0.00    +0.039 A 
ATOM      6  C   UNL     1      -5.539   4.232  -3.602  0.00  0.00    +0.037 A 
ENDROOT
BRANCH   5   7
ATOM      7  C   UNL     1      -6.717   2.680  -5.155  0.00  0.00    +0.249 C 
ATOM      8  O   UNL     1      -7.700   3.402  -5.167  0.00  0.00    -0.270 OA
ATOM      9  N   UNL     1      -6.708   1.555  -5.868  0.00  0.00    -0.268 N 
ATOM     10  C   UNL     1      -7.648   0.624  -5.660  0.00  0.00    +0.106 A 
ATOM     11  C   UNL     1      -8.099  -0.168  -6.725  0.00  0.00    +0.042 A 
ATOM     12  C   UNL     1      -9.055  -1.118  -6.495  0.00  0.00    +0.005 A 
ATOM     13  C   UNL     1      -9.572  -1.275  -5.204  0.00  0.00    +0.018 A 
ATOM     14  C   UNL     1      -9.123  -0.493  -4.192  0.00  0.00    +0.088 A 
ATOM     15  N   UNL     1      -8.171   0.447  -4.413  0.00  0.00    -0.331 N 
ATOM     16  H   UNL     1      -5.929   1.391  -6.627  0.00  0.00    +0.157 HD
BRANCH  15  17
ATOM     17  C   UNL     1      -7.701   1.280  -3.303  0.00  0.00    +0.158 C 
BRANCH  17  18
ATOM     18  C   UNL     1      -7.522   0.426  -2.075  0.00  0.00    -0.028 A 
ATOM     19  C   UNL     1      -8.585   0.221  -1.215  0.00  0.00    +0.005 A 
ATOM     20  C   UNL     1      -8.422  -0.566  -0.090  0.00  0.00    +0.000 A 
ATOM     21  C   UNL     1      -7.193  -1.141   0.179  0.00  0.00    +0.000 A 
ATOM     22  C   UNL     1      -6.129  -0.931  -0.678  0.00  0.00    +0.000 A 
ATOM     23  C   UNL     1      -6.294  -0.148  -1.805  0.00  0.00    +0.005 A 
ENDBRANCH  17  18
ENDBRANCH  15  17
ENDBRANCH   5   7
BRANCH   1  24
ATOM     24  N   UNL     1      -4.429   5.755  -2.098  0.00  0.00    -0.216 N 
ATOM     25  H   UNL     1      -4.757   6.699  -2.558  0.00  0.00    +0.174 HD
BRANCH  24  26
ATOM     26  S   UNL     1      -3.938   5.731  -0.517  0.00  0.00    +0.072 S 
ATOM     27  O   UNL     1      -4.137   7.044  -0.010  0.00  0.00    -0.150 OA
ATOM     28  O   UNL     1      -2.671   5.090  -0.495  0.00  0.00    -0.150 OA
BRANCH  26  33
ATOM     29  C   UNL     1      -7.749   2.137   2.480  0.00  0.00    +0.047 C 
ATOM     30  C   UNL     1      -6.797   3.034   1.732  0.00  0.00    -0.015 A 
ATOM     31  C   UNL     1      -7.041   4.392   1.657  0.00  0.00    +0.008 A 
ATOM     32  C   UNL     1      -6.171   5.214   0.966  0.00  0.00    +0.029 A 
ATOM     33  C   UNL     1      -5.050   4.681   0.358  0.00  0.00    +0.111 A 
ATOM     34  C   UNL     1      -4.803   3.323   0.432  0.00  0.00    +0.067 A 
ATOM     35  C   UNL     1      -5.677   2.498   1.119  0.00  0.00    +0.128 A 
ATOM     36  F   UNL     1      -5.437   1.170   1.192  0.00  0.00    -0.205 F 
ENDBRANCH  26  33
ENDBRANCH  24  26
ENDBRANCH   1  24
TORSDOF 6
