REMARK  Name = ZINC39638564
REMARK  7 active torsions:
REMARK  status: ('A' for Active; 'I' for Inactive)
REMARK    1  A    between atoms: C_1  and  C_2
REMARK    2  A    between atoms: C_2  and  O_3
REMARK    3  A    between atoms: O_3  and  C_4
REMARK    4  A    between atoms: C_9  and  C_10
REMARK    5  A    between atoms: C_10  and  N_11
REMARK    6  A    between atoms: C_12  and  C_14
REMARK    7  A    between atoms: C_25  and  C_27
REMARK                            x       y       z     vdW  Elec       q    Type
REMARK                         _______ _______ _______ _____ _____    ______ ____
ROOT
ATOM      1  C   UNL     1      -0.052   0.368   6.347  0.00  0.00    +0.100 C 
ATOM      2  C   UNL     1      -0.661  -0.866   7.051  0.00  0.00    +0.121 C 
ATOM      3  N   UNL     1       0.125  -1.012   8.298  0.00  0.00    -0.296 N 
ATOM      4  C   UNL     1       0.340   0.378   8.764  0.00  0.00    +0.115 C 
ATOM      5  C   UNL     1       0.601   1.183   7.476  0.00  0.00    -0.004 C 
ATOM      6  C   UNL     1       2.102   1.315   7.233  0.00  0.00    -0.010 C 
ATOM      7  C   UNL     1       2.719   2.177   8.337  0.00  0.00    -0.082 C 
ATOM      8  N   UNL     1       2.086   3.501   8.339  0.00  0.00    +0.379 N 
ATOM      9  C   UNL     1       0.660   3.374   8.665  0.00  0.00    -0.082 C 
ATOM     10  C   UNL     1      -0.044   2.562   7.574  0.00  0.00    -0.010 C 
ATOM     11  C   UNL     1       0.550  -2.153   8.877  0.00  0.00    +0.247 C 
ATOM     12  O   UNL     1       1.114  -2.114   9.953  0.00  0.00    -0.270 OA
ATOM     13  H   UNL     1       2.535   4.087   9.026  0.00  0.00    -0.086 HD
ATOM     14  H   UNL     1       2.185   3.921   7.426  0.00  0.00    -0.086 HD
ENDROOT
BRANCH  11  15
ATOM     15  C   UNL     1       0.330  -3.449   8.205  0.00  0.00    +0.045 A 
ATOM     16  C   UNL     1      -0.944  -3.789   7.733  0.00  0.00    +0.014 A 
ATOM     17  C   UNL     1      -1.152  -4.998   7.105  0.00  0.00    +0.001 A 
ATOM     18  C   UNL     1      -0.105  -5.890   6.933  0.00  0.00    +0.012 A 
ATOM     19  C   UNL     1       1.167  -5.572   7.394  0.00  0.00    +0.031 A 
ATOM     20  C   UNL     1       1.396  -4.342   8.031  0.00  0.00    +0.006 A 
ATOM     21  C   UNL     1       2.828  -4.260   8.411  0.00  0.00    -0.006 A 
ATOM     22  C   UNL     1       3.561  -3.273   9.057  0.00  0.00    +0.009 A 
ATOM     23  C   UNL     1       4.915  -3.456   9.291  0.00  0.00    +0.001 A 
ATOM     24  C   UNL     1       5.545  -4.616   8.885  0.00  0.00    +0.001 A 
ATOM     25  C   UNL     1       4.828  -5.610   8.239  0.00  0.00    +0.012 A 
ATOM     26  C   UNL     1       3.470  -5.440   7.998  0.00  0.00    +0.030 A 
ATOM     27  C   UNL     1       2.454  -6.308   7.356  0.00  0.00    +0.194 C 
ATOM     28  O   UNL     1       2.642  -7.407   6.877  0.00  0.00    -0.287 OA
ENDBRANCH  11  15
BRANCH   1  30
ATOM     29  N   UNL     1       1.208   0.686   4.243  0.00  0.00    -0.311 N 
ATOM     30  C   UNL     1       0.986  -0.061   5.342  0.00  0.00    +0.218 C 
ATOM     31  O   UNL     1       1.620  -1.079   5.522  0.00  0.00    -0.275 OA
ATOM     32  H   UNL     1       0.701   1.500   4.099  0.00  0.00    +0.149 HD
BRANCH  29  33
ATOM     33  C   UNL     1       2.217   0.269   3.265  0.00  0.00    +0.143 C 
BRANCH  33  39
ATOM     34  C   UNL     1       2.966   2.458   2.299  0.00  0.00    +0.125 A 
ATOM     35  C   UNL     1       3.016   3.375   1.258  0.00  0.00    +0.046 A 
ATOM     36  C   UNL     1       2.369   3.104   0.069  0.00  0.00    +0.004 A 
ATOM     37  C   UNL     1       1.671   1.920  -0.086  0.00  0.00    +0.001 A 
ATOM     38  C   UNL     1       1.619   1.006   0.950  0.00  0.00    +0.009 A 
ATOM     39  C   UNL     1       2.269   1.270   2.139  0.00  0.00    +0.011 A 
BRANCH  34  40
ATOM     40  O   UNL     1       3.602   2.723   3.470  0.00  0.00    -0.492 OA
BRANCH  40  42
ATOM     41  C   UNL     1       4.948   4.085   4.944  0.00  0.00    +0.048 C 
ATOM     42  C   UNL     1       4.300   3.966   3.563  0.00  0.00    +0.225 C 
ENDBRANCH  40  42
ENDBRANCH  34  40
ENDBRANCH  33  39
ENDBRANCH  29  33
ENDBRANCH   1  30
TORSDOF 6
