REMARK  Name = ZINC39944799
REMARK  16 active torsions:
REMARK  status: ('A' for Active; 'I' for Inactive)
REMARK    1  A    between atoms: C_1  and  C_2
REMARK    2  A    between atoms: C_4  and  C_12
REMARK    3  A    between atoms: C_12  and  C_14
REMARK    4  A    between atoms: C_14  and  C_16
REMARK    5  A    between atoms: C_14  and  O_17
REMARK    6  A    between atoms: O_17  and  C_18
REMARK    7  A    between atoms: C_18  and  C_20
REMARK    8  A    between atoms: C_20  and  C_22
REMARK    9  A    between atoms: C_20  and  N_25
REMARK   10  A    between atoms: C_22  and  C_23
REMARK   11  A    between atoms: C_22  and  C_24
REMARK   12  A    between atoms: C_26  and  C_28
REMARK   13  A    between atoms: C_31  and  C_34
REMARK   14  A    between atoms: C_34  and  C_35
REMARK   15  A    between atoms: C_34  and  C_36
REMARK   16  A    between atoms: C_34  and  C_37
REMARK                            x       y       z     vdW  Elec       q    Type
REMARK                         _______ _______ _______ _____ _____    ______ ____
ROOT
ATOM      1  C   UNL     1      -5.161  -2.220  -2.268  0.00  0.00    +0.329 C 
ATOM      2  O   UNL     1      -5.329  -3.026  -1.383  0.00  0.00    -0.249 OA
ENDROOT
BRANCH   1   3
ATOM      3  O   UNL     1      -4.366  -1.158  -2.065  0.00  0.00    -0.452 OA
BRANCH   3   4
ATOM      4  C   UNL     1      -3.750  -1.043  -0.781  0.00  0.00    +0.244 C 
ATOM      5  C   UNL     1      -4.663  -0.245   0.153  0.00  0.00    +0.061 C 
BRANCH   4   6
ATOM      6  C   UNL     1      -2.428  -0.333  -0.919  0.00  0.00    +0.202 C 
ATOM      7  O   UNL     1      -2.204   0.348  -1.899  0.00  0.00    -0.288 OA
BRANCH   6  10
ATOM      8  C   UNL     1      -0.141   1.664   0.033  0.00  0.00    +0.035 C 
ATOM      9  C   UNL     1      -0.060   0.137   0.098  0.00  0.00    +0.111 C 
ATOM     10  C   UNL     1      -1.451  -0.458   0.091  0.00  0.00    +0.030 C 
ATOM     11  C   UNL     1      -1.564  -1.152   1.283  0.00  0.00    +0.007 A 
ATOM     12  C   UNL     1      -2.608  -1.914   1.858  0.00  0.00    +0.010 A 
ATOM     13  C   UNL     1      -2.442  -2.495   3.067  0.00  0.00    +0.001 A 
ATOM     14  C   UNL     1      -1.251  -2.379   3.801  0.00  0.00    +0.002 A 
ATOM     15  C   UNL     1      -0.193  -1.676   3.342  0.00  0.00    +0.026 A 
ATOM     16  C   UNL     1      -0.291  -1.010   2.032  0.00  0.00    +0.043 A 
ATOM     17  N   UNL     1       0.556  -0.282   1.361  0.00  0.00    -0.377 N 
ATOM     18  H   UNL     1       1.453  -0.053   1.650  0.00  0.00    +0.160 HD
ENDBRANCH   6  10
ENDBRANCH   4   6
ENDBRANCH   3   4
ENDBRANCH   1   3
BRANCH   1  19
ATOM     19  C   UNL     1      -5.844  -2.407  -3.598  0.00  0.00    +0.185 C 
BRANCH  19  20
ATOM     20  N   UNL     1      -6.649  -3.631  -3.565  0.00  0.00    -0.298 N 
ATOM     21  C   UNL     1      -6.935  -4.280  -4.711  0.00  0.00    +0.245 C 
ATOM     22  O   UNL     1      -6.526  -3.850  -5.772  0.00  0.00    -0.270 OA
ATOM     23  H   UNL     1      -6.975  -3.975  -2.719  0.00  0.00    +0.150 HD
BRANCH  21  24
ATOM     24  C   UNL     1      -7.747  -5.515  -4.678  0.00  0.00    +0.037 A 
ATOM     25  C   UNL     1      -8.223  -6.009  -3.463  0.00  0.00    +0.013 A 
ATOM     26  C   UNL     1      -8.980  -7.162  -3.439  0.00  0.00    +0.005 A 
ATOM     27  C   UNL     1      -9.268  -7.829  -4.617  0.00  0.00    -0.042 A 
ATOM     28  C   UNL     1      -8.798  -7.345  -5.825  0.00  0.00    +0.005 A 
ATOM     29  C   UNL     1      -8.045  -6.190  -5.863  0.00  0.00    +0.013 A 
BRANCH  27  30
ATOM     30  C   UNL     1     -10.095  -9.088  -4.584  0.00  0.00    -0.013 C 
ATOM     31  C   UNL     1     -11.470  -8.779  -3.987  0.00  0.00    +0.015 C 
ATOM     32  C   UNL     1     -10.266  -9.624  -6.006  0.00  0.00    +0.015 C 
ATOM     33  C   UNL     1      -9.390 -10.139  -3.724  0.00  0.00    +0.015 C 
ENDBRANCH  27  30
ENDBRANCH  21  24
ENDBRANCH  19  20
BRANCH  19  34
ATOM     34  C   UNL     1      -6.752  -1.208  -3.878  0.00  0.00    +0.014 C 
ATOM     35  C   UNL     1      -5.912   0.070  -3.912  0.00  0.00    +0.009 C 
ATOM     36  C   UNL     1      -7.446  -1.398  -5.228  0.00  0.00    +0.009 C 
ENDBRANCH  19  34
ENDBRANCH   1  19
TORSDOF 9
