REMARK  Name = ZINC12472732
REMARK  10 active torsions:
REMARK  status: ('A' for Active; 'I' for Inactive)
REMARK    1  A    between atoms: C_1  and  C_2
REMARK    2  A    between atoms: C_2  and  C_4
REMARK    3  A    between atoms: C_2  and  N_14
REMARK    4  A    between atoms: N_6  and  C_7
REMARK    5  A    between atoms: C_7  and  C_8
REMARK    6  A    between atoms: N_14  and  C_15
REMARK    7  A    between atoms: C_15  and  C_16
REMARK    8  A    between atoms: C_22  and  C_24
REMARK    9  A    between atoms: C_25  and  N_32
REMARK   10  A    between atoms: C_26  and  C_29
REMARK                            x       y       z     vdW  Elec       q    Type
REMARK                         _______ _______ _______ _____ _____    ______ ____
ROOT
ATOM      1  N   UNL     1       4.337  -0.657  -1.699  0.00  0.00    -0.281 N 
ATOM      2  C   UNL     1       5.016   0.157  -2.532  0.00  0.00    +0.257 C 
ATOM      3  O   UNL     1       5.151  -0.146  -3.703  0.00  0.00    -0.269 OA
ENDROOT
BRANCH   2   4
ATOM      4  C   UNL     1       5.591   1.405  -2.027  0.00  0.00    +0.115 A 
ATOM      5  C   UNL     1       6.312   2.387  -2.710  0.00  0.00    +0.076 A 
ATOM      6  C   UNL     1       6.694   3.442  -1.882  0.00  0.00    +0.155 A 
ATOM      7  N   UNL     1       6.368   3.412  -0.608  0.00  0.00    -0.203 NA
ATOM      8  S   UNL     1       5.565   2.075  -0.377  0.00  0.00    +0.019 S 
BRANCH   6   9
ATOM      9  C   UNL     1       7.460   4.578  -2.427  0.00  0.00    +0.262 C 
ATOM     10  O   UNL     1       7.759   4.600  -3.605  0.00  0.00    -0.269 OA
ATOM     11  N   UNL     1       7.830   5.591  -1.619  0.00  0.00    -0.324 N 
ATOM     12  H   UNL     1       7.592   5.574  -0.679  0.00  0.00    +0.145 HD
ATOM     13  H   UNL     1       8.334   6.338  -1.978  0.00  0.00    +0.145 HD
ENDBRANCH   6   9
BRANCH   5  14
ATOM     14  N   UNL     1       6.614   2.321  -4.064  0.00  0.00    -0.355 N 
ATOM     15  H   UNL     1       6.319   1.561  -4.590  0.00  0.00    +0.142 HD
ATOM     16  H   UNL     1       7.119   3.035  -4.483  0.00  0.00    +0.142 HD
ENDBRANCH   5  14
ENDBRANCH   2   4
BRANCH   1  18
ATOM     17  C   UNL     1       4.312  -3.072  -1.311  0.00  0.00    +0.038 C 
ATOM     18  C   UNL     1       3.803  -1.929  -2.192  0.00  0.00    +0.159 C 
BRANCH  18  19
ATOM     19  C   UNL     1       2.297  -1.892  -2.148  0.00  0.00    +0.234 C 
ATOM     20  O   UNL     1       1.729  -0.959  -1.622  0.00  0.00    -0.274 OA
ATOM     21  N   UNL     1       1.582  -2.897  -2.692  0.00  0.00    -0.310 N 
ATOM     22  H   UNL     1       2.037  -3.643  -3.112  0.00  0.00    +0.149 HD
BRANCH  21  23
ATOM     23  C   UNL     1       0.118  -2.861  -2.648  0.00  0.00    +0.139 C 
BRANCH  23  24
ATOM     24  C   UNL     1      -0.434  -4.092  -3.320  0.00  0.00    -0.030 A 
ATOM     25  C   UNL     1      -0.710  -4.075  -4.674  0.00  0.00    +0.005 A 
ATOM     26  C   UNL     1      -1.212  -5.206  -5.291  0.00  0.00    +0.000 A 
ATOM     27  C   UNL     1      -1.448  -6.350  -4.552  0.00  0.00    +0.000 A 
ATOM     28  C   UNL     1      -1.178  -6.364  -3.196  0.00  0.00    +0.000 A 
ATOM     29  C   UNL     1      -0.671  -5.236  -2.580  0.00  0.00    +0.005 A 
ENDBRANCH  23  24
ENDBRANCH  21  23
ENDBRANCH  18  19
ENDBRANCH   1  18
BRANCH   1  30
ATOM     30  C   UNL     1       4.134  -0.270  -0.301  0.00  0.00    +0.144 C 
BRANCH  30  31
ATOM     31  C   UNL     1       5.295  -0.755   0.529  0.00  0.00    -0.030 A 
ATOM     32  C   UNL     1       6.587  -0.618   0.057  0.00  0.00    +0.005 A 
ATOM     33  C   UNL     1       7.651  -1.062   0.818  0.00  0.00    +0.000 A 
ATOM     34  C   UNL     1       7.424  -1.644   2.051  0.00  0.00    +0.000 A 
ATOM     35  C   UNL     1       6.132  -1.781   2.523  0.00  0.00    +0.000 A 
ATOM     36  C   UNL     1       5.067  -1.336   1.762  0.00  0.00    +0.005 A 
ENDBRANCH  30  31
ENDBRANCH   1  30
TORSDOF 9
