REMARK  Name = ZINC32734391
REMARK  12 active torsions:
REMARK  status: ('A' for Active; 'I' for Inactive)
REMARK    1  A    between atoms: C_1  and  C_2
REMARK    2  A    between atoms: C_2  and  C_3
REMARK    3  A    between atoms: C_6  and  C_9
REMARK    4  A    between atoms: C_9  and  C_11
REMARK    5  A    between atoms: C_9  and  N_31
REMARK    6  A    between atoms: C_11  and  N_12
REMARK    7  A    between atoms: C_13  and  C_15
REMARK    8  A    between atoms: N_20  and  S_22
REMARK    9  A    between atoms: S_22  and  C_25
REMARK   10  A    between atoms: C_28  and  C_30
REMARK   11  A    between atoms: N_31  and  C_32
REMARK   12  A    between atoms: N_31  and  C_33
REMARK                            x       y       z     vdW  Elec       q    Type
REMARK                         _______ _______ _______ _____ _____    ______ ____
ROOT
ATOM      1  N   UNL     1       4.940   0.376   0.959  0.00  0.00    -0.316 N 
ATOM      2  C   UNL     1       5.919   0.263   1.878  0.00  0.00    +0.217 C 
ATOM      3  O   UNL     1       5.734   0.649   3.012  0.00  0.00    -0.275 OA
ATOM      4  H   UNL     1       5.108   0.025  -0.070  0.00  0.00    +0.149 HD
ENDROOT
BRANCH   2   5
ATOM      5  C   UNL     1       7.245  -0.344   1.495  0.00  0.00    +0.091 C 
ATOM      6  C   UNL     1       7.882   0.484   0.377  0.00  0.00    +0.015 C 
ATOM      7  C   UNL     1       9.212  -0.150  -0.035  0.00  0.00    +0.018 C 
ATOM      8  C   UNL     1      10.164  -0.154   1.165  0.00  0.00    +0.109 C 
ATOM      9  N   UNL     1       9.501  -0.822   2.293  0.00  0.00    -0.175 NA
ATOM     10  C   UNL     1       8.175  -0.350   2.713  0.00  0.00    +0.122 C 
BRANCH   9  11
ATOM     11  S   UNL     1      10.234  -2.084   3.075  0.00  0.00    +0.067 S 
ATOM     12  O   UNL     1       9.197  -2.845   3.680  0.00  0.00    -0.152 OA
ATOM     13  O   UNL     1      11.158  -2.651   2.156  0.00  0.00    -0.152 OA
BRANCH  11  14
ATOM     14  C   UNL     1      11.188  -1.399   4.389  0.00  0.00    +0.143 A 
ATOM     15  C   UNL     1      10.819  -1.143   5.668  0.00  0.00    +0.036 A 
ATOM     16  C   UNL     1      11.747  -0.600   6.537  0.00  0.00    +0.013 A 
ATOM     17  C   UNL     1      12.994  -0.328   6.081  0.00  0.00    -0.011 A 
ATOM     18  S   UNL     1      12.888  -0.853   4.378  0.00  0.00    -0.074 S 
ATOM     19  C   UNL     1      14.167   0.263   6.821  0.00  0.00    +0.051 C 
ENDBRANCH  11  14
ENDBRANCH   9  11
ENDBRANCH   2   5
BRANCH   1  20
ATOM     20  C   UNL     1       3.651   0.965   1.331  0.00  0.00    +0.093 C 
BRANCH  20  21
ATOM     21  C   UNL     1       2.725   0.975   0.113  0.00  0.00    -0.021 C 
BRANCH  21  25
ATOM     22  C   UNL     1      -0.902   3.005   1.101  0.00  0.00    -0.048 A 
ATOM     23  C   UNL     1       0.318   3.587   1.393  0.00  0.00    +0.004 A 
ATOM     24  C   UNL     1       1.491   2.933   1.068  0.00  0.00    +0.002 A 
ATOM     25  C   UNL     1       1.445   1.692   0.461  0.00  0.00    -0.059 A 
ATOM     26  C   UNL     1       0.226   1.108   0.173  0.00  0.00    +0.002 A 
ATOM     27  C   UNL     1      -0.948   1.764   0.493  0.00  0.00    +0.004 A 
BRANCH  22  29
ATOM     28  C   UNL     1      -2.616   3.329   2.864  0.00  0.00    +0.009 C 
ATOM     29  C   UNL     1      -2.181   3.721   1.450  0.00  0.00    +0.032 C 
ENDBRANCH  22  29
ENDBRANCH  21  25
BRANCH  21  30
ATOM     30  N   UNL     1       3.386   1.668  -1.000  0.00  0.00    +0.382 N 
ATOM     31  C   UNL     1       2.600   1.551  -2.235  0.00  0.00    -0.096 C 
ATOM     32  C   UNL     1       3.639   3.077  -0.668  0.00  0.00    -0.096 C 
ATOM     33  H   UNL     1       4.358   1.182  -1.171  0.00  0.00    -0.082 HD
ENDBRANCH  21  30
ENDBRANCH  20  21
ENDBRANCH   1  20
TORSDOF 8
