REMARK  Name = ZINC15680636
REMARK  4 active torsions:
REMARK  status: ('A' for Active; 'I' for Inactive)
REMARK    1  A    between atoms: C_6  and  C_7
REMARK    2  A    between atoms: C_9  and  C_13
REMARK    3  A    between atoms: N_18  and  S_21
REMARK    4  A    between atoms: S_21  and  C_24
REMARK                            x       y       z     vdW  Elec       q    Type
REMARK                         _______ _______ _______ _____ _____    ______ ____
ROOT
ATOM      1  C   UNL     1       4.431  -0.590  -5.616  0.00  0.00    +0.264 C 
ATOM      2  O   UNL     1       4.393   0.437  -6.266  0.00  0.00    -0.268 OA
ATOM      3  N   UNL     1       4.561  -0.534  -4.276  0.00  0.00    -0.294 N 
ATOM      4  C   UNL     1       4.662   0.760  -3.587  0.00  0.00    +0.125 C 
ATOM      5  C   UNL     1       5.942   0.768  -2.743  0.00  0.00    +0.128 C 
ATOM      6  N   UNL     1       5.986  -0.465  -1.944  0.00  0.00    -0.173 NA
ATOM      7  C   UNL     1       5.891  -1.759  -2.634  0.00  0.00    +0.128 C 
ATOM      8  C   UNL     1       4.604  -1.767  -3.477  0.00  0.00    +0.125 C 
ENDROOT
BRANCH   1  11
ATOM      9  C   UNL     1       4.453  -3.554  -7.756  0.00  0.00    +0.093 A 
ATOM     10  C   UNL     1       4.755  -2.192  -7.575  0.00  0.00    +0.062 A 
ATOM     11  C   UNL     1       4.336  -1.893  -6.293  0.00  0.00    +0.121 A 
ATOM     12  N   UNL     1       3.811  -3.046  -5.779  0.00  0.00    -0.272 N 
ATOM     13  H   UNL     1       3.421  -3.141  -4.863  0.00  0.00    +0.189 HD
ATOM     14  N   UNL     1       3.892  -3.988  -6.647  0.00  0.00    -0.173 NA
BRANCH   9  20
ATOM     15  C   UNL     1       5.313  -3.762 -10.088  0.00  0.00    +0.013 A 
ATOM     16  C   UNL     1       5.559  -4.512 -11.220  0.00  0.00    +0.039 A 
ATOM     17  C   UNL     1       5.201  -5.850 -11.259  0.00  0.00    +0.123 A 
ATOM     18  C   UNL     1       4.600  -6.442 -10.160  0.00  0.00    +0.039 A 
ATOM     19  C   UNL     1       4.356  -5.701  -9.022  0.00  0.00    +0.013 A 
ATOM     20  C   UNL     1       4.714  -4.356  -8.979  0.00  0.00    +0.002 A 
ATOM     21  F   UNL     1       5.438  -6.579 -12.371  0.00  0.00    -0.205 F 
ENDBRANCH   9  20
ENDBRANCH   1  11
BRANCH   6  22
ATOM     22  S   UNL     1       6.146  -0.397  -0.297  0.00  0.00    +0.067 S 
ATOM     23  O   UNL     1       6.762   0.849  -0.001  0.00  0.00    -0.152 OA
ATOM     24  O   UNL     1       6.705  -1.639   0.108  0.00  0.00    -0.152 OA
BRANCH  22  25
ATOM     25  C   UNL     1       4.522  -0.330   0.382  0.00  0.00    +0.144 A 
ATOM     26  C   UNL     1       3.711  -1.349   0.757  0.00  0.00    +0.037 A 
ATOM     27  C   UNL     1       2.461  -1.057   1.270  0.00  0.00    +0.025 A 
ATOM     28  C   UNL     1       2.084   0.241   1.384  0.00  0.00    +0.057 A 
ATOM     29  S   UNL     1       3.517   1.098   0.754  0.00  0.00    -0.062 S 
ATOM     30 BR   UNL     1       0.458   0.956   2.033  0.00  0.00    -0.043 Br
ENDBRANCH  22  25
ENDBRANCH   6  22
TORSDOF 4
