REMARK  Name = ZINC23353512
REMARK  5 active torsions:
REMARK  status: ('A' for Active; 'I' for Inactive)
REMARK    1  A    between atoms: C_1  and  C_2
REMARK    2  A    between atoms: C_2  and  N_3
REMARK    3  A    between atoms: C_6  and  C_8
REMARK    4  A    between atoms: C_17  and  N_21
REMARK    5  A    between atoms: N_24  and  C_27
REMARK                            x       y       z     vdW  Elec       q    Type
REMARK                         _______ _______ _______ _____ _____    ______ ____
ROOT
ATOM      1  N   UNL     1       0.689  -0.463  -1.209  0.00  0.00    -0.268 N 
ATOM      2  C   UNL     1       0.095  -0.705  -2.389  0.00  0.00    +0.043 A 
ATOM      3  C   UNL     1       1.059  -1.120  -3.247  0.00  0.00    +0.007 A 
ATOM      4  C   UNL     1       2.257  -1.115  -2.512  0.00  0.00    +0.151 A 
ATOM      5  N   UNL     1       1.952  -0.701  -1.294  0.00  0.00    -0.166 NA
ATOM      6  C   UNL     1       0.822  -1.493  -4.684  0.00  0.00    +0.058 C 
ATOM      7  C   UNL     1      -0.550  -0.946  -5.103  0.00  0.00    +0.061 C 
ATOM      8  C   UNL     1      -1.599  -1.345  -4.062  0.00  0.00    +0.025 C 
ATOM      9  C   UNL     1      -1.359  -0.567  -2.763  0.00  0.00    +0.057 C 
ENDROOT
BRANCH   4  10
ATOM     10  C   UNL     1       3.597  -1.492  -3.007  0.00  0.00    +0.267 C 
ATOM     11  O   UNL     1       3.725  -1.950  -4.125  0.00  0.00    -0.268 OA
ATOM     12  N   UNL     1       4.677  -1.327  -2.218  0.00  0.00    -0.295 N 
ATOM     13  C   UNL     1       4.501  -0.892  -0.832  0.00  0.00    +0.119 C 
ATOM     14  C   UNL     1       4.936  -2.016   0.116  0.00  0.00    +0.088 C 
ATOM     15  S   UNL     1       6.662  -2.452  -0.255  0.00  0.00    -0.158 S 
ATOM     16  C   UNL     1       6.629  -2.793  -2.040  0.00  0.00    +0.088 C 
ATOM     17  C   UNL     1       6.012  -1.592  -2.756  0.00  0.00    +0.119 C 
ENDBRANCH   4  10
BRANCH   7  18
ATOM     18  N   UNL     1      -0.920  -1.504  -6.410  0.00  0.00    -0.303 NA
ATOM     19  C   UNL     1       0.110  -1.214  -7.418  0.00  0.00    +0.066 C 
ATOM     20  C   UNL     1      -0.285  -1.861  -8.747  0.00  0.00    -0.063 C 
ATOM     21  N   UNL     1      -1.583  -1.332  -9.184  0.00  0.00    +0.384 N 
ATOM     22  C   UNL     1      -2.607  -1.650  -8.179  0.00  0.00    -0.063 C 
ATOM     23  C   UNL     1      -2.231  -1.001  -6.845  0.00  0.00    +0.066 C 
ATOM     24  H   UNL     1      -1.519  -0.331  -9.292  0.00  0.00    -0.081 HD
BRANCH  21  25
ATOM     25  C   UNL     1      -1.953  -1.940 -10.469  0.00  0.00    -0.062 C 
ATOM     26  C   UNL     1      -0.888  -1.607 -11.516  0.00  0.00    -0.024 C 
ATOM     27  C   UNL     1      -1.273  -2.240 -12.854  0.00  0.00    +0.005 C 
ATOM     28  C   UNL     1      -2.626  -1.688 -13.309  0.00  0.00    -0.010 C 
ATOM     29  C   UNL     1      -2.529  -0.170 -13.472  0.00  0.00    +0.007 C 
ATOM     30  C   UNL     1      -2.144   0.463 -12.134  0.00  0.00    -0.010 C 
ATOM     31  C   UNL     1      -0.791  -0.088 -11.679  0.00  0.00    +0.005 C 
ATOM     32  C   UNL     1      -3.208   0.130 -11.087  0.00  0.00    +0.005 C 
ATOM     33  C   UNL     1      -3.306  -1.388 -10.924  0.00  0.00    -0.024 C 
ATOM     34  C   UNL     1      -3.691  -2.022 -12.262  0.00  0.00    +0.005 C 
ENDBRANCH  21  25
ENDBRANCH   7  18
BRANCH   1  36
ATOM     35  C   UNL     1      -0.006   1.538   0.013  0.00  0.00    +0.029 C 
ATOM     36  C   UNL     1       0.002   0.008  -0.004  0.00  0.00    +0.140 C 
ENDBRANCH   1  36
TORSDOF 4
