REMARK  Name = ZINC34976555
REMARK  6 active torsions:
REMARK  status: ('A' for Active; 'I' for Inactive)
REMARK    1  A    between atoms: C_5  and  N_7
REMARK    2  A    between atoms: N_10  and  C_11
REMARK    3  A    between atoms: C_11  and  C_12
REMARK    4  A    between atoms: C_12  and  N_13
REMARK    5  A    between atoms: N_13  and  C_14
REMARK    6  A    between atoms: N_23  and  C_24
REMARK                            x       y       z     vdW  Elec       q    Type
REMARK                         _______ _______ _______ _____ _____    ______ ____
ROOT
ATOM      1  N   UNL     1      -2.239  -6.894   0.549  0.00  0.00    -0.254 N 
ATOM      2  C   UNL     1      -2.688  -7.162   1.791  0.00  0.00    +0.311 C 
ATOM      3  O   UNL     1      -3.841  -7.509   1.960  0.00  0.00    -0.252 OA
ATOM      4  N   UNL     1      -1.859  -7.044   2.847  0.00  0.00    -0.267 N 
ATOM      5  H   UNL     1      -0.959  -6.703   2.722  0.00  0.00    +0.156 HD
ENDROOT
BRANCH   1   6
ATOM      6  C   UNL     1      -3.069  -7.112  -0.558  0.00  0.00    +0.038 A 
ATOM      7  C   UNL     1      -4.212  -6.344  -0.731  0.00  0.00    +0.026 A 
ATOM      8  C   UNL     1      -5.030  -6.560  -1.823  0.00  0.00    +0.040 A 
ATOM      9  C   UNL     1      -4.710  -7.542  -2.745  0.00  0.00    +0.124 A 
ATOM     10  C   UNL     1      -3.570  -8.310  -2.574  0.00  0.00    +0.040 A 
ATOM     11  C   UNL     1      -2.747  -8.093  -1.486  0.00  0.00    +0.026 A 
ATOM     12  F   UNL     1      -5.510  -7.752  -3.813  0.00  0.00    -0.205 F 
ENDBRANCH   1   6
BRANCH   4  13
ATOM     13  C   UNL     1      -2.295  -7.415   4.125  0.00  0.00    +0.070 A 
ATOM     14  C   UNL     1      -3.401  -8.242   4.270  0.00  0.00    +0.026 A 
ATOM     15  C   UNL     1      -3.829  -8.606   5.532  0.00  0.00    +0.002 A 
ATOM     16  C   UNL     1      -3.159  -8.148   6.651  0.00  0.00    +0.003 A 
ATOM     17  C   UNL     1      -2.058  -7.323   6.513  0.00  0.00    +0.040 A 
ATOM     18  C   UNL     1      -1.619  -6.960   5.252  0.00  0.00    +0.145 A 
ATOM     19  F   UNL     1      -0.540  -6.160   5.116  0.00  0.00    -0.204 F 
ENDBRANCH   4  13
BRANCH   1  20
ATOM     20  C   UNL     1      -0.882  -6.376   0.356  0.00  0.00    +0.134 C 
BRANCH  20  21
ATOM     21  C   UNL     1      -0.909  -4.847   0.398  0.00  0.00    +0.125 C 
BRANCH  21  25
ATOM     22  N   UNL     1       1.915  -2.522   0.028  0.00  0.00    -0.267 N 
ATOM     23  C   UNL     1       0.667  -2.999   0.205  0.00  0.00    +0.304 C 
ATOM     24  O   UNL     1      -0.261  -2.229   0.365  0.00  0.00    -0.253 OA
ATOM     25  N   UNL     1       0.447  -4.329   0.205  0.00  0.00    -0.298 N 
ATOM     26  H   UNL     1       2.642  -3.131  -0.176  0.00  0.00    +0.156 HD
ATOM     27  H   UNL     1       1.187  -4.943   0.078  0.00  0.00    +0.150 HD
BRANCH  22  32
ATOM     28  C   UNL     1       1.546   1.012   0.977  0.00  0.00    +0.002 A 
ATOM     29  C   UNL     1       2.649   1.569   0.355  0.00  0.00    +0.003 A 
ATOM     30  C   UNL     1       3.510   0.771  -0.376  0.00  0.00    +0.040 A 
ATOM     31  C   UNL     1       3.270  -0.587  -0.487  0.00  0.00    +0.145 A 
ATOM     32  C   UNL     1       2.162  -1.148   0.138  0.00  0.00    +0.070 A 
ATOM     33  C   UNL     1       1.300  -0.343   0.870  0.00  0.00    +0.026 A 
ATOM     34  F   UNL     1       4.111  -1.366  -1.201  0.00  0.00    -0.204 F 
ENDBRANCH  22  32
ENDBRANCH  21  25
ENDBRANCH  20  21
ENDBRANCH   1  20
TORSDOF 6
