REMARK  Name = ZINC09302143
REMARK  10 active torsions:
REMARK  status: ('A' for Active; 'I' for Inactive)
REMARK    1  A    between atoms: C_1  and  N_52
REMARK    2  A    between atoms: C_2  and  N_52
REMARK    3  A    between atoms: C_3  and  C_4
REMARK    4  A    between atoms: C_3  and  N_52
REMARK    5  A    between atoms: C_4  and  N_5
REMARK    6  A    between atoms: C_6  and  C_24
REMARK    7  A    between atoms: C_9  and  C_10
REMARK    8  A    between atoms: C_9  and  O_19
REMARK    9  A    between atoms: C_13  and  O_17
REMARK   10  A    between atoms: O_17  and  C_18
REMARK                            x       y       z     vdW  Elec       q    Type
REMARK                         _______ _______ _______ _____ _____    ______ ____
ROOT
ATOM      1  N   UNL     1      -1.179  -1.259   0.029  0.00  0.00    -0.285 N 
ATOM      2  C   UNL     1      -2.061  -1.158   1.195  0.00  0.00    +0.144 C 
ATOM      3  C   UNL     1      -3.425  -1.630   0.748  0.00  0.00    +0.071 C 
ATOM      4  C   UNL     1      -4.571  -1.704   1.517  0.00  0.00    +0.133 C 
ATOM      5  C   UNL     1      -3.293  -1.983  -0.603  0.00  0.00    +0.249 C 
ATOM      6  O   UNL     1      -4.178  -2.416  -1.318  0.00  0.00    -0.282 OA
ATOM      7  C   UNL     1      -1.883  -1.738  -1.010  0.00  0.00    +0.288 C 
ATOM      8  O   UNL     1      -1.434  -1.940  -2.120  0.00  0.00    -0.266 OA
ENDROOT
BRANCH   4   9
ATOM      9  C   UNL     1      -5.855  -2.053   0.891  0.00  0.00    +0.019 A 
ATOM     10  C   UNL     1      -6.295  -1.360  -0.243  0.00  0.00    +0.015 A 
ATOM     11  C   UNL     1      -7.495  -1.694  -0.829  0.00  0.00    +0.048 A 
ATOM     12  C   UNL     1      -8.276  -2.711  -0.290  0.00  0.00    +0.138 A 
ATOM     13  C   UNL     1      -7.846  -3.399   0.841  0.00  0.00    +0.083 A 
ATOM     14  C   UNL     1      -6.644  -3.076   1.431  0.00  0.00    +0.035 A 
ATOM     15 CL   UNL     1      -8.826  -4.667   1.509  0.00  0.00    -0.080 Cl
BRANCH  12  16
ATOM     16  O   UNL     1      -9.461  -3.033  -0.868  0.00  0.00    -0.494 OA
ATOM     17  C   UNL     1      -9.842  -2.287  -2.025  0.00  0.00    +0.277 C 
ENDBRANCH  12  16
ENDBRANCH   4   9
BRANCH   2  18
ATOM     18  C   UNL     1      -2.140   0.274   1.660  0.00  0.00    -0.021 A 
ATOM     19  C   UNL     1      -2.203   1.299   0.734  0.00  0.00    +0.006 A 
ATOM     20  C   UNL     1      -2.281   2.611   1.159  0.00  0.00    +0.002 A 
ATOM     21  C   UNL     1      -2.285   2.901   2.511  0.00  0.00    +0.020 A 
ATOM     22  C   UNL     1      -2.217   1.877   3.438  0.00  0.00    +0.041 A 
ATOM     23  C   UNL     1      -2.145   0.562   3.011  0.00  0.00    +0.025 A 
ATOM     24 CL   UNL     1      -2.222   2.240   5.135  0.00  0.00    -0.084 Cl
ENDBRANCH   2  18
BRANCH   4  25
ATOM     25  O   UNL     1      -4.512  -1.455   2.843  0.00  0.00    -0.506 OA
ATOM     26  H   UNL     1      -5.424  -1.552   3.241  0.00  0.00    +0.292 HD
ENDBRANCH   4  25
BRANCH   1  27
ATOM     27  C   UNL     1       0.241  -0.901   0.003  0.00  0.00    +0.090 C 
BRANCH  27  28
ATOM     28  C   UNL     1       0.390   0.570  -0.392  0.00  0.00    -0.060 C 
BRANCH  28  31
ATOM     29  C   UNL     1       2.519   0.207  -1.487  0.00  0.00    -0.097 C 
ATOM     30  C   UNL     1       1.989   2.380  -0.560  0.00  0.00    -0.097 C 
ATOM     31  N   UNL     1       1.826   0.920  -0.394  0.00  0.00    +0.377 N 
ATOM     32  H   UNL     1       2.239   0.638   0.503  0.00  0.00    -0.083 HD
ENDBRANCH  28  31
ENDBRANCH  27  28
ENDBRANCH   1  27
TORSDOF 7
