REMARK  Name = ZINC33937367
REMARK  12 active torsions:
REMARK  status: ('A' for Active; 'I' for Inactive)
REMARK    1  A    between atoms: C_1  and  C_2
REMARK    2  A    between atoms: C_2  and  C_3
REMARK    3  A    between atoms: C_3  and  C_4
REMARK    4  A    between atoms: C_4  and  C_6
REMARK    5  A    between atoms: C_4  and  N_18
REMARK    6  A    between atoms: N_10  and  C_11
REMARK    7  A    between atoms: C_11  and  C_12
REMARK    8  A    between atoms: N_18  and  C_19
REMARK    9  A    between atoms: N_18  and  C_25
REMARK   10  A    between atoms: C_19  and  C_20
REMARK   11  A    between atoms: C_25  and  C_26
REMARK   12  A    between atoms: C_30  and  C_38
REMARK                            x       y       z     vdW  Elec       q    Type
REMARK                         _______ _______ _______ _____ _____    ______ ____
ROOT
ATOM      1  N   UNL     1      -1.091  -2.602  -0.234  0.00  0.00    +0.392 N 
ATOM      2  H   UNL     1      -2.013  -2.686  -0.636  0.00  0.00    -0.080 HD
ENDROOT
BRANCH   1   3
ATOM      3  C   UNL     1      -0.361  -1.520  -0.907  0.00  0.00    +0.003 C 
BRANCH   3   4
ATOM      4  C   UNL     1       1.070  -1.511  -0.435  0.00  0.00    +0.138 A 
ATOM      5  N   UNL     1       1.759  -2.540  -0.005  0.00  0.00    -0.115 NA
ATOM      6  N   UNL     1       2.940  -2.127   0.304  0.00  0.00    -0.023 NA
ATOM      7  N   UNL     1       3.022  -0.862   0.082  0.00  0.00    -0.044 NA
ATOM      8  N   UNL     1       1.891  -0.446  -0.379  0.00  0.00    -0.228 N 
BRANCH   8   9
ATOM      9  C   UNL     1       1.562   0.928  -0.766  0.00  0.00    +0.178 C 
BRANCH   9  10
ATOM     10  C   UNL     1       0.853   1.629   0.395  0.00  0.00    +0.140 C 
ATOM     11  C   UNL     1       0.563   3.107   0.034  0.00  0.00    +0.035 C 
ATOM     12  C   UNL     1      -0.644   3.406   0.964  0.00  0.00    +0.031 C 
ATOM     13  C   UNL     1      -1.380   2.050   0.993  0.00  0.00    +0.160 C 
ATOM     14  O   UNL     1      -0.436   1.036   0.622  0.00  0.00    -0.375 OA
ENDBRANCH   9  10
ENDBRANCH   8   9
ENDBRANCH   3   4
BRANCH   3  15
ATOM     15  C   UNL     1      -0.398  -1.743  -2.420  0.00  0.00    -0.008 C 
BRANCH  15  17
ATOM     16  C   UNL     1      -1.867  -1.753  -4.440  0.00  0.00    +0.004 C 
ATOM     17  C   UNL     1      -1.843  -1.656  -2.914  0.00  0.00    -0.005 C 
ENDBRANCH  15  17
ENDBRANCH   3  15
ENDBRANCH   1   3
BRANCH   1  18
ATOM     18  C   UNL     1      -0.365  -3.867  -0.410  0.00  0.00    -0.034 C 
BRANCH  18  19
ATOM     19  C   UNL     1      -1.327  -5.020  -0.293  0.00  0.00    -0.027 A 
ATOM     20  C   UNL     1      -1.943  -5.722  -1.276  0.00  0.00    +0.009 A 
ATOM     21  C   UNL     1      -2.796  -6.753  -0.930  0.00  0.00    +0.008 A 
ATOM     22  C   UNL     1      -2.992  -7.032   0.382  0.00  0.00    +0.045 A 
ATOM     23  S   UNL     1      -1.947  -5.822   1.177  0.00  0.00    -0.103 S 
ENDBRANCH  18  19
ENDBRANCH   1  18
BRANCH   1  24
ATOM     24  C   UNL     1      -1.206  -2.299   1.198  0.00  0.00    -0.036 C 
BRANCH  24  25
ATOM     25  C   UNL     1       0.160  -2.345   1.833  0.00  0.00    +0.001 A 
ATOM     26  C   UNL     1       0.896  -1.212   1.934  0.00  0.00    +0.017 A 
ATOM     27  C   UNL     1       2.219  -1.290   2.556  0.00  0.00    -0.001 A 
ATOM     28  C   UNL     1       3.025  -0.155   2.689  0.00  0.00    +0.013 A 
ATOM     29  C   UNL     1       4.255  -0.262   3.275  0.00  0.00    -0.050 A 
ATOM     30  C   UNL     1       4.712  -1.488   3.739  0.00  0.00    +0.005 A 
ATOM     31  C   UNL     1       3.936  -2.620   3.618  0.00  0.00    +0.026 A 
ATOM     32  C   UNL     1       2.680  -2.535   3.026  0.00  0.00    +0.049 A 
ATOM     33  N   UNL     1       1.881  -3.651   2.892  0.00  0.00    -0.322 N 
ATOM     34  H   UNL     1       2.200  -4.508   3.216  0.00  0.00    +0.169 HD
ATOM     35  C   UNL     1       0.665  -3.568   2.325  0.00  0.00    +0.251 A 
ATOM     36  O   UNL     1      -0.015  -4.574   2.228  0.00  0.00    -0.268 OA
ATOM     37  C   UNL     1       5.122   0.962   3.418  0.00  0.00    +0.044 C 
ENDBRANCH  24  25
ENDBRANCH   1  24
TORSDOF 10
