REMARK  Name = ZINC39326851
REMARK  8 active torsions:
REMARK  status: ('A' for Active; 'I' for Inactive)
REMARK    1  A    between atoms: C_1  and  O_2
REMARK    2  A    between atoms: O_2  and  C_3
REMARK    3  A    between atoms: C_8  and  C_9
REMARK    4  A    between atoms: C_17  and  N_31
REMARK    5  A    between atoms: C_18  and  C_29
REMARK    6  A    between atoms: C_19  and  C_21
REMARK    7  A    between atoms: C_26  and  O_27
REMARK    8  A    between atoms: O_27  and  C_28
REMARK                            x       y       z     vdW  Elec       q    Type
REMARK                         _______ _______ _______ _____ _____    ______ ____
ROOT
ATOM      1  C   UNL     1      -0.017  -2.830  -0.013  0.00  0.00    +0.020 C 
ATOM      2  C   UNL     1      -0.073  -4.171   0.081  0.00  0.00    +0.009 C 
ATOM      3  C   UNL     1      -1.399  -4.903   0.087  0.00  0.00    +0.120 C 
ATOM      4  N   UNL     1      -1.294  -5.974   1.095  0.00  0.00    -0.308 NA
ATOM      5  C   UNL     1      -0.268  -6.945   0.713  0.00  0.00    +0.117 C 
ATOM      6  C   UNL     1       1.066  -6.282   0.483  0.00  0.00    -0.001 C 
ATOM      7  C   UNL     1       1.156  -4.985   0.177  0.00  0.00    +0.136 C 
ATOM      8  O   UNL     1       2.349  -4.382  -0.045  0.00  0.00    -0.441 OA
ATOM      9  C   UNL     1       3.425  -5.120  -0.371  0.00  0.00    +0.199 C 
ATOM     10  C   UNL     1       3.469  -6.447  -0.093  0.00  0.00    +0.098 C 
ATOM     11  C   UNL     1       2.313  -7.125   0.600  0.00  0.00    +0.099 C 
ATOM     12  H   UNL     1      -1.109  -5.593   2.010  0.00  0.00    +0.123 HD
ENDROOT
BRANCH   1  18
ATOM     13  C   UNL     1      -1.419  -0.796   0.314  0.00  0.00    +0.127 A 
ATOM     14  C   UNL     1      -2.574  -0.076   0.059  0.00  0.00    +0.046 A 
ATOM     15  C   UNL     1      -3.551  -0.602  -0.765  0.00  0.00    +0.004 A 
ATOM     16  C   UNL     1      -3.385  -1.850  -1.341  0.00  0.00    +0.001 A 
ATOM     17  C   UNL     1      -2.242  -2.581  -1.098  0.00  0.00    +0.011 A 
ATOM     18  C   UNL     1      -1.243  -2.058  -0.272  0.00  0.00    +0.017 A 
BRANCH  13  20
ATOM     19  C   UNL     1      -0.706   1.010   1.684  0.00  0.00    +0.277 C 
ATOM     20  O   UNL     1      -0.458  -0.280   1.123  0.00  0.00    -0.495 OA
ENDBRANCH  13  20
ENDBRANCH   1  18
BRANCH  11  21
ATOM     21  C   UNL     1       2.639  -7.333   2.057  0.00  0.00    +0.007 A 
ATOM     22  C   UNL     1       2.886  -6.245   2.872  0.00  0.00    +0.008 A 
ATOM     23  C   UNL     1       3.186  -6.435   4.208  0.00  0.00    +0.001 A 
ATOM     24  C   UNL     1       3.239  -7.714   4.732  0.00  0.00    +0.004 A 
ATOM     25  C   UNL     1       2.993  -8.804   3.921  0.00  0.00    +0.046 A 
ATOM     26  C   UNL     1       2.687  -8.616   2.581  0.00  0.00    +0.124 A 
BRANCH  26  27
ATOM     27  O   UNL     1       2.438  -9.687   1.782  0.00  0.00    -0.495 OA
ATOM     28  C   UNL     1       2.505 -10.979   2.390  0.00  0.00    +0.277 C 
ENDBRANCH  26  27
ENDBRANCH  11  21
BRANCH   9  29
ATOM     29  N   UNL     1       4.492  -4.523  -0.995  0.00  0.00    -0.328 N 
ATOM     30  H   UNL     1       4.467  -3.574  -1.197  0.00  0.00    +0.145 HD
ATOM     31  H   UNL     1       5.271  -5.049  -1.233  0.00  0.00    +0.145 HD
ENDBRANCH   9  29
BRANCH  10  32
ATOM     32  C   UNL     1       4.627  -7.208  -0.453  0.00  0.00    +0.101 C 
ATOM     33  N   UNL     1       5.545  -7.813  -0.738  0.00  0.00    -0.191 NA
ENDBRANCH  10  32
TORSDOF 6
