REMARK  Name = ZINC13234243
REMARK  10 active torsions:
REMARK  status: ('A' for Active; 'I' for Inactive)
REMARK    1  A    between atoms: C_1  and  C_2
REMARK    2  A    between atoms: C_2  and  C_3
REMARK    3  A    between atoms: C_2  and  C_4
REMARK    4  A    between atoms: C_4  and  C_6
REMARK    5  A    between atoms: C_4  and  N_8
REMARK    6  A    between atoms: C_18  and  S_19
REMARK    7  A    between atoms: S_19  and  C_20
REMARK    8  A    between atoms: C_20  and  C_21
REMARK    9  A    between atoms: N_23  and  C_24
REMARK   10  A    between atoms: N_23  and  C_25
REMARK                            x       y       z     vdW  Elec       q    Type
REMARK                         _______ _______ _______ _____ _____    ______ ____
ROOT
ATOM      1  N   UNL     1       2.037   3.912  -0.299  0.00  0.00    -0.273 N 
ATOM      2  C   UNL     1       0.742   3.582  -0.511  0.00  0.00    +0.263 A 
ATOM      3  O   UNL     1      -0.125   4.434  -0.573  0.00  0.00    -0.267 OA
ATOM      4  C   UNL     1       0.422   2.157  -0.665  0.00  0.00    +0.065 A 
ATOM      5  C   UNL     1      -0.881   1.714  -0.887  0.00  0.00    +0.015 A 
ATOM      6  C   UNL     1      -1.124   0.375  -1.022  0.00  0.00    +0.001 A 
ATOM      7  C   UNL     1      -0.088  -0.546  -0.941  0.00  0.00    +0.002 A 
ATOM      8  C   UNL     1       1.198  -0.140  -0.724  0.00  0.00    +0.028 A 
ATOM      9  C   UNL     1       1.479   1.222  -0.581  0.00  0.00    +0.079 A 
ATOM     10  N   UNL     1       2.734   1.666  -0.366  0.00  0.00    -0.223 NA
ATOM     11  C   UNL     1       2.997   2.943  -0.232  0.00  0.00    +0.173 A 
ENDROOT
BRANCH   1  12
ATOM     12  C   UNL     1       2.412   5.319  -0.139  0.00  0.00    +0.208 C 
BRANCH  12  14
ATOM     13  C   UNL     1       0.283   5.952   1.005  0.00  0.00    +0.010 C 
ATOM     14  C   UNL     1       1.160   6.194  -0.225  0.00  0.00    +0.017 C 
ATOM     15  C   UNL     1       1.570   7.667  -0.277  0.00  0.00    +0.010 C 
ENDBRANCH  12  14
BRANCH  12  16
ATOM     16  C   UNL     1       3.070   5.514   1.204  0.00  0.00    +0.379 C 
ATOM     17  O   UNL     1       3.210   4.575   1.950  0.00  0.00    -0.244 OA
ATOM     18  O   UNL     1       3.499   6.732   1.570  0.00  0.00    -0.244 OA
ENDBRANCH  12  16
ENDBRANCH   1  12
BRANCH  11  19
ATOM     19  S   UNL     1       4.667   3.432   0.047  0.00  0.00    -0.078 S 
BRANCH  19  20
ATOM     20  C   UNL     1       5.473   1.811   0.043  0.00  0.00    +0.173 C 
BRANCH  20  21
ATOM     21  C   UNL     1       6.953   1.986   0.270  0.00  0.00    +0.226 C 
ATOM     22  O   UNL     1       7.416   3.097   0.421  0.00  0.00    -0.275 OA
ATOM     23  N   UNL     1       7.761   0.908   0.307  0.00  0.00    -0.299 N 
ATOM     24  C   UNL     1       7.201  -0.434   0.125  0.00  0.00    +0.132 C 
BRANCH  23  25
ATOM     25  C   UNL     1       9.199   1.078   0.528  0.00  0.00    +0.098 C 
ATOM     26  C   UNL     1       9.620   0.330   1.804  0.00  0.00    +0.046 C 
ATOM     27  C   UNL     1      11.163   0.232   1.873  0.00  0.00    +0.168 C 
ATOM     28  S   UNL     1      11.649   0.256   0.100  0.00  0.00    -0.029 S 
ATOM     29  O   UNL     1      12.432   1.416  -0.149  0.00  0.00    -0.174 OA
ATOM     30  O   UNL     1      12.159  -1.021  -0.257  0.00  0.00    -0.174 OA
ATOM     31  C   UNL     1       9.989   0.476  -0.668  0.00  0.00    +0.188 C 
ENDBRANCH  23  25
ENDBRANCH  20  21
ENDBRANCH  19  20
ENDBRANCH  11  19
TORSDOF 7
