REMARK  Name = ZINC15017622
REMARK  4 active torsions:
REMARK  status: ('A' for Active; 'I' for Inactive)
REMARK    1  A    between atoms: C_1  and  C_2
REMARK    2  A    between atoms: N_16  and  N_17
REMARK    3  A    between atoms: C_18  and  C_19
REMARK    4  A    between atoms: C_24  and  O_25
REMARK                            x       y       z     vdW  Elec       q    Type
REMARK                         _______ _______ _______ _____ _____    ______ ____
ROOT
ATOM      1  C   UNL     1      -0.018   1.503   0.010  0.00  0.00    +0.044 C 
ATOM      2  C   UNL     1       0.002  -0.004   0.002  0.00  0.00    -0.050 A 
ATOM      3  C   UNL     1       0.006  -0.688  -1.204  0.00  0.00    +0.005 A 
ATOM      4  C   UNL     1       0.024  -2.066  -1.228  0.00  0.00    +0.026 A 
ATOM      5  C   UNL     1       0.039  -2.784  -0.036  0.00  0.00    +0.050 A 
ATOM      6  C   UNL     1       0.035  -2.090   1.184  0.00  0.00    +0.029 A 
ATOM      7  C   UNL     1       0.023  -0.697   1.193  0.00  0.00    +0.015 A 
ATOM      8  C   UNL     1       0.053  -3.113   2.243  0.00  0.00    +0.138 A 
ATOM      9  C   UNL     1       0.067  -4.362   1.588  0.00  0.00    +0.163 A 
ATOM     10  N   UNL     1       0.058  -4.143   0.233  0.00  0.00    -0.338 N 
ATOM     11  H   UNL     1       0.064  -4.840  -0.441  0.00  0.00    +0.167 HD
ATOM     12  N   UNL     1       0.085  -5.464   2.331  0.00  0.00    -0.192 NA
ATOM     13  C   UNL     1       0.089  -5.355   3.653  0.00  0.00    +0.256 A 
ATOM     14  N   UNL     1       0.076  -4.167   4.248  0.00  0.00    -0.111 NA
ATOM     15  N   UNL     1       0.058  -3.072   3.568  0.00  0.00    -0.142 NA
ATOM     16  N   UNL     1       0.108  -6.502   4.429  0.00  0.00    -0.204 N 
ATOM     17  H   UNL     1       0.117  -7.374   4.004  0.00  0.00    +0.177 HD
ENDROOT
BRANCH  16  18
ATOM     18  N   UNL     1       0.113  -6.403   5.826  0.00  0.00    -0.187 NA
ATOM     19  C   UNL     1       0.130  -7.478   6.553  0.00  0.00    +0.142 C 
BRANCH  19  20
ATOM     20  C   UNL     1       0.136  -7.374   8.023  0.00  0.00    +0.038 A 
ATOM     21  C   UNL     1       0.160  -8.528   8.809  0.00  0.00    +0.028 A 
ATOM     22  C   UNL     1       0.165  -8.424  10.185  0.00  0.00    +0.020 A 
ATOM     23  C   UNL     1       0.146  -7.178  10.791  0.00  0.00    +0.034 A 
ATOM     24  C   UNL     1       0.121  -6.028  10.023  0.00  0.00    +0.061 A 
ATOM     25  C   UNL     1       0.122  -6.116   8.640  0.00  0.00    +0.139 A 
ATOM     26 BR   UNL     1       0.093  -4.333  10.862  0.00  0.00    -0.046 Br
ATOM     27 BR   UNL     1       0.199  -9.987  11.248  0.00  0.00    -0.050 Br
BRANCH  25  28
ATOM     28  O   UNL     1       0.104  -4.986   7.885  0.00  0.00    -0.505 OA
ATOM     29  H   UNL     1      -0.784  -4.671   7.671  0.00  0.00    +0.292 HD
ENDBRANCH  25  28
ENDBRANCH  19  20
ENDBRANCH  16  18
TORSDOF 3
