REMARK  Name = ZINC36822388
REMARK  11 active torsions:
REMARK  status: ('A' for Active; 'I' for Inactive)
REMARK    1  A    between atoms: C_1  and  C_2
REMARK    2  A    between atoms: C_2  and  C_3
REMARK    3  A    between atoms: C_3  and  C_27
REMARK    4  A    between atoms: N_6  and  C_10
REMARK    5  A    between atoms: C_10  and  C_11
REMARK    6  A    between atoms: N_13  and  C_14
REMARK    7  A    between atoms: C_14  and  C_15
REMARK    8  A    between atoms: N_17  and  C_18
REMARK    9  A    between atoms: C_19  and  C_26
REMARK   10  A    between atoms: C_21  and  C_25
REMARK   11  A    between atoms: C_23  and  C_24
REMARK                            x       y       z     vdW  Elec       q    Type
REMARK                         _______ _______ _______ _____ _____    ______ ____
ROOT
ATOM      1  C   UNL     1       4.234  -0.417  -2.172  0.00  0.00    +0.213 C 
ENDROOT
BRANCH   1   5
ATOM      2  C   UNL     1       1.117  -2.341  -1.557  0.00  0.00    +0.138 C 
ATOM      3  C   UNL     1       2.624  -2.249  -1.688  0.00  0.00    +0.251 C 
ATOM      4  O   UNL     1       3.426  -3.150  -1.568  0.00  0.00    -0.272 OA
ATOM      5  N   UNL     1       2.888  -0.957  -1.965  0.00  0.00    -0.215 N 
ATOM      6  C   UNL     1       1.768  -0.227  -2.027  0.00  0.00    +0.310 C 
ATOM      7  O   UNL     1       1.750   0.965  -2.265  0.00  0.00    -0.252 OA
ATOM      8  N   UNL     1       0.663  -0.960  -1.799  0.00  0.00    -0.281 N 
ATOM      9  H   UNL     1      -0.253  -0.642  -1.794  0.00  0.00    +0.152 HD
BRANCH   2  10
ATOM     10  C   UNL     1       0.547  -3.275  -2.594  0.00  0.00    -0.015 A 
ATOM     11  C   UNL     1       0.346  -4.608  -2.286  0.00  0.00    +0.007 A 
ATOM     12  C   UNL     1      -0.176  -5.465  -3.237  0.00  0.00    +0.020 A 
ATOM     13  C   UNL     1      -0.497  -4.989  -4.495  0.00  0.00    +0.041 A 
ATOM     14  C   UNL     1      -0.296  -3.655  -4.802  0.00  0.00    +0.020 A 
ATOM     15  C   UNL     1       0.221  -2.797  -3.849  0.00  0.00    +0.007 A 
ATOM     16 CL   UNL     1      -1.153  -6.065  -5.689  0.00  0.00    -0.084 Cl
ENDBRANCH   2  10
BRANCH   2  18
ATOM     17  C   UNL     1       1.254  -1.794   0.877  0.00  0.00    +0.007 C 
ATOM     18  C   UNL     1       0.725  -2.797  -0.150  0.00  0.00    +0.037 C 
ENDBRANCH   2  18
ENDBRANCH   1   5
BRANCH   1  19
ATOM     19  C   UNL     1       4.593  -0.510  -3.633  0.00  0.00    +0.231 C 
ATOM     20  O   UNL     1       3.802  -0.980  -4.423  0.00  0.00    -0.274 OA
ATOM     21  N   UNL     1       5.793  -0.070  -4.061  0.00  0.00    -0.305 N 
ATOM     22  H   UNL     1       6.425   0.306  -3.429  0.00  0.00    +0.149 HD
BRANCH  21  23
ATOM     23  C   UNL     1       6.142  -0.161  -5.481  0.00  0.00    +0.200 C 
BRANCH  23  24
ATOM     24  C   UNL     1       7.527   0.394  -5.694  0.00  0.00    +0.234 C 
ATOM     25  O   UNL     1       8.160   0.823  -4.753  0.00  0.00    -0.274 OA
ATOM     26  N   UNL     1       8.062   0.414  -6.931  0.00  0.00    -0.284 N 
ATOM     27  H   UNL     1       7.587   0.006  -7.672  0.00  0.00    +0.155 HD
BRANCH  26  28
ATOM     28  C   UNL     1       9.302   1.024  -7.147  0.00  0.00    +0.039 A 
ATOM     29  C   UNL     1      10.329   0.316  -7.759  0.00  0.00    -0.029 A 
ATOM     30  C   UNL     1      11.552   0.921  -7.971  0.00  0.00    +0.008 A 
ATOM     31  C   UNL     1      11.755   2.230  -7.574  0.00  0.00    -0.050 A 
ATOM     32  C   UNL     1      10.736   2.938  -6.965  0.00  0.00    +0.008 A 
ATOM     33  C   UNL     1       9.508   2.341  -6.756  0.00  0.00    -0.029 A 
ATOM     34  C   UNL     1       8.395   3.115  -6.098  0.00  0.00    +0.045 C 
ATOM     35  C   UNL     1      13.091   2.887  -7.807  0.00  0.00    +0.044 C 
ATOM     36  C   UNL     1      10.108  -1.111  -8.191  0.00  0.00    +0.045 C 
ENDBRANCH  26  28
ENDBRANCH  23  24
ENDBRANCH  21  23
ENDBRANCH   1  19
TORSDOF 7
