REMARK  Name = ZINC06442639
REMARK  10 active torsions:
REMARK  status: ('A' for Active; 'I' for Inactive)
REMARK    1  A    between atoms: C_1  and  C_2
REMARK    2  A    between atoms: C_6  and  C_8
REMARK    3  A    between atoms: C_8  and  C_9
REMARK    4  A    between atoms: C_9  and  N_10
REMARK    5  A    between atoms: N_10  and  C_11
REMARK    6  A    between atoms: N_10  and  S_26
REMARK    7  A    between atoms: C_11  and  C_12
REMARK    8  A    between atoms: C_15  and  C_25
REMARK    9  A    between atoms: C_17  and  C_24
REMARK   10  A    between atoms: S_26  and  C_29
REMARK                            x       y       z     vdW  Elec       q    Type
REMARK                         _______ _______ _______ _____ _____    ______ ____
ROOT
ATOM      1  N   UNL     1      -0.193   7.425  -1.428  0.00  0.00    -0.172 NA
ENDROOT
BRANCH   1   2
ATOM      2  S   UNL     1       1.108   8.433  -1.242  0.00  0.00    +0.063 S 
ATOM      3  O   UNL     1       0.695   9.472  -0.365  0.00  0.00    -0.153 OA
ATOM      4  O   UNL     1       2.228   7.604  -0.966  0.00  0.00    -0.153 OA
BRANCH   2   5
ATOM      5  C   UNL     1       1.412   9.185  -2.806  0.00  0.00    +0.134 A 
ATOM      6  C   UNL     1       1.255  10.522  -2.957  0.00  0.00    +0.031 A 
ATOM      7  C   UNL     1       1.487  11.151  -4.180  0.00  0.00    +0.004 A 
ATOM      8  C   UNL     1       1.879  10.453  -5.272  0.00  0.00    +0.031 A 
ATOM      9  C   UNL     1       2.063   9.048  -5.189  0.00  0.00    +0.102 A 
ATOM     10  C   UNL     1       1.827   8.391  -3.907  0.00  0.00    +0.126 A 
ATOM     11  N   UNL     1       2.043   7.078  -3.970  0.00  0.00    -0.189 NA
ATOM     12  S   UNL     1       2.482   6.778  -5.444  0.00  0.00    +0.117 S 
ATOM     13  N   UNL     1       2.439   8.186  -6.131  0.00  0.00    -0.191 NA
ENDBRANCH   2   5
ENDBRANCH   1   2
BRANCH   1  14
ATOM     14  C   UNL     1       0.013   6.027  -1.816  0.00  0.00    +0.114 C 
BRANCH  14  15
ATOM     15  C   UNL     1       0.015   5.146  -0.565  0.00  0.00    +0.052 C 
BRANCH  15  21
ATOM     16  C   UNL     1      -1.596   0.628  -1.994  0.00  0.00    +0.044 C 
ATOM     17  C   UNL     1      -0.465   1.558  -1.640  0.00  0.00    -0.050 A 
ATOM     18  C   UNL     1       0.840   1.104  -1.674  0.00  0.00    +0.003 A 
ATOM     19  C   UNL     1       1.879   1.958  -1.354  0.00  0.00    +0.001 A 
ATOM     20  C   UNL     1       1.611   3.267  -0.996  0.00  0.00    +0.004 A 
ATOM     21  C   UNL     1       0.306   3.720  -0.956  0.00  0.00    -0.046 A 
ATOM     22  C   UNL     1      -0.732   2.865  -1.276  0.00  0.00    +0.007 A 
ENDBRANCH  15  21
ENDBRANCH  14  15
ENDBRANCH   1  14
BRANCH   1  23
ATOM     23  C   UNL     1      -1.549   7.931  -1.204  0.00  0.00    +0.150 C 
BRANCH  23  24
ATOM     24  C   UNL     1      -2.317   7.901  -2.501  0.00  0.00    +0.033 A 
ATOM     25  C   UNL     1      -3.098   6.834  -2.799  0.00  0.00    +0.020 A 
ATOM     26  C   UNL     1      -3.834   6.838  -4.064  0.00  0.00    +0.002 A 
ATOM     27  C   UNL     1      -4.660   5.768  -4.424  0.00  0.00    -0.041 A 
ATOM     28  C   UNL     1      -5.330   5.800  -5.614  0.00  0.00    +0.007 A 
ATOM     29  C   UNL     1      -5.198   6.885  -6.470  0.00  0.00    -0.048 A 
ATOM     30  C   UNL     1      -4.390   7.949  -6.136  0.00  0.00    +0.029 A 
ATOM     31  C   UNL     1      -3.698   7.939  -4.929  0.00  0.00    +0.050 A 
ATOM     32  N   UNL     1      -2.883   8.991  -4.570  0.00  0.00    -0.322 N 
ATOM     33  H   UNL     1      -2.790   9.750  -5.168  0.00  0.00    +0.169 HD
ATOM     34  C   UNL     1      -2.215   8.981  -3.403  0.00  0.00    +0.254 A 
ATOM     35  O   UNL     1      -1.502   9.928  -3.118  0.00  0.00    -0.268 OA
ATOM     36  C   UNL     1      -5.947   6.898  -7.778  0.00  0.00    +0.044 C 
ATOM     37  C   UNL     1      -4.811   4.584  -3.503  0.00  0.00    +0.044 C 
ENDBRANCH  23  24
ENDBRANCH   1  23
TORSDOF 7
