REMARK  Name = ZINC21152470
REMARK  7 active torsions:
REMARK  status: ('A' for Active; 'I' for Inactive)
REMARK    1  A    between atoms: C_1  and  C_2
REMARK    2  A    between atoms: C_5  and  C_35
REMARK    3  A    between atoms: C_6  and  N_8
REMARK    4  A    between atoms: C_22  and  C_23
REMARK    5  A    between atoms: C_22  and  C_24
REMARK    6  A    between atoms: N_26  and  C_27
REMARK    7  A    between atoms: C_27  and  C_28
REMARK                            x       y       z     vdW  Elec       q    Type
REMARK                         _______ _______ _______ _____ _____    ______ ____
ROOT
ATOM      1  N   UNL     1       1.263   2.222   0.002  0.00  0.00    -0.243 N 
ATOM      2  C   UNL     1       2.406   1.510  -0.013  0.00  0.00    +0.269 C 
ATOM      3  O   UNL     1       3.475   2.092  -0.020  0.00  0.00    -0.268 OA
ATOM      4  C   UNL     1       2.381   0.040  -0.021  0.00  0.00    +0.113 A 
ATOM      5  C   UNL     1       3.417  -0.847  -0.036  0.00  0.00    +0.041 A 
ATOM      6  C   UNL     1       2.840  -2.188  -0.038  0.00  0.00    +0.002 A 
ATOM      7  C   UNL     1       3.386  -3.476  -0.051  0.00  0.00    +0.030 A 
ATOM      8  C   UNL     1       2.558  -4.563  -0.049  0.00  0.00    +0.042 A 
ATOM      9  C   UNL     1       1.179  -4.400  -0.034  0.00  0.00    +0.022 A 
ATOM     10  C   UNL     1       0.621  -3.139  -0.021  0.00  0.00    +0.028 A 
ATOM     11  C   UNL     1       1.444  -2.019  -0.023  0.00  0.00    +0.057 A 
ATOM     12  N   UNL     1       1.185  -0.658  -0.013  0.00  0.00    -0.273 N 
ATOM     13  C   UNL     1       0.002  -0.004   0.002  0.00  0.00    +0.265 C 
ATOM     14  O   UNL     1      -1.038  -0.627   0.008  0.00  0.00    -0.269 OA
ATOM     15  C   UNL     1      -0.018   1.504   0.010  0.00  0.00    +0.194 C 
ATOM     16  C   UNL     1      -0.815   1.964  -1.212  0.00  0.00    +0.052 C 
ATOM     17 CL   UNL     1       3.236  -6.162  -0.064  0.00  0.00    -0.084 Cl
ENDROOT
BRANCH   1  23
ATOM     18  C   UNL     1       1.385   6.438   2.527  0.00  0.00    +0.044 C 
ATOM     19  C   UNL     1       1.355   5.689   1.220  0.00  0.00    -0.049 A 
ATOM     20  C   UNL     1       1.360   6.386   0.025  0.00  0.00    +0.004 A 
ATOM     21  C   UNL     1       1.333   5.703  -1.177  0.00  0.00    +0.005 A 
ATOM     22  C   UNL     1       1.300   4.322  -1.188  0.00  0.00    -0.029 A 
ATOM     23  C   UNL     1       1.296   3.620   0.010  0.00  0.00    +0.041 A 
ATOM     24  C   UNL     1       1.318   4.309   1.216  0.00  0.00    +0.027 A 
ATOM     25  C   UNL     1       1.270   3.579  -2.499  0.00  0.00    +0.045 C 
ENDBRANCH   1  23
BRANCH  15  26
ATOM     26  C   UNL     1      -0.780   1.944   1.234  0.00  0.00    +0.246 C 
ATOM     27  O   UNL     1      -1.963   2.199   1.153  0.00  0.00    -0.273 OA
ATOM     28  N   UNL     1      -0.146   2.053   2.419  0.00  0.00    -0.309 N 
ATOM     29  H   UNL     1       0.926   1.821   2.492  0.00  0.00    +0.149 HD
BRANCH  28  30
ATOM     30  C   UNL     1      -0.887   2.481   3.609  0.00  0.00    +0.139 C 
BRANCH  30  31
ATOM     31  C   UNL     1       0.045   2.521   4.792  0.00  0.00    -0.030 A 
ATOM     32  C   UNL     1       0.204   1.400   5.585  0.00  0.00    +0.005 A 
ATOM     33  C   UNL     1       1.062   1.435   6.668  0.00  0.00    +0.000 A 
ATOM     34  C   UNL     1       1.754   2.595   6.965  0.00  0.00    +0.000 A 
ATOM     35  C   UNL     1       1.590   3.718   6.175  0.00  0.00    +0.000 A 
ATOM     36  C   UNL     1       0.736   3.681   5.089  0.00  0.00    +0.005 A 
ENDBRANCH  30  31
ENDBRANCH  28  30
ENDBRANCH  15  26
TORSDOF 4
