REMARK  Name = ZINC64787712
REMARK  6 active torsions:
REMARK  status: ('A' for Active; 'I' for Inactive)
REMARK    1  A    between atoms: C_1  and  C_2
REMARK    2  A    between atoms: C_5  and  N_9
REMARK    3  A    between atoms: N_9  and  S_10
REMARK    4  A    between atoms: S_10  and  C_13
REMARK    5  A    between atoms: C_15  and  C_20
REMARK    6  A    between atoms: C_18  and  C_19
REMARK                            x       y       z     vdW  Elec       q    Type
REMARK                         _______ _______ _______ _____ _____    ______ ____
ROOT
ATOM      1  C   UNL     1       2.470  -4.656  -0.853  0.00  0.00    +0.112 A 
ATOM      2  C   UNL     1       3.382  -5.663  -0.611  0.00  0.00    +0.039 A 
ATOM      3  C   UNL     1       4.714  -5.346  -0.353  0.00  0.00    +0.004 A 
ATOM      4  C   UNL     1       5.118  -4.012  -0.341  0.00  0.00    +0.010 A 
ATOM      5  C   UNL     1       4.197  -3.013  -0.584  0.00  0.00    +0.006 A 
ATOM      6  C   UNL     1       2.877  -3.334  -0.845  0.00  0.00    -0.024 A 
ATOM      7  C   UNL     1       1.877  -2.239  -1.115  0.00  0.00    +0.046 C 
ENDROOT
BRANCH   3   8
ATOM      8  C   UNL     1       5.699  -6.424  -0.092  0.00  0.00    +0.091 A 
ATOM      9  C   UNL     1       7.050  -6.096   0.169  0.00  0.00    +0.035 A 
ATOM     10  C   UNL     1       7.927  -7.114   0.404  0.00  0.00    +0.073 A 
ATOM     11  C   UNL     1       7.431  -8.435   0.373  0.00  0.00    +0.265 A 
ATOM     12  O   UNL     1       8.178  -9.378   0.578  0.00  0.00    -0.266 OA
ATOM     13  N   UNL     1       6.127  -8.648   0.115  0.00  0.00    -0.243 N 
ATOM     14  N   UNL     1       5.313  -7.678  -0.099  0.00  0.00    -0.171 NA
ATOM     15  H   UNL     1       5.792  -9.558   0.094  0.00  0.00    +0.192 HD
ENDBRANCH   3   8
BRANCH   1  16
ATOM     16  S   UNL     1       0.785  -5.055  -1.180  0.00  0.00    +0.073 S 
ATOM     17  O   UNL     1      -0.000  -4.224  -0.336  0.00  0.00    -0.150 OA
ATOM     18  O   UNL     1       0.691  -6.473  -1.153  0.00  0.00    -0.150 OA
BRANCH  16  19
ATOM     19  N   UNL     1       0.464  -4.589  -2.736  0.00  0.00    -0.215 N 
ATOM     20  H   UNL     1      -0.224  -3.929  -2.912  0.00  0.00    +0.174 HD
BRANCH  19  25
ATOM     21  C   UNL     1       3.389  -6.855  -7.035  0.00  0.00    +0.044 C 
ATOM     22  C   UNL     1       2.611  -6.252  -5.893  0.00  0.00    -0.049 A 
ATOM     23  C   UNL     1       2.292  -7.026  -4.792  0.00  0.00    +0.005 A 
ATOM     24  C   UNL     1       1.580  -6.478  -3.744  0.00  0.00    +0.026 A 
ATOM     25  C   UNL     1       1.185  -5.147  -3.795  0.00  0.00    +0.062 A 
ATOM     26  C   UNL     1       1.508  -4.372  -4.902  0.00  0.00    +0.040 A 
ATOM     27  C   UNL     1       2.225  -4.926  -5.946  0.00  0.00    +0.020 A 
ATOM     28 BR   UNL     1       0.973  -2.560  -4.978  0.00  0.00    -0.048 Br
ENDBRANCH  19  25
ENDBRANCH  16  19
ENDBRANCH   1  16
TORSDOF 4
