REMARK  Name = ZINC44877789
REMARK  11 active torsions:
REMARK  status: ('A' for Active; 'I' for Inactive)
REMARK    1  A    between atoms: C_1  and  C_2
REMARK    2  A    between atoms: C_5  and  S_8
REMARK    3  A    between atoms: S_8  and  N_11
REMARK    4  A    between atoms: N_11  and  C_12
REMARK    5  A    between atoms: N_11  and  C_32
REMARK    6  A    between atoms: C_12  and  C_13
REMARK    7  A    between atoms: N_15  and  C_16
REMARK    8  A    between atoms: C_16  and  C_17
REMARK    9  A    between atoms: C_20  and  C_23
REMARK   10  A    between atoms: C_23  and  N_24
REMARK   11  A    between atoms: C_28  and  C_31
REMARK                            x       y       z     vdW  Elec       q    Type
REMARK                         _______ _______ _______ _____ _____    ______ ____
ROOT
ATOM      1  C   UNL     1       2.305  -6.675   1.595  0.00  0.00    +0.232 C 
ATOM      2  O   UNL     1       1.730  -7.460   0.871  0.00  0.00    -0.274 OA
ATOM      3  N   UNL     1       2.895  -7.109   2.726  0.00  0.00    -0.310 N 
ATOM      4  H   UNL     1       3.355  -6.481   3.305  0.00  0.00    +0.149 HD
ENDROOT
BRANCH   1   5
ATOM      5  C   UNL     1       2.360  -5.214   1.229  0.00  0.00    +0.227 C 
BRANCH   5   6
ATOM      6  N   UNL     1       1.651  -4.999  -0.034  0.00  0.00    -0.191 N 
BRANCH   6   7
ATOM      7  C   UNL     1       2.315  -5.191  -1.250  0.00  0.00    +0.087 A 
ATOM      8  C   UNL     1       2.388  -6.459  -1.810  0.00  0.00    +0.027 A 
ATOM      9  C   UNL     1       3.044  -6.645  -3.012  0.00  0.00    +0.002 A 
ATOM     10  C   UNL     1       3.628  -5.570  -3.657  0.00  0.00    +0.003 A 
ATOM     11  C   UNL     1       3.558  -4.306  -3.103  0.00  0.00    +0.040 A 
ATOM     12  C   UNL     1       2.898  -4.111  -1.904  0.00  0.00    +0.146 A 
ATOM     13  F   UNL     1       2.824  -2.874  -1.365  0.00  0.00    -0.203 F 
ENDBRANCH   6   7
BRANCH   6  14
ATOM     14  S   UNL     1       0.063  -4.530  -0.023  0.00  0.00    +0.075 S 
ATOM     15  O   UNL     1      -0.476  -4.950   1.223  0.00  0.00    -0.150 OA
ATOM     16  O   UNL     1      -0.490  -4.937  -1.267  0.00  0.00    -0.150 OA
BRANCH  14  21
ATOM     17  C   UNL     1      -0.018   1.503   0.010  0.00  0.00    +0.044 C 
ATOM     18  C   UNL     1       0.002  -0.004   0.002  0.00  0.00    -0.050 A 
ATOM     19  C   UNL     1       0.006  -0.689  -1.199  0.00  0.00    +0.005 A 
ATOM     20  C   UNL     1       0.025  -2.071  -1.206  0.00  0.00    +0.029 A 
ATOM     21  C   UNL     1       0.040  -2.768  -0.013  0.00  0.00    +0.109 A 
ATOM     22  C   UNL     1       0.037  -2.084   1.188  0.00  0.00    +0.029 A 
ATOM     23  C   UNL     1       0.023  -0.702   1.195  0.00  0.00    +0.005 A 
ENDBRANCH  14  21
ENDBRANCH   6  14
ENDBRANCH   5   6
ENDBRANCH   1   5
BRANCH   3  24
ATOM     24  C   UNL     1       2.841  -8.529   3.081  0.00  0.00    +0.139 C 
BRANCH  24  25
ATOM     25  C   UNL     1       3.571  -8.750   4.381  0.00  0.00    -0.030 A 
ATOM     26  C   UNL     1       4.924  -9.035   4.375  0.00  0.00    +0.005 A 
ATOM     27  C   UNL     1       5.593  -9.237   5.567  0.00  0.00    +0.002 A 
ATOM     28  C   UNL     1       4.910  -9.154   6.766  0.00  0.00    -0.064 A 
ATOM     29  C   UNL     1       3.558  -8.868   6.773  0.00  0.00    +0.002 A 
ATOM     30  C   UNL     1       2.889  -8.662   5.580  0.00  0.00    +0.005 A 
BRANCH  28  31
ATOM     31  C   UNL     1       5.640  -9.376   8.066  0.00  0.00    -0.043 C 
BRANCH  31  32
ATOM     32  N   UNL     1       6.164  -8.094   8.558  0.00  0.00    +0.383 N 
ATOM     33  C   UNL     1       7.171  -7.587   7.619  0.00  0.00    -0.078 C 
ATOM     34  C   UNL     1       7.662  -6.214   8.085  0.00  0.00    -0.018 C 
ATOM     35  C   UNL     1       8.281  -6.345   9.479  0.00  0.00    -0.001 C 
ATOM     36  C   UNL     1       7.244  -6.945  10.433  0.00  0.00    -0.031 C 
ATOM     37  C   UNL     1       6.770  -8.291   9.880  0.00  0.00    -0.075 C 
ATOM     38  C   UNL     1       7.877  -7.152  11.810  0.00  0.00    +0.005 C 
ATOM     39  H   UNL     1       5.409  -7.429   8.630  0.00  0.00    -0.081 HD
ENDBRANCH  31  32
ENDBRANCH  28  31
ENDBRANCH  24  25
ENDBRANCH   3  24
TORSDOF 9
