REMARK  Name = ZINC29999231
REMARK  6 active torsions:
REMARK  status: ('A' for Active; 'I' for Inactive)
REMARK    1  A    between atoms: C_8  and  C_11
REMARK    2  A    between atoms: C_11  and  N_12
REMARK    3  A    between atoms: C_13  and  C_15
REMARK    4  A    between atoms: C_18  and  S_21
REMARK    5  A    between atoms: S_21  and  N_24
REMARK    6  A    between atoms: N_24  and  C_25
REMARK                            x       y       z     vdW  Elec       q    Type
REMARK                         _______ _______ _______ _____ _____    ______ ____
ROOT
ATOM      1  C   UNL     1       0.511  10.062   0.808  0.00  0.00    +0.037 A 
ATOM      2  C   UNL     1      -0.576  10.194   1.673  0.00  0.00    +0.015 A 
ATOM      3  C   UNL     1      -1.183  11.423   1.832  0.00  0.00    +0.029 A 
ATOM      4  C   UNL     1      -0.722  12.521   1.127  0.00  0.00    +0.109 A 
ATOM      5  C   UNL     1       0.352  12.396   0.263  0.00  0.00    +0.029 A 
ATOM      6  C   UNL     1       0.970  11.174   0.100  0.00  0.00    +0.015 A 
ENDROOT
BRANCH   1   8
ATOM      7  N   UNL     1       0.722   7.678   1.322  0.00  0.00    -0.308 N 
ATOM      8  C   UNL     1       1.168   8.749   0.637  0.00  0.00    +0.244 C 
ATOM      9  O   UNL     1       2.111   8.636  -0.122  0.00  0.00    -0.270 OA
ATOM     10  H   UNL     1      -0.131   7.780   2.008  0.00  0.00    +0.149 HD
BRANCH   7  11
ATOM     11  C   UNL     1       1.374   6.377   1.152  0.00  0.00    +0.149 C 
BRANCH  11  19
ATOM     12  C   UNL     1      -1.197   1.062   2.240  0.00  0.00    +0.000 A 
ATOM     13  C   UNL     1      -2.337   1.828   2.078  0.00  0.00    +0.004 A 
ATOM     14  C   UNL     1      -2.239   3.188   1.866  0.00  0.00    +0.046 A 
ATOM     15  C   UNL     1      -0.990   3.800   1.803  0.00  0.00    +0.124 A 
ATOM     16  C   UNL     1       0.148   3.020   1.970  0.00  0.00    -0.002 A 
ATOM     17  C   UNL     1       0.048   1.663   2.182  0.00  0.00    +0.007 A 
ATOM     18  C   UNL     1       1.342   3.950   1.877  0.00  0.00    +0.085 C 
ATOM     19  C   UNL     1       0.679   5.339   2.036  0.00  0.00    +0.195 C 
ATOM     20  O   UNL     1      -0.666   5.104   1.585  0.00  0.00    -0.487 OA
ENDBRANCH  11  19
ENDBRANCH   7  11
ENDBRANCH   1   8
BRANCH   4  21
ATOM     21  S   UNL     1      -1.507  14.086   1.329  0.00  0.00    +0.072 S 
ATOM     22  O   UNL     1      -2.242  14.017   2.543  0.00  0.00    -0.150 OA
ATOM     23  O   UNL     1      -0.512  15.073   1.096  0.00  0.00    -0.150 OA
BRANCH  21  24
ATOM     24  N   UNL     1      -2.619  14.237   0.111  0.00  0.00    -0.216 N 
ATOM     25  H   UNL     1      -2.507  15.032  -0.640  0.00  0.00    +0.174 HD
BRANCH  24  26
ATOM     26  C   UNL     1      -3.695  13.358   0.038  0.00  0.00    +0.051 A 
ATOM     27  C   UNL     1      -3.735  12.353  -0.928  0.00  0.00    +0.042 A 
ATOM     28  C   UNL     1      -4.817  11.499  -0.963  0.00  0.00    +0.084 A 
ATOM     29  N   UNL     1      -5.811  11.630  -0.104  0.00  0.00    -0.367 N 
ATOM     30  C   UNL     1      -5.813  12.571   0.821  0.00  0.00    +0.084 A 
ATOM     31  C   UNL     1      -4.766  13.462   0.927  0.00  0.00    +0.042 A 
ATOM     32  H   UNL     1      -6.669  10.944  -0.148  0.00  0.00    +0.165 HD
ENDBRANCH  24  26
ENDBRANCH  21  24
ENDBRANCH   4  21
TORSDOF 6
