REMARK  Name = ZINC25784117
REMARK  6 active torsions:
REMARK  status: ('A' for Active; 'I' for Inactive)
REMARK    1  A    between atoms: C_1  and  O_2
REMARK    2  A    between atoms: O_2  and  C_3
REMARK    3  A    between atoms: C_6  and  O_35
REMARK    4  A    between atoms: C_7  and  C_9
REMARK    5  A    between atoms: C_20  and  C_22
REMARK    6  A    between atoms: O_35  and  C_36
REMARK                            x       y       z     vdW  Elec       q    Type
REMARK                         _______ _______ _______ _____ _____    ______ ____
ROOT
ATOM      1  C   UNL     1       1.387  -4.132   2.207  0.00  0.00    +0.163 C 
ATOM      2  C   UNL     1       0.283  -4.619   3.120  0.00  0.00    +0.027 C 
ATOM      3  C   UNL     1      -0.632  -5.469   2.611  0.00  0.00    +0.083 C 
ATOM      4  C   UNL     1      -1.716  -5.931   3.516  0.00  0.00    +0.042 A 
ATOM      5  C   UNL     1      -2.504  -7.029   3.201  0.00  0.00    +0.013 A 
ATOM      6  C   UNL     1      -3.500  -7.426   4.073  0.00  0.00    +0.001 A 
ATOM      7  C   UNL     1      -3.710  -6.734   5.253  0.00  0.00    +0.004 A 
ATOM      8  C   UNL     1      -2.929  -5.639   5.574  0.00  0.00    +0.046 A 
ATOM      9  C   UNL     1      -1.929  -5.229   4.709  0.00  0.00    +0.131 A 
ATOM     10  O   UNL     1      -1.152  -4.153   4.995  0.00  0.00    -0.479 OA
ATOM     11  C   UNL     1       0.207  -4.182   4.554  0.00  0.00    +0.234 C 
ATOM     12  N   UNL     1      -0.572  -5.888   1.323  0.00  0.00    -0.213 NA
ATOM     13  C   UNL     1       0.350  -5.516   0.466  0.00  0.00    +0.237 C 
ATOM     14  N   UNL     1       1.351  -4.644   0.832  0.00  0.00    -0.208 N 
ATOM     15  N   UNL     1       2.148  -4.456  -0.300  0.00  0.00    -0.251 N 
ATOM     16  C   UNL     1       1.598  -5.215  -1.288  0.00  0.00    +0.203 C 
ATOM     17  N   UNL     1       0.554  -5.831  -0.832  0.00  0.00    -0.205 NA
ATOM     18  H   UNL     1       2.936  -3.896  -0.368  0.00  0.00    +0.171 HD
ENDROOT
BRANCH  11  19
ATOM     19  C   UNL     1       0.989  -5.144   5.410  0.00  0.00    -0.003 A 
ATOM     20  C   UNL     1       0.429  -6.354   5.778  0.00  0.00    +0.008 A 
ATOM     21  C   UNL     1       1.146  -7.237   6.563  0.00  0.00    +0.015 A 
ATOM     22  C   UNL     1       2.424  -6.910   6.981  0.00  0.00    +0.018 A 
ATOM     23  C   UNL     1       2.983  -5.700   6.613  0.00  0.00    +0.015 A 
ATOM     24  C   UNL     1       2.267  -4.819   5.824  0.00  0.00    +0.008 A 
ATOM     25 BR   UNL     1       3.405  -8.118   8.056  0.00  0.00    -0.050 Br
ENDBRANCH  11  19
BRANCH   1  30
ATOM     26  C   UNL     1       0.626  -0.619   1.042  0.00  0.00    +0.121 A 
ATOM     27  C   UNL     1       1.202   0.139   2.051  0.00  0.00    +0.049 A 
ATOM     28  C   UNL     1       1.837  -0.485   3.107  0.00  0.00    +0.049 A 
ATOM     29  C   UNL     1       1.897  -1.870   3.159  0.00  0.00    +0.126 A 
ATOM     30  C   UNL     1       1.321  -2.628   2.151  0.00  0.00    +0.024 A 
ATOM     31  C   UNL     1       0.682  -2.003   1.097  0.00  0.00    +0.055 A 
BRANCH  26  33
ATOM     32  C   UNL     1      -0.017   1.425   0.010  0.00  0.00    +0.277 C 
ATOM     33  O   UNL     1       0.002  -0.004   0.002  0.00  0.00    -0.495 OA
ENDBRANCH  26  33
BRANCH  29  34
ATOM     34  O   UNL     1       2.522  -2.485   4.199  0.00  0.00    -0.495 OA
ATOM     35  C   UNL     1       3.094  -1.642   5.202  0.00  0.00    +0.277 C 
ENDBRANCH  29  34
ENDBRANCH   1  30
TORSDOF 4
