REMARK  Name = ZINC39994207
REMARK  9 active torsions:
REMARK  status: ('A' for Active; 'I' for Inactive)
REMARK    1  A    between atoms: C_1  and  C_2
REMARK    2  A    between atoms: C_7  and  N_8
REMARK    3  A    between atoms: C_9  and  C_11
REMARK    4  A    between atoms: C_11  and  C_38
REMARK    5  A    between atoms: C_12  and  C_13
REMARK    6  A    between atoms: C_14  and  N_25
REMARK    7  A    between atoms: C_17  and  C_24
REMARK    8  A    between atoms: C_28  and  C_31
REMARK    9  A    between atoms: C_31  and  C_32
REMARK                            x       y       z     vdW  Elec       q    Type
REMARK                         _______ _______ _______ _____ _____    ______ ____
ROOT
ATOM      1  C   UNL     1      -0.307   0.414   7.021  0.00  0.00    +0.081 A 
ATOM      2  C   UNL     1      -0.318  -0.121   8.334  0.00  0.00    +0.136 A 
ATOM      3  N   UNL     1      -0.292   0.700   9.373  0.00  0.00    -0.213 NA
ATOM      4  C   UNL     1      -0.256   2.025   9.218  0.00  0.00    +0.145 A 
ATOM      5  C   UNL     1      -0.229   2.845  10.361  0.00  0.00    -0.007 A 
ATOM      6  C   UNL     1      -0.191   4.200  10.215  0.00  0.00    +0.008 A 
ATOM      7  C   UNL     1      -0.179   4.757   8.930  0.00  0.00    +0.019 A 
ATOM      8  C   UNL     1      -0.205   3.954   7.843  0.00  0.00    +0.096 A 
ATOM      9  N   UNL     1      -0.242   2.598   7.978  0.00  0.00    -0.267 N 
ATOM     10  C   UNL     1      -0.262   1.825   6.870  0.00  0.00    +0.267 A 
ATOM     11  O   UNL     1      -0.246   2.330   5.762  0.00  0.00    -0.267 OA
ATOM     12  C   UNL     1      -0.243   2.229  11.736  0.00  0.00    +0.047 C 
ENDROOT
BRANCH   2  13
ATOM     13  N   UNL     1      -0.357  -1.482   8.528  0.00  0.00    -0.315 N 
ATOM     14  C   UNL     1       0.447  -2.381   7.689  0.00  0.00    +0.107 C 
ATOM     15  C   UNL     1       1.295  -3.277   8.597  0.00  0.00    +0.023 C 
ATOM     16  C   UNL     1       0.381  -3.997   9.592  0.00  0.00    -0.004 C 
ATOM     17  C   UNL     1      -0.337  -2.966  10.466  0.00  0.00    +0.023 C 
ATOM     18  C   UNL     1      -1.198  -2.065   9.582  0.00  0.00    +0.107 C 
BRANCH  16  19
ATOM     19  C   UNL     1       1.220  -4.920  10.479  0.00  0.00    +0.038 C 
BRANCH  19  20
ATOM     20  C   UNL     1       0.310  -5.719  11.375  0.00  0.00    -0.047 A 
ATOM     21  C   UNL     1      -0.047  -5.224  12.616  0.00  0.00    +0.003 A 
ATOM     22  C   UNL     1      -0.882  -5.957  13.438  0.00  0.00    +0.000 A 
ATOM     23  C   UNL     1      -1.361  -7.185  13.020  0.00  0.00    +0.000 A 
ATOM     24  C   UNL     1      -1.005  -7.679  11.779  0.00  0.00    +0.000 A 
ATOM     25  C   UNL     1      -0.173  -6.944  10.955  0.00  0.00    +0.003 A 
ENDBRANCH  19  20
ENDBRANCH  16  19
ENDBRANCH   2  13
BRANCH   1  27
ATOM     26  C   UNL     1       0.704  -0.392   4.975  0.00  0.00    +0.114 C 
ATOM     27  C   UNL     1      -0.333  -0.430   5.897  0.00  0.00    +0.040 C 
BRANCH  26  29
ATOM     28  N   UNL     1       1.618  -1.131   2.840  0.00  0.00    -0.281 N 
ATOM     29  C   UNL     1       0.612  -1.168   3.735  0.00  0.00    +0.259 C 
ATOM     30  O   UNL     1      -0.374  -1.847   3.514  0.00  0.00    -0.269 OA
ATOM     31  H   UNL     1       2.434  -0.649   3.047  0.00  0.00    +0.155 HD
BRANCH  28  38
ATOM     32  C   UNL     1       2.862   0.029   0.558  0.00  0.00    +0.045 C 
ATOM     33  C   UNL     1       2.078  -1.255   0.472  0.00  0.00    -0.029 A 
ATOM     34  C   UNL     1       1.950  -1.908  -0.738  0.00  0.00    +0.005 A 
ATOM     35  C   UNL     1       1.231  -3.086  -0.818  0.00  0.00    +0.000 A 
ATOM     36  C   UNL     1       0.636  -3.614   0.314  0.00  0.00    +0.002 A 
ATOM     37  C   UNL     1       0.760  -2.967   1.527  0.00  0.00    +0.023 A 
ATOM     38  C   UNL     1       1.487  -1.786   1.611  0.00  0.00    +0.037 A 
ENDBRANCH  28  38
ENDBRANCH  26  29
BRANCH  26  39
ATOM     39  C   UNL     1       1.864   0.407   5.235  0.00  0.00    +0.104 C 
ATOM     40  N   UNL     1       2.784   1.041   5.441  0.00  0.00    -0.191 NA
ENDBRANCH  26  39
ENDBRANCH   1  27
TORSDOF 7
