REMARK  Name = ZINC39266765
REMARK  14 active torsions:
REMARK  status: ('A' for Active; 'I' for Inactive)
REMARK    1  A    between atoms: C_1  and  N_2
REMARK    2  A    between atoms: N_2  and  C_3
REMARK    3  A    between atoms: N_2  and  C_4
REMARK    4  A    between atoms: C_4  and  C_5
REMARK    5  A    between atoms: C_5  and  N_6
REMARK    6  A    between atoms: N_6  and  C_7
REMARK    7  A    between atoms: C_7  and  C_8
REMARK    8  A    between atoms: C_14  and  C_16
REMARK    9  A    between atoms: C_16  and  C_17
REMARK   10  A    between atoms: C_17  and  N_18
REMARK   11  A    between atoms: N_18  and  C_19
REMARK   12  A    between atoms: N_18  and  S_25
REMARK   13  A    between atoms: C_19  and  C_20
REMARK   14  A    between atoms: S_25  and  C_28
REMARK                            x       y       z     vdW  Elec       q    Type
REMARK                         _______ _______ _______ _____ _____    ______ ____
ROOT
ATOM      1  N   UNL     1      -1.819  -4.656   3.644  0.00  0.00    -0.169 NA
ENDROOT
BRANCH   1   2
ATOM      2  S   UNL     1      -3.380  -4.688   4.196  0.00  0.00    +0.063 S 
ATOM      3  O   UNL     1      -3.660  -6.036   4.546  0.00  0.00    -0.153 OA
ATOM      4  O   UNL     1      -3.506  -3.618   5.123  0.00  0.00    -0.153 OA
BRANCH   2   5
ATOM      5  C   UNL     1      -4.423  -4.296   2.831  0.00  0.00    +0.134 A 
ATOM      6  C   UNL     1      -5.309  -5.211   2.373  0.00  0.00    +0.031 A 
ATOM      7  C   UNL     1      -6.151  -4.935   1.295  0.00  0.00    +0.004 A 
ATOM      8  C   UNL     1      -6.117  -3.740   0.660  0.00  0.00    +0.031 A 
ATOM      9  C   UNL     1      -5.213  -2.731   1.086  0.00  0.00    +0.102 A 
ATOM     10  C   UNL     1      -4.337  -3.017   2.217  0.00  0.00    +0.126 A 
ATOM     11  N   UNL     1      -3.536  -1.998   2.531  0.00  0.00    -0.189 NA
ATOM     12  S   UNL     1      -3.894  -0.827   1.488  0.00  0.00    +0.117 S 
ATOM     13  N   UNL     1      -5.041  -1.506   0.587  0.00  0.00    -0.191 NA
ENDBRANCH   2   5
ENDBRANCH   1   2
BRANCH   1  14
ATOM     14  C   UNL     1      -1.067  -3.399   3.648  0.00  0.00    +0.119 C 
BRANCH  14  15
ATOM     15  C   UNL     1      -0.779  -2.973   2.207  0.00  0.00    +0.113 C 
BRANCH  15  17
ATOM     16  N   UNL     1       0.223  -1.036   1.040  0.00  0.00    -0.299 N 
ATOM     17  C   UNL     1      -0.123  -1.616   2.206  0.00  0.00    +0.217 C 
ATOM     18  O   UNL     1       0.093  -1.046   3.255  0.00  0.00    -0.276 OA
BRANCH  16  19
ATOM     19  C   UNL     1      -0.038  -1.724  -0.227  0.00  0.00    +0.089 C 
BRANCH  19  20
ATOM     20  C   UNL     1       1.169  -2.591  -0.594  0.00  0.00    -0.060 C 
BRANCH  20  22
ATOM     21  C   UNL     1       0.795  -2.292  -2.945  0.00  0.00    -0.097 C 
ATOM     22  N   UNL     1       0.907  -3.281  -1.864  0.00  0.00    +0.377 N 
ATOM     23  C   UNL     1       2.012  -4.203  -2.157  0.00  0.00    -0.097 C 
ATOM     24  H   UNL     1       0.045  -3.801  -1.793  0.00  0.00    -0.083 HD
ENDBRANCH  20  22
ENDBRANCH  19  20
ENDBRANCH  16  19
BRANCH  16  25
ATOM     25  C   UNL     1       0.861   0.283   1.039  0.00  0.00    +0.142 C 
BRANCH  25  26
ATOM     26  C   UNL     1      -0.199   1.353   0.966  0.00  0.00    -0.030 A 
ATOM     27  C   UNL     1      -0.634   1.812  -0.263  0.00  0.00    +0.005 A 
ATOM     28  C   UNL     1      -1.605   2.793  -0.330  0.00  0.00    +0.000 A 
ATOM     29  C   UNL     1      -2.142   3.315   0.833  0.00  0.00    +0.000 A 
ATOM     30  C   UNL     1      -1.707   2.855   2.062  0.00  0.00    +0.000 A 
ATOM     31  C   UNL     1      -0.739   1.871   2.128  0.00  0.00    +0.005 A 
ENDBRANCH  25  26
ENDBRANCH  16  25
ENDBRANCH  15  17
ENDBRANCH  14  15
ENDBRANCH   1  14
BRANCH   1  32
ATOM     32  C   UNL     1      -1.191  -5.885   3.153  0.00  0.00    +0.183 C 
BRANCH  32  33
ATOM     33  C   UNL     1      -0.404  -6.527   4.267  0.00  0.00    +0.120 A 
ATOM     34  C   UNL     1      -0.875  -7.435   5.140  0.00  0.00    +0.046 A 
ATOM     35  C   UNL     1       0.194  -7.764   6.005  0.00  0.00    +0.041 A 
ATOM     36  C   UNL     1       1.254  -7.036   5.609  0.00  0.00    +0.195 A 
ATOM     37  O   UNL     1       0.887  -6.293   4.552  0.00  0.00    -0.466 OA
ENDBRANCH  32  33
ENDBRANCH   1  32
TORSDOF 12
