REMARK  Name = ZINC04475146
REMARK  5 active torsions:
REMARK  status: ('A' for Active; 'I' for Inactive)
REMARK    1  A    between atoms: C_6  and  C_7
REMARK    2  A    between atoms: C_7  and  C_29
REMARK    3  A    between atoms: N_11  and  C_14
REMARK    4  A    between atoms: C_14  and  C_15
REMARK    5  A    between atoms: C_15  and  N_16
REMARK                            x       y       z     vdW  Elec       q    Type
REMARK                         _______ _______ _______ _____ _____    ______ ____
ROOT
ATOM      1  C   UNL     1      -1.270  -0.765   0.011  0.00  0.00    -0.012 C 
ATOM      2  C   UNL     1      -1.604  -1.523  -1.041  0.00  0.00    -0.065 C 
ATOM      3  C   UNL     1      -0.698  -1.628  -2.250  0.00  0.00    +0.013 C 
ATOM      4  C   UNL     1      -1.551  -1.413  -3.506  0.00  0.00    -0.074 C 
ATOM      5  N   UNL     1      -2.675  -2.357  -3.502  0.00  0.00    +0.381 N 
ATOM      6  C   UNL     1      -3.596  -2.043  -2.403  0.00  0.00    -0.074 C 
ATOM      7  C   UNL     1      -2.897  -2.312  -1.060  0.00  0.00    +0.013 C 
ATOM      8  H   UNL     1      -2.323  -3.295  -3.387  0.00  0.00    -0.082 HD
ENDROOT
BRANCH   1  14
ATOM      9  C   UNL     1      -0.017   1.390   0.010  0.00  0.00    +0.011 A 
ATOM     10  C   UNL     1       1.170   2.094   0.002  0.00  0.00    +0.039 A 
ATOM     11  C   UNL     1       2.379   1.417  -0.013  0.00  0.00    +0.123 A 
ATOM     12  C   UNL     1       2.402   0.032  -0.021  0.00  0.00    +0.039 A 
ATOM     13  C   UNL     1       1.221  -0.680  -0.013  0.00  0.00    +0.011 A 
ATOM     14  C   UNL     1       0.002  -0.004   0.002  0.00  0.00    -0.017 A 
ATOM     15  F   UNL     1       3.538   2.111  -0.021  0.00  0.00    -0.205 F 
ENDBRANCH   1  14
BRANCH   1  16
ATOM     16  C   UNL     1      -2.174  -0.686   1.184  0.00  0.00    -0.017 A 
ATOM     17  C   UNL     1      -3.441  -0.119   1.054  0.00  0.00    +0.011 A 
ATOM     18  C   UNL     1      -4.278  -0.048   2.148  0.00  0.00    +0.039 A 
ATOM     19  C   UNL     1      -3.861  -0.539   3.375  0.00  0.00    +0.123 A 
ATOM     20  C   UNL     1      -2.603  -1.103   3.509  0.00  0.00    +0.039 A 
ATOM     21  C   UNL     1      -1.761  -1.184   2.419  0.00  0.00    +0.011 A 
ATOM     22  F   UNL     1      -4.684  -0.468   4.444  0.00  0.00    -0.205 F 
ENDBRANCH   1  16
BRANCH   5  23
ATOM     23  C   UNL     1      -3.393  -2.263  -4.781  0.00  0.00    -0.059 C 
BRANCH  23  24
ATOM     24  C   UNL     1      -4.488  -3.331  -4.830  0.00  0.00    +0.097 C 
BRANCH  24  25
ATOM     25  N   UNL     1      -5.204  -3.238  -6.104  0.00  0.00    -0.253 N 
ATOM     26  C   UNL     1      -6.284  -2.437  -6.205  0.00  0.00    +0.234 C 
ATOM     27  O   UNL     1      -6.743  -1.905  -5.217  0.00  0.00    -0.274 OA
ATOM     28  C   UNL     1      -6.914  -2.207  -7.546  0.00  0.00    +0.144 C 
ATOM     29  C   UNL     1      -8.400  -2.052  -7.455  0.00  0.00    -0.008 C 
ATOM     30  C   UNL     1      -9.199  -2.509  -8.420  0.00  0.00    -0.003 C 
ATOM     31  C   UNL     1      -8.684  -3.183  -9.551  0.00  0.00    +0.001 C 
ATOM     32  C   UNL     1      -7.389  -3.592  -9.586  0.00  0.00    +0.022 C 
ATOM     33  C   UNL     1      -6.561  -3.317  -8.492  0.00  0.00    +0.049 C 
ATOM     34  N   UNL     1      -5.500  -4.063  -8.278  0.00  0.00    -0.196 NA
ATOM     35  C   UNL     1      -4.774  -3.948  -7.161  0.00  0.00    +0.163 C 
ATOM     36  S   UNL     1      -3.254  -4.731  -7.072  0.00  0.00    -0.016 S 
ENDBRANCH  24  25
ENDBRANCH  23  24
ENDBRANCH   5  23
TORSDOF 5
