REMARK  Name = ZINC03167613
REMARK  7 active torsions:
REMARK  status: ('A' for Active; 'I' for Inactive)
REMARK    1  A    between atoms: C_4  and  C_7
REMARK    2  A    between atoms: P_9  and  N_20
REMARK    3  A    between atoms: C_12  and  C_14
REMARK    4  A    between atoms: N_20  and  C_21
REMARK    5  A    between atoms: C_21  and  C_22
REMARK    6  A    between atoms: C_22  and  C_24
REMARK    7  A    between atoms: C_22  and  N_63
REMARK                            x       y       z     vdW  Elec       q    Type
REMARK                         _______ _______ _______ _____ _____    ______ ____
ROOT
ATOM      1  C   UNL     1       3.304   0.116   1.375  0.00  0.00    +0.140 C 
ATOM      2  C   UNL     1       2.333   0.998   1.636  0.00  0.00    +0.106 C 
ATOM      3  P   UNL     1       1.465   1.687   0.182  0.00  0.00    +0.199 P 
ATOM      4  O   UNL     1       1.373   3.160   0.290  0.00  0.00    -0.295 OA
ATOM      5  C   UNL     1       2.486   1.219  -1.260  0.00  0.00    +0.106 C 
ATOM      6  C   UNL     1       3.432   0.296  -1.031  0.00  0.00    +0.140 C 
ATOM      7  O   UNL     1       3.651  -0.286   0.150  0.00  0.00    -0.454 OA
ENDROOT
BRANCH   1  11
ATOM      8  C   UNL     1       5.431  -1.519   4.670  0.00  0.00    +0.000 A 
ATOM      9  C   UNL     1       5.755  -1.905   3.382  0.00  0.00    +0.001 A 
ATOM     10  C   UNL     1       5.068  -1.377   2.308  0.00  0.00    +0.011 A 
ATOM     11  C   UNL     1       4.045  -0.454   2.523  0.00  0.00    +0.017 A 
ATOM     12  C   UNL     1       3.728  -0.064   3.824  0.00  0.00    +0.011 A 
ATOM     13  C   UNL     1       4.418  -0.603   4.890  0.00  0.00    +0.001 A 
ENDBRANCH   1  11
BRANCH   6  14
ATOM     14  C   UNL     1       4.294  -0.102  -2.167  0.00  0.00    +0.017 A 
ATOM     15  C   UNL     1       4.105   0.472  -3.424  0.00  0.00    +0.011 A 
ATOM     16  C   UNL     1       4.915   0.101  -4.477  0.00  0.00    +0.001 A 
ATOM     17  C   UNL     1       5.907  -0.846  -4.291  0.00  0.00    +0.000 A 
ATOM     18  C   UNL     1       6.096  -1.422  -3.048  0.00  0.00    +0.001 A 
ATOM     19  C   UNL     1       5.295  -1.056  -1.985  0.00  0.00    +0.011 A 
ENDBRANCH   6  14
BRANCH   3  20
ATOM     20  N   UNL     1      -0.073   1.016   0.050  0.00  0.00    -0.262 NA
ATOM     21  H   UNL     1      -0.029   0.008   0.041  0.00  0.00    +0.130 HD
BRANCH  20  22
ATOM     22  C   UNL     1      -0.768   1.524  -1.140  0.00  0.00    +0.078 C 
BRANCH  22  23
ATOM     23  C   UNL     1      -1.466   0.365  -1.856  0.00  0.00    -0.023 C 
BRANCH  23  24
ATOM     24  C   UNL     1      -0.432  -0.604  -2.369  0.00  0.00    -0.060 A 
ATOM     25  C   UNL     1       0.243  -0.336  -3.546  0.00  0.00    +0.005 A 
ATOM     26  C   UNL     1       1.195  -1.221  -4.014  0.00  0.00    +0.038 A 
ATOM     27  C   UNL     1       1.464  -2.383  -3.311  0.00  0.00    +0.123 A 
ATOM     28  C   UNL     1       0.784  -2.653  -2.136  0.00  0.00    +0.038 A 
ATOM     29  C   UNL     1      -0.163  -1.763  -1.666  0.00  0.00    +0.005 A 
ATOM     30  F   UNL     1       2.390  -3.252  -3.771  0.00  0.00    -0.205 F 
ENDBRANCH  23  24
BRANCH  23  36
ATOM     31  C   UNL     1      -3.151   1.963  -2.545  0.00  0.00    -0.049 C 
ATOM     32  C   UNL     1      -3.903   2.517  -3.758  0.00  0.00    +0.141 C 
ATOM     33  O   UNL     1      -4.605   1.452  -4.405  0.00  0.00    -0.383 OA
ATOM     34  C   UNL     1      -3.757   0.388  -4.846  0.00  0.00    +0.141 C 
ATOM     35  C   UNL     1      -3.004  -0.188  -3.644  0.00  0.00    -0.049 C 
ATOM     36  N   UNL     1      -2.233   0.898  -3.003  0.00  0.00    +0.388 N 
ATOM     37  H   UNL     1      -1.579   1.293  -3.688  0.00  0.00    -0.081 HD
ENDBRANCH  23  36
ENDBRANCH  22  23
ENDBRANCH  20  22
ENDBRANCH   3  20
TORSDOF 7
