REMARK  Name = ZINC04999296
REMARK  5 active torsions:
REMARK  status: ('A' for Active; 'I' for Inactive)
REMARK    1  A    between atoms: C_1  and  C_2
REMARK    2  A    between atoms: C_3  and  C_20
REMARK    3  A    between atoms: C_7  and  C_13
REMARK    4  A    between atoms: C_10  and  C_12
REMARK    5  A    between atoms: C_18  and  O_19
REMARK                            x       y       z     vdW  Elec       q    Type
REMARK                         _______ _______ _______ _____ _____    ______ ____
ROOT
ATOM      1  C   UNL     1       1.631   3.276   0.000  0.00  0.00    +0.068 C 
ATOM      2  C   UNL     1       1.217   1.827   0.000  0.00  0.00    +0.070 A 
ATOM      3  C   UNL     1       2.092   0.721  -0.010  0.00  0.00    +0.049 A 
ATOM      4  C   UNL     1       1.311  -0.415  -0.004  0.00  0.00    +0.160 A 
ATOM      5  N   UNL     1       0.002  -0.004   0.002  0.00  0.00    -0.238 N 
ATOM      6  N   UNL     1      -0.017   1.385   0.010  0.00  0.00    -0.173 NA
ATOM      7  C   UNL     1      -1.109  -0.961  -0.007  0.00  0.00    +0.148 C 
ATOM      8  C   UNL     1      -0.643  -2.234   0.709  0.00  0.00    +0.082 C 
ATOM      9  C   UNL     1       0.755  -2.608   0.308  0.00  0.00    +0.021 C 
ATOM     10  N   UNL     1       1.656  -1.731   0.004  0.00  0.00    -0.237 NA
ATOM     11  C   UNL     1       1.124  -4.069   0.259  0.00  0.00    +0.061 C 
ENDROOT
BRANCH   7  12
ATOM     12  C   UNL     1      -1.490  -1.286  -1.429  0.00  0.00    +0.019 A 
ATOM     13  C   UNL     1      -0.560  -1.845  -2.283  0.00  0.00    +0.009 A 
ATOM     14  C   UNL     1      -0.910  -2.147  -3.586  0.00  0.00    +0.001 A 
ATOM     15  C   UNL     1      -2.189  -1.881  -4.040  0.00  0.00    +0.004 A 
ATOM     16  C   UNL     1      -3.121  -1.316  -3.191  0.00  0.00    +0.046 A 
ATOM     17  C   UNL     1      -2.773  -1.017  -1.882  0.00  0.00    +0.122 A 
BRANCH  17  18
ATOM     18  O   UNL     1      -3.688  -0.461  -1.044  0.00  0.00    -0.506 OA
ATOM     19  H   UNL     1      -3.695   0.506  -1.055  0.00  0.00    +0.292 HD
ENDBRANCH  17  18
ENDBRANCH   7  12
BRANCH   3  20
ATOM     20  C   UNL     1       3.573   0.771  -0.025  0.00  0.00    -0.013 A 
ATOM     21  C   UNL     1       4.301   0.289   1.063  0.00  0.00    +0.009 A 
ATOM     22  C   UNL     1       5.680   0.334   1.041  0.00  0.00    +0.001 A 
ATOM     23  C   UNL     1       6.340   0.865  -0.052  0.00  0.00    +0.000 A 
ATOM     24  C   UNL     1       5.624   1.350  -1.132  0.00  0.00    +0.001 A 
ATOM     25  C   UNL     1       4.245   1.306  -1.124  0.00  0.00    +0.009 A 
ENDBRANCH   3  20
TORSDOF 3
