REMARK  Name = ZINC13352189
REMARK  12 active torsions:
REMARK  status: ('A' for Active; 'I' for Inactive)
REMARK    1  A    between atoms: C_1  and  C_2
REMARK    2  A    between atoms: C_5  and  S_8
REMARK    3  A    between atoms: S_8  and  N_11
REMARK    4  A    between atoms: N_11  and  C_12
REMARK    5  A    between atoms: N_11  and  C_13
REMARK    6  A    between atoms: C_13  and  C_14
REMARK    7  A    between atoms: C_17  and  C_20
REMARK    8  A    between atoms: N_22  and  N_23
REMARK    9  A    between atoms: C_24  and  C_25
REMARK   10  A    between atoms: C_28  and  O_31
REMARK   11  A    between atoms: O_31  and  C_32
REMARK   12  A    between atoms: C_32  and  C_33
REMARK                            x       y       z     vdW  Elec       q    Type
REMARK                         _______ _______ _______ _____ _____    ______ ____
ROOT
ATOM      1  C   UNL     1       1.170   2.086   0.002  0.00  0.00    -0.032 A 
ATOM      2  C   UNL     1      -0.017   1.375   0.010  0.00  0.00    +0.006 A 
ATOM      3  C   UNL     1       0.002  -0.004   0.002  0.00  0.00    +0.013 A 
ATOM      4  C   UNL     1       1.222  -0.682  -0.013  0.00  0.00    +0.038 A 
ATOM      5  C   UNL     1       2.416   0.041  -0.021  0.00  0.00    +0.013 A 
ATOM      6  C   UNL     1       2.383   1.420  -0.013  0.00  0.00    +0.006 A 
ENDROOT
BRANCH   4   7
ATOM      7  C   UNL     1       1.250  -2.160  -0.021  0.00  0.00    +0.263 C 
ATOM      8  O   UNL     1       0.208  -2.788  -0.014  0.00  0.00    -0.268 OA
ATOM      9  N   UNL     1       2.429  -2.812  -0.036  0.00  0.00    -0.203 N 
ATOM     10  H   UNL     1       3.260  -2.311  -0.041  0.00  0.00    +0.178 HD
BRANCH   9  11
ATOM     11  N   UNL     1       2.456  -4.213  -0.043  0.00  0.00    -0.187 NA
ATOM     12  C   UNL     1       3.592  -4.840  -0.057  0.00  0.00    +0.138 C 
BRANCH  12  13
ATOM     13  C   UNL     1       3.619  -6.314  -0.065  0.00  0.00    -0.005 A 
ATOM     14  C   UNL     1       2.424  -7.038  -0.051  0.00  0.00    +0.013 A 
ATOM     15  C   UNL     1       2.455  -8.415  -0.063  0.00  0.00    +0.046 A 
ATOM     16  C   UNL     1       3.671  -9.085  -0.079  0.00  0.00    +0.121 A 
ATOM     17  C   UNL     1       4.862  -8.370  -0.087  0.00  0.00    +0.046 A 
ATOM     18  C   UNL     1       4.841  -6.992  -0.081  0.00  0.00    +0.013 A 
BRANCH  16  19
ATOM     19  O   UNL     1       3.697 -10.443  -0.085  0.00  0.00    -0.481 OA
BRANCH  19  20
ATOM     20  C   UNL     1       2.436 -11.116  -0.076  0.00  0.00    +0.353 C 
BRANCH  20  21
ATOM     21  C   UNL     1       2.662 -12.606  -0.085  0.00  0.00    +0.393 C 
ATOM     22  O   UNL     1       3.786 -13.046  -0.098  0.00  0.00    -0.243 OA
ATOM     23  O   UNL     1       1.613 -13.443  -0.079  0.00  0.00    -0.243 OA
ENDBRANCH  20  21
ENDBRANCH  19  20
ENDBRANCH  16  19
ENDBRANCH  12  13
ENDBRANCH   9  11
ENDBRANCH   4   7
BRANCH   1  24
ATOM     24  C   UNL     1       1.142   3.593   0.010  0.00  0.00    +0.144 C 
BRANCH  24  25
ATOM     25  N   UNL     1       1.146   4.074   1.394  0.00  0.00    -0.175 NA
ATOM     26  C   UNL     1      -0.114   4.187   2.134  0.00  0.00    +0.132 C 
BRANCH  25  27
ATOM     27  S   UNL     1       2.574   4.491   2.122  0.00  0.00    +0.061 S 
ATOM     28  O   UNL     1       2.367   4.367   3.522  0.00  0.00    -0.153 OA
ATOM     29  O   UNL     1       3.600   3.785   1.438  0.00  0.00    -0.153 OA
BRANCH  27  34
ATOM     30  C   UNL     1       3.491  10.353   1.025  0.00  0.00    +0.044 C 
ATOM     31  C   UNL     1       3.262   8.889   1.299  0.00  0.00    -0.050 A 
ATOM     32  C   UNL     1       2.564   8.498   2.426  0.00  0.00    +0.005 A 
ATOM     33  C   UNL     1       2.354   7.155   2.677  0.00  0.00    +0.029 A 
ATOM     34  C   UNL     1       2.841   6.203   1.801  0.00  0.00    +0.105 A 
ATOM     35  C   UNL     1       3.544   6.594   0.677  0.00  0.00    +0.029 A 
ATOM     36  C   UNL     1       3.750   7.937   0.423  0.00  0.00    +0.005 A 
ENDBRANCH  27  34
ENDBRANCH  25  27
ENDBRANCH  24  25
ENDBRANCH   1  24
TORSDOF 10
