REMARK  Name = ZINC06078907
REMARK  9 active torsions:
REMARK  status: ('A' for Active; 'I' for Inactive)
REMARK    1  A    between atoms: C_1  and  C_2
REMARK    2  A    between atoms: C_5  and  S_8
REMARK    3  A    between atoms: S_8  and  N_11
REMARK    4  A    between atoms: N_11  and  C_12
REMARK    5  A    between atoms: N_11  and  C_22
REMARK    6  A    between atoms: C_12  and  C_13
REMARK    7  A    between atoms: C_13  and  C_15
REMARK    8  A    between atoms: C_13  and  O_21
REMARK    9  A    between atoms: C_15  and  N_59
REMARK                            x       y       z     vdW  Elec       q    Type
REMARK                         _______ _______ _______ _____ _____    ______ ____
ROOT
ATOM      1  N   UNL     1      -2.490   5.244   0.065  0.00  0.00    -0.200 N 
ENDROOT
BRANCH   1   2
ATOM      2  C   UNL     1      -2.488   3.851   0.075  0.00  0.00    +0.059 A 
ATOM      3  C   UNL     1      -3.677   3.153   0.068  0.00  0.00    +0.025 A 
ATOM      4  C   UNL     1      -3.685   1.762   0.078  0.00  0.00    +0.002 A 
ATOM      5  C   UNL     1      -2.523   1.052   0.085  0.00  0.00    +0.008 A 
ATOM      6  C   UNL     1      -1.290   1.725   0.083  0.00  0.00    -0.016 A 
ATOM      7  C   UNL     1      -1.268   3.141   0.077  0.00  0.00    +0.005 A 
ATOM      8  C   UNL     1      -0.035   3.812   0.069  0.00  0.00    +0.010 A 
ATOM      9  C   UNL     1       1.123   3.095   0.070  0.00  0.00    +0.001 A 
ATOM     10  C   UNL     1       1.103   1.701   0.081  0.00  0.00    +0.001 A 
ATOM     11  C   UNL     1      -0.074   1.018   0.089  0.00  0.00    +0.008 A 
ENDBRANCH   1   2
BRANCH   1  12
ATOM     12  S   UNL     1      -2.371   6.062  -1.370  0.00  0.00    +0.075 S 
ATOM     13  O   UNL     1      -1.847   7.347  -1.063  0.00  0.00    -0.150 OA
ATOM     14  O   UNL     1      -1.738   5.181  -2.288  0.00  0.00    -0.150 OA
BRANCH  12  19
ATOM     15  C   UNL     1      -7.985   6.929  -3.403  0.00  0.00    +0.044 C 
ATOM     16  C   UNL     1      -6.582   6.713  -2.896  0.00  0.00    -0.050 A 
ATOM     17  C   UNL     1      -5.992   7.654  -2.073  0.00  0.00    +0.005 A 
ATOM     18  C   UNL     1      -4.706   7.455  -1.607  0.00  0.00    +0.029 A 
ATOM     19  C   UNL     1      -4.010   6.315  -1.964  0.00  0.00    +0.109 A 
ATOM     20  C   UNL     1      -4.599   5.376  -2.790  0.00  0.00    +0.029 A 
ATOM     21  C   UNL     1      -5.887   5.573  -3.252  0.00  0.00    +0.005 A 
ENDBRANCH  12  19
ENDBRANCH   1  12
BRANCH   1  22
ATOM     22  C   UNL     1      -2.599   5.986   1.324  0.00  0.00    +0.161 C 
BRANCH  22  23
ATOM     23  C   UNL     1      -1.210   6.139   1.947  0.00  0.00    +0.117 C 
BRANCH  23  24
ATOM     24  O   UNL     1      -0.657   4.846   2.202  0.00  0.00    -0.392 OA
ATOM     25  H   UNL     1      -1.183   4.306   2.807  0.00  0.00    +0.210 HD
ENDBRANCH  23  24
BRANCH  23  26
ATOM     26  C   UNL     1      -1.323   6.914   3.262  0.00  0.00    -0.045 C 
BRANCH  26  32
ATOM     27  C   UNL     1      -0.081   7.381   5.288  0.00  0.00    -0.050 C 
ATOM     28  C   UNL     1       1.330   7.478   5.875  0.00  0.00    +0.141 C 
ATOM     29  O   UNL     1       2.073   8.466   5.156  0.00  0.00    -0.383 OA
ATOM     30  C   UNL     1       2.184   8.196   3.756  0.00  0.00    +0.141 C 
ATOM     31  C   UNL     1       0.782   8.106   3.147  0.00  0.00    -0.050 C 
ATOM     32  N   UNL     1       0.026   7.049   3.852  0.00  0.00    +0.384 N 
ATOM     33  H   UNL     1       0.525   6.157   3.751  0.00  0.00    -0.082 HD
ENDBRANCH  26  32
ENDBRANCH  23  26
ENDBRANCH  22  23
ENDBRANCH   1  22
TORSDOF 8
