REMARK  Name = ZINC00818733
REMARK  6 active torsions:
REMARK  status: ('A' for Active; 'I' for Inactive)
REMARK    1  A    between atoms: C_1  and  C_2
REMARK    2  A    between atoms: C_9  and  N_32
REMARK    3  A    between atoms: C_10  and  C_30
REMARK    4  A    between atoms: C_11  and  C_13
REMARK    5  A    between atoms: N_15  and  C_22
REMARK    6  A    between atoms: C_22  and  C_23
REMARK                            x       y       z     vdW  Elec       q    Type
REMARK                         _______ _______ _______ _____ _____    ______ ____
ROOT
ATOM      1  C   UNL     1       2.539   3.639  -0.002  0.00  0.00    -0.009 A 
ATOM      2  C   UNL     1       3.301   2.534  -0.015  0.00  0.00    +0.091 A 
ATOM      3  N   UNL     1       2.507   1.420  -0.014  0.00  0.00    -0.342 N 
ATOM      4  C   UNL     1       1.181   1.790   0.000  0.00  0.00    +0.050 A 
ATOM      5  C   UNL     1       1.143   3.196   0.008  0.00  0.00    +0.004 A 
ATOM      6  C   UNL     1      -0.085   3.860   0.024  0.00  0.00    +0.010 A 
ATOM      7  C   UNL     1      -1.246   3.138   0.031  0.00  0.00    +0.001 A 
ATOM      8  C   UNL     1      -1.214   1.751   0.017  0.00  0.00    +0.002 A 
ATOM      9  C   UNL     1      -0.013   1.076   0.008  0.00  0.00    +0.026 A 
ENDROOT
BRANCH   1  20
ATOM     10  C   UNL     1       2.142   5.312   3.095  0.00  0.00    +0.068 C 
ATOM     11  C   UNL     1       3.541   5.410   2.543  0.00  0.00    +0.068 A 
ATOM     12  C   UNL     1       3.900   5.301   1.207  0.00  0.00    +0.049 A 
ATOM     13  C   UNL     1       5.256   5.447   1.119  0.00  0.00    +0.222 A 
ATOM     14  N   UNL     1       5.725   5.639   2.362  0.00  0.00    -0.246 N 
ATOM     15  H   UNL     1       6.683   5.777   2.616  0.00  0.00    +0.192 HD
ATOM     16  N   UNL     1       4.632   5.614   3.243  0.00  0.00    -0.176 NA
ATOM     17  O   UNL     1       5.924   5.392  -0.060  0.00  0.00    -0.423 OA
ATOM     18  C   UNL     1       5.197   5.462  -1.194  0.00  0.00    +0.200 C 
ATOM     19  C   UNL     1       3.853   5.322  -1.235  0.00  0.00    +0.098 C 
ATOM     20  C   UNL     1       3.028   5.065   0.001  0.00  0.00    +0.103 C 
BRANCH  18  21
ATOM     21  N   UNL     1       5.860   5.690  -2.374  0.00  0.00    -0.328 N 
ATOM     22  H   UNL     1       5.364   5.746  -3.206  0.00  0.00    +0.145 HD
ATOM     23  H   UNL     1       6.824   5.794  -2.376  0.00  0.00    +0.145 HD
ENDBRANCH  18  21
BRANCH  19  24
ATOM     24  C   UNL     1       3.188   5.422  -2.500  0.00  0.00    +0.101 C 
ATOM     25  N   UNL     1       2.661   5.501  -3.503  0.00  0.00    -0.191 NA
ENDBRANCH  19  24
ENDBRANCH   1  20
BRANCH   3  26
ATOM     26  C   UNL     1       2.995   0.038  -0.026  0.00  0.00    +0.157 C 
BRANCH  26  27
ATOM     27  C   UNL     1       3.033  -0.468  -1.445  0.00  0.00    -0.025 A 
ATOM     28  C   UNL     1       4.174  -0.303  -2.208  0.00  0.00    +0.005 A 
ATOM     29  C   UNL     1       4.210  -0.767  -3.509  0.00  0.00    +0.003 A 
ATOM     30  C   UNL     1       3.105  -1.397  -4.050  0.00  0.00    +0.038 A 
ATOM     31  C   UNL     1       1.962  -1.564  -3.287  0.00  0.00    +0.124 A 
ATOM     32  C   UNL     1       1.929  -1.103  -1.981  0.00  0.00    +0.043 A 
ATOM     33  F   UNL     1       0.881  -2.180  -3.813  0.00  0.00    -0.205 F 
ENDBRANCH  26  27
ENDBRANCH   3  26
TORSDOF 5
