REMARK  Name = ZINC06498431
REMARK  8 active torsions:
REMARK  status: ('A' for Active; 'I' for Inactive)
REMARK    1  A    between atoms: C_1  and  C_2
REMARK    2  A    between atoms: C_4  and  C_13
REMARK    3  A    between atoms: C_5  and  C_12
REMARK    4  A    between atoms: C_13  and  C_15
REMARK    5  A    between atoms: C_15  and  S_16
REMARK    6  A    between atoms: S_16  and  C_17
REMARK    7  A    between atoms: C_20  and  C_28
REMARK    8  A    between atoms: N_21  and  C_22
REMARK                            x       y       z     vdW  Elec       q    Type
REMARK                         _______ _______ _______ _____ _____    ______ ____
ROOT
ATOM      1  C   UNL     1       0.041  -4.626  -5.422  0.00  0.00    +0.197 A 
ATOM      2  N   UNL     1       0.028  -3.450  -6.011  0.00  0.00    -0.122 NA
ATOM      3  N   UNL     1       0.022  -3.595  -7.288  0.00  0.00    -0.128 NA
ATOM      4  C   UNL     1       0.030  -4.872  -7.595  0.00  0.00    +0.169 A 
ATOM      5  N   UNL     1       0.049  -5.573  -6.409  0.00  0.00    -0.270 N 
ENDROOT
BRANCH   5   6
ATOM      6  C   UNL     1       0.069  -6.965  -6.248  0.00  0.00    +0.051 A 
ATOM      7  C   UNL     1       1.169  -7.699  -6.672  0.00  0.00    +0.026 A 
ATOM      8  C   UNL     1       1.185  -9.071  -6.511  0.00  0.00    +0.002 A 
ATOM      9  C   UNL     1       0.108  -9.713  -5.929  0.00  0.00    +0.000 A 
ATOM     10  C   UNL     1      -0.989  -8.985  -5.507  0.00  0.00    +0.002 A 
ATOM     11  C   UNL     1      -1.009  -7.612  -5.659  0.00  0.00    +0.026 A 
ENDBRANCH   5   6
BRANCH   4  12
ATOM     12  C   UNL     1       0.027  -5.448  -8.957  0.00  0.00    +0.020 A 
ATOM     13  C   UNL     1      -0.281  -6.796  -9.146  0.00  0.00    +0.011 A 
ATOM     14  C   UNL     1      -0.283  -7.327 -10.420  0.00  0.00    +0.001 A 
ATOM     15  C   UNL     1       0.020  -6.527 -11.507  0.00  0.00    +0.000 A 
ATOM     16  C   UNL     1       0.327  -5.190 -11.326  0.00  0.00    +0.001 A 
ATOM     17  C   UNL     1       0.326  -4.645 -10.058  0.00  0.00    +0.011 A 
ENDBRANCH   4  12
BRANCH   1  18
ATOM     18  S   UNL     1       0.053  -4.925  -3.686  0.00  0.00    -0.078 S 
BRANCH  18  19
ATOM     19  C   UNL     1       0.034  -3.265  -2.954  0.00  0.00    +0.157 C 
BRANCH  19  20
ATOM     20  C   UNL     1       0.042  -3.378  -1.452  0.00  0.00    +0.175 C 
ATOM     21  O   UNL     1       0.060  -4.472  -0.926  0.00  0.00    -0.291 OA
BRANCH  20  25
ATOM     22  C   UNL     1      -0.018   1.503   0.010  0.00  0.00    +0.064 C 
ATOM     23  C   UNL     1       0.002  -0.004   0.002  0.00  0.00    +0.024 A 
ATOM     24  C   UNL     1       0.008  -0.776  -1.097  0.00  0.00    +0.034 A 
ATOM     25  C   UNL     1       0.030  -2.169  -0.626  0.00  0.00    +0.039 A 
ATOM     26  C   UNL     1       0.035  -2.103   0.754  0.00  0.00    +0.034 A 
ATOM     27  N   UNL     1       0.024  -0.803   1.113  0.00  0.00    -0.285 N 
ATOM     28  C   UNL     1       0.029  -0.340   2.426  0.00  0.00    +0.256 A 
ATOM     29  N   UNL     1       0.056  -1.105   3.537  0.00  0.00    -0.109 NA
ATOM     30  N   UNL     1       0.051  -0.218   4.626  0.00  0.00    -0.134 NA
ATOM     31  C   UNL     1       0.023   0.991   4.132  0.00  0.00    +0.249 A 
ATOM     32  N   UNL     1       0.014   0.919   2.802  0.00  0.00    -0.197 NA
ATOM     33  C   UNL     1       0.055  -3.280   1.695  0.00  0.00    +0.065 C 
ENDBRANCH  20  25
ENDBRANCH  19  20
ENDBRANCH  18  19
ENDBRANCH   1  18
TORSDOF 6
