REMARK  Name = ZINC08590252
REMARK  10 active torsions:
REMARK  status: ('A' for Active; 'I' for Inactive)
REMARK    1  A    between atoms: C_1  and  C_2
REMARK    2  A    between atoms: C_9  and  O_27
REMARK    3  A    between atoms: C_10  and  C_13
REMARK    4  A    between atoms: C_14  and  C_15
REMARK    5  A    between atoms: C_14  and  C_17
REMARK    6  A    between atoms: O_27  and  C_28
REMARK    7  A    between atoms: C_31  and  C_34
REMARK    8  A    between atoms: C_34  and  C_35
REMARK    9  A    between atoms: C_34  and  C_36
REMARK   10  A    between atoms: C_34  and  C_37
REMARK                            x       y       z     vdW  Elec       q    Type
REMARK                         _______ _______ _______ _____ _____    ______ ____
ROOT
ATOM      1  C   UNL     1       0.399   0.876  -0.452  0.00  0.00    +0.047 C 
ATOM      2  C   UNL     1       0.305  -0.619  -0.286  0.00  0.00    -0.007 A 
ATOM      3  C   UNL     1       0.277  -1.431  -1.381  0.00  0.00    +0.008 A 
ATOM      4  C   UNL     1       0.189  -2.819  -1.210  0.00  0.00    +0.019 A 
ATOM      5  C   UNL     1       0.132  -3.346   0.033  0.00  0.00    +0.096 A 
ATOM      6  N   UNL     1       0.160  -2.543   1.134  0.00  0.00    -0.267 N 
ATOM      7  C   UNL     1       0.251  -1.186   1.000  0.00  0.00    +0.147 A 
ATOM      8  N   UNL     1       0.285  -0.384   2.065  0.00  0.00    -0.194 NA
ATOM      9  C   UNL     1       0.237  -0.862   3.297  0.00  0.00    +0.235 A 
ATOM     10  C   UNL     1       0.148  -2.259   3.501  0.00  0.00    +0.103 A 
ATOM     11  C   UNL     1       0.101  -3.103   2.362  0.00  0.00    +0.269 A 
ATOM     12  O   UNL     1       0.024  -4.312   2.489  0.00  0.00    -0.266 OA
ENDROOT
BRANCH  10  13
ATOM     13  C   UNL     1       0.097  -2.798   4.803  0.00  0.00    +0.041 C 
ATOM     14  C   UNL     1      -0.897  -2.397   5.678  0.00  0.00    +0.095 C 
BRANCH  14  15
ATOM     15  C   UNL     1      -0.874  -2.857   7.077  0.00  0.00    +0.150 A 
ATOM     16  N   UNL     1      -1.805  -2.531   8.030  0.00  0.00    -0.337 N 
ATOM     17  H   UNL     1      -2.583  -1.965   7.905  0.00  0.00    +0.167 HD
ATOM     18  C   UNL     1      -1.426  -3.160   9.202  0.00  0.00    +0.066 A 
ATOM     19  C   UNL     1      -1.959  -3.207  10.482  0.00  0.00    +0.028 A 
ATOM     20  C   UNL     1      -1.328  -3.945  11.462  0.00  0.00    +0.002 A 
ATOM     21  C   UNL     1      -0.163  -4.642  11.177  0.00  0.00    +0.002 A 
ATOM     22  C   UNL     1       0.381  -4.608   9.913  0.00  0.00    +0.030 A 
ATOM     23  C   UNL     1      -0.246  -3.865   8.907  0.00  0.00    +0.089 A 
ATOM     24  N   UNL     1       0.037  -3.646   7.599  0.00  0.00    -0.227 NA
ENDBRANCH  14  15
BRANCH  14  25
ATOM     25  C   UNL     1      -1.946  -1.536   5.224  0.00  0.00    +0.103 C 
ATOM     26  N   UNL     1      -2.779  -0.852   4.864  0.00  0.00    -0.191 NA
ENDBRANCH  14  25
ENDBRANCH  10  13
BRANCH   9  27
ATOM     27  O   UNL     1       0.274  -0.021   4.355  0.00  0.00    -0.437 OA
BRANCH  27  28
ATOM     28  C   UNL     1       0.462   1.302   4.112  0.00  0.00    +0.130 A 
ATOM     29  C   UNL     1      -0.509   2.031   3.441  0.00  0.00    +0.046 A 
ATOM     30  C   UNL     1      -0.315   3.377   3.195  0.00  0.00    +0.008 A 
ATOM     31  C   UNL     1       0.847   3.997   3.617  0.00  0.00    -0.042 A 
ATOM     32  C   UNL     1       1.817   3.273   4.286  0.00  0.00    +0.008 A 
ATOM     33  C   UNL     1       1.624   1.929   4.540  0.00  0.00    +0.046 A 
BRANCH  31  34
ATOM     34  C   UNL     1       1.056   5.465   3.348  0.00  0.00    -0.013 C 
ATOM     35  C   UNL     1      -0.059   6.271   4.018  0.00  0.00    +0.015 C 
ATOM     36  C   UNL     1       2.410   5.899   3.913  0.00  0.00    +0.015 C 
ATOM     37  C   UNL     1       1.030   5.715   1.839  0.00  0.00    +0.015 C 
ENDBRANCH  31  34
ENDBRANCH  27  28
ENDBRANCH   9  27
TORSDOF 6
