REMARK  Name = ZINC47721338
REMARK  8 active torsions:
REMARK  status: ('A' for Active; 'I' for Inactive)
REMARK    1  A    between atoms: C_1  and  C_2
REMARK    2  A    between atoms: C_2  and  C_3
REMARK    3  A    between atoms: C_8  and  N_9
REMARK    4  A    between atoms: N_12  and  C_13
REMARK    5  A    between atoms: C_13  and  C_15
REMARK    6  A    between atoms: C_13  and  C_16
REMARK    7  A    between atoms: C_19  and  N_22
REMARK    8  A    between atoms: N_25  and  C_26
REMARK                            x       y       z     vdW  Elec       q    Type
REMARK                         _______ _______ _______ _____ _____    ______ ____
ROOT
ATOM      1  C   UNL     1      -2.205  -0.525  -5.964  0.00  0.00    +0.102 C 
ATOM      2  C   UNL     1      -2.046  -2.000  -6.342  0.00  0.00    +0.033 C 
ENDROOT
BRANCH   1   6
ATOM      3  N   UNL     1      -1.486  -0.263  -2.368  0.00  0.00    -0.269 N 
ATOM      4  C   UNL     1      -2.128  -0.501  -3.529  0.00  0.00    +0.304 C 
ATOM      5  O   UNL     1      -3.267  -0.927  -3.518  0.00  0.00    -0.252 OA
ATOM      6  N   UNL     1      -1.507  -0.267  -4.702  0.00  0.00    -0.293 N 
ATOM      7  H   UNL     1      -0.603   0.138  -2.375  0.00  0.00    +0.156 HD
ATOM      8  H   UNL     1      -0.599   0.073  -4.711  0.00  0.00    +0.151 HD
BRANCH   3  14
ATOM      9  C   UNL     1      -1.324  -1.053  -0.091  0.00  0.00    -0.026 A 
ATOM     10  C   UNL     1      -1.926  -1.374   1.110  0.00  0.00    +0.005 A 
ATOM     11  C   UNL     1      -3.295  -1.246   1.255  0.00  0.00    +0.000 A 
ATOM     12  C   UNL     1      -4.066  -0.797   0.198  0.00  0.00    +0.002 A 
ATOM     13  C   UNL     1      -3.470  -0.474  -1.005  0.00  0.00    +0.023 A 
ATOM     14  C   UNL     1      -2.094  -0.595  -1.151  0.00  0.00    +0.038 A 
BRANCH   9  16
ATOM     15  C   UNL     1       0.840   0.153   0.037  0.00  0.00    +0.009 C 
ATOM     16  C   UNL     1       0.169  -1.192  -0.248  0.00  0.00    +0.033 C 
ENDBRANCH   9  16
ENDBRANCH   3  14
ENDBRANCH   1   6
BRANCH   1  17
ATOM     17  C   UNL     1      -1.615   0.338  -7.050  0.00  0.00    -0.027 A 
ATOM     18  C   UNL     1      -0.247   0.531  -7.111  0.00  0.00    +0.007 A 
ATOM     19  C   UNL     1       0.296   1.321  -8.105  0.00  0.00    +0.023 A 
ATOM     20  C   UNL     1      -0.533   1.923  -9.043  0.00  0.00    +0.035 A 
ATOM     21  C   UNL     1      -1.907   1.727  -8.978  0.00  0.00    +0.023 A 
ATOM     22  C   UNL     1      -2.443   0.931  -7.985  0.00  0.00    +0.007 A 
BRANCH  20  23
ATOM     23  N   UNL     1       0.014   2.725 -10.051  0.00  0.00    -0.269 N 
ATOM     24  C   UNL     1       1.211   2.412 -10.586  0.00  0.00    +0.304 C 
ATOM     25  O   UNL     1       1.853   1.482 -10.137  0.00  0.00    -0.253 OA
ATOM     26  N   UNL     1       1.696   3.129 -11.618  0.00  0.00    -0.296 N 
ATOM     27  H   UNL     1      -0.468   3.506 -10.364  0.00  0.00    +0.156 HD
ATOM     28  H   UNL     1       1.183   3.871 -11.976  0.00  0.00    +0.151 HD
BRANCH  26  29
ATOM     29  C   UNL     1       2.996   2.789 -12.200  0.00  0.00    +0.075 C 
ATOM     30  C   UNL     1       3.949   3.942 -12.523  0.00  0.00    +0.024 C 
ATOM     31  C   UNL     1       3.246   3.190 -13.655  0.00  0.00    +0.024 C 
ENDBRANCH  26  29
ENDBRANCH  20  23
ENDBRANCH   1  17
TORSDOF 6
