REMARK  Name = ZINC42143909
REMARK  6 active torsions:
REMARK  status: ('A' for Active; 'I' for Inactive)
REMARK    1  A    between atoms: C_1  and  C_2
REMARK    2  A    between atoms: C_2  and  C_3
REMARK    3  A    between atoms: C_2  and  C_4
REMARK    4  A    between atoms: C_6  and  S_10
REMARK    5  A    between atoms: S_10  and  C_11
REMARK    6  A    between atoms: C_16  and  N_20
REMARK                            x       y       z     vdW  Elec       q    Type
REMARK                         _______ _______ _______ _____ _____    ______ ____
ROOT
ATOM      1  C   UNL     1       4.810  -1.856   4.053  0.00  0.00    +0.264 A 
ATOM      2  N   UNL     1       3.893  -2.110   4.951  0.00  0.00    -0.203 NA
ATOM      3  C   UNL     1       4.503  -2.565   6.081  0.00  0.00    +0.111 A 
ATOM      4  C   UNL     1       4.033  -2.979   7.328  0.00  0.00    +0.033 A 
ATOM      5  C   UNL     1       4.923  -3.395   8.293  0.00  0.00    +0.025 A 
ATOM      6  C   UNL     1       6.291  -3.405   8.029  0.00  0.00    +0.028 A 
ATOM      7  C   UNL     1       6.768  -2.996   6.794  0.00  0.00    +0.071 A 
ATOM      8  C   UNL     1       5.881  -2.575   5.817  0.00  0.00    +0.158 A 
ATOM      9  O   UNL     1       6.030  -2.135   4.546  0.00  0.00    -0.430 OA
ENDROOT
BRANCH   6  10
ATOM     10  N   UNL     1       7.187  -3.829   9.017  0.00  0.00    -0.358 N 
ATOM     11  H   UNL     1       6.855  -4.115   9.882  0.00  0.00    +0.142 HD
ATOM     12  H   UNL     1       8.139  -3.837   8.836  0.00  0.00    +0.142 HD
ENDBRANCH   6  10
BRANCH   1  13
ATOM     13  S   UNL     1       4.492  -1.246   2.430  0.00  0.00    -0.011 S 
BRANCH  13  16
ATOM     14  C   UNL     1       0.731  -0.503   1.223  0.00  0.00    +0.048 A 
ATOM     15  C   UNL     1       2.108  -0.614   1.218  0.00  0.00    +0.058 A 
ATOM     16  C   UNL     1       2.739  -1.082   2.373  0.00  0.00    +0.109 A 
ATOM     17  N   UNL     1       1.995  -1.401   3.428  0.00  0.00    -0.229 NA
ATOM     18  C   UNL     1       0.684  -1.279   3.389  0.00  0.00    +0.222 A 
ATOM     19  N   UNL     1       0.059  -0.836   2.316  0.00  0.00    -0.240 NA
BRANCH  14  21
ATOM     20  C   UNL     1      -0.019   1.526   0.010  0.00  0.00    +0.014 C 
ATOM     21  C   UNL     1       0.002  -0.004   0.002  0.00  0.00    +0.032 C 
ATOM     22  C   UNL     1       0.718  -0.497  -1.257  0.00  0.00    +0.014 C 
ENDBRANCH  14  21
ENDBRANCH  13  16
ENDBRANCH   1  13
TORSDOF 4
