REMARK  Name = ZINC10193095
REMARK  11 active torsions:
REMARK  status: ('A' for Active; 'I' for Inactive)
REMARK    1  A    between atoms: C_1  and  C_2
REMARK    2  A    between atoms: C_6  and  C_32
REMARK    3  A    between atoms: C_7  and  O_8
REMARK    4  A    between atoms: O_8  and  C_9
REMARK    5  A    between atoms: C_9  and  C_10
REMARK    6  A    between atoms: C_13  and  S_21
REMARK    7  A    between atoms: N_14  and  C_15
REMARK    8  A    between atoms: S_21  and  C_22
REMARK    9  A    between atoms: C_22  and  C_23
REMARK   10  A    between atoms: N_25  and  C_26
REMARK   11  A    between atoms: C_28  and  C_31
REMARK                            x       y       z     vdW  Elec       q    Type
REMARK                         _______ _______ _______ _____ _____    ______ ____
ROOT
ATOM      1  C   UNL     1      -7.212  -0.014   0.036  0.00  0.00    +0.176 A 
ATOM      2  N   UNL     1      -6.310  -0.955   0.027  0.00  0.00    -0.130 NA
ATOM      3  N   UNL     1      -5.133  -0.439   0.018  0.00  0.00    -0.122 NA
ATOM      4  C   UNL     1      -5.218   0.872   0.032  0.00  0.00    +0.197 A 
ATOM      5  N   UNL     1      -6.550   1.185   0.040  0.00  0.00    -0.271 N 
ENDROOT
BRANCH   5   6
ATOM      6  C   UNL     1      -7.119   2.467   0.049  0.00  0.00    +0.050 A 
ATOM      7  C   UNL     1      -7.865   2.889   1.140  0.00  0.00    +0.026 A 
ATOM      8  C   UNL     1      -8.420   4.154   1.148  0.00  0.00    +0.002 A 
ATOM      9  C   UNL     1      -8.242   4.995   0.066  0.00  0.00    +0.000 A 
ATOM     10  C   UNL     1      -7.503   4.576  -1.025  0.00  0.00    +0.002 A 
ATOM     11  C   UNL     1      -6.942   3.314  -1.037  0.00  0.00    +0.026 A 
ENDBRANCH   5   6
BRANCH   1  12
ATOM     12  C   UNL     1      -8.706  -0.210   0.042  0.00  0.00    +0.305 C 
BRANCH  12  13
ATOM     13  O   UNL     1      -9.184  -0.265  -1.304  0.00  0.00    -0.484 OA
BRANCH  13  20
ATOM     14  C   UNL     1     -10.138  -2.917  -1.496  0.00  0.00    +0.047 C 
ATOM     15  C   UNL     1     -11.048  -1.718  -1.578  0.00  0.00    -0.009 A 
ATOM     16  C   UNL     1     -12.407  -1.893  -1.748  0.00  0.00    +0.007 A 
ATOM     17  C   UNL     1     -13.242  -0.793  -1.829  0.00  0.00    +0.001 A 
ATOM     18  C   UNL     1     -12.719   0.483  -1.734  0.00  0.00    +0.007 A 
ATOM     19  C   UNL     1     -11.360   0.663  -1.558  0.00  0.00    -0.009 A 
ATOM     20  C   UNL     1     -10.521  -0.439  -1.477  0.00  0.00    +0.127 A 
ATOM     21  C   UNL     1     -10.791   2.054  -1.455  0.00  0.00    +0.047 C 
ENDBRANCH  13  20
ENDBRANCH  12  13
ENDBRANCH   1  12
BRANCH   4  22
ATOM     22  S   UNL     1      -3.874   2.010   0.031  0.00  0.00    -0.076 S 
BRANCH  22  23
ATOM     23  C   UNL     1      -2.482   0.853   0.018  0.00  0.00    +0.173 C 
BRANCH  23  24
ATOM     24  C   UNL     1      -1.187   1.624   0.017  0.00  0.00    +0.230 C 
ATOM     25  O   UNL     1      -1.204   2.836   0.023  0.00  0.00    -0.274 OA
ATOM     26  N   UNL     1      -0.011   0.966   0.007  0.00  0.00    -0.254 N 
ATOM     27  H   UNL     1       0.002  -0.004   0.002  0.00  0.00    +0.158 HD
BRANCH  26  28
ATOM     28  C   UNL     1       1.181   1.676  -0.000  0.00  0.00    +0.224 A 
ATOM     29  C   UNL     1       2.443   1.157  -0.015  0.00  0.00    +0.092 A 
ATOM     30  C   UNL     1       3.277   2.293  -0.017  0.00  0.00    +0.082 A 
ATOM     31  N   UNL     1       2.489   3.331  -0.004  0.00  0.00    -0.081 NA
ATOM     32  O   UNL     1       1.323   3.011  -0.000  0.00  0.00    -0.339 OA
ATOM     33  C   UNL     1       4.784   2.306  -0.031  0.00  0.00    +0.069 C 
ENDBRANCH  26  28
ENDBRANCH  23  24
ENDBRANCH  22  23
ENDBRANCH   4  22
TORSDOF 8
