REMARK  Name = ZINC38002063
REMARK  7 active torsions:
REMARK  status: ('A' for Active; 'I' for Inactive)
REMARK    1  A    between atoms: C_1  and  C_2
REMARK    2  A    between atoms: C_2  and  C_4
REMARK    3  A    between atoms: C_2  and  N_10
REMARK    4  A    between atoms: N_10  and  C_11
REMARK    5  A    between atoms: N_16  and  C_20
REMARK    6  A    between atoms: C_20  and  C_21
REMARK    7  A    between atoms: C_20  and  C_22
REMARK                            x       y       z     vdW  Elec       q    Type
REMARK                         _______ _______ _______ _____ _____    ______ ____
ROOT
ATOM      1  C   UNL     1       0.026  -0.639   2.401  0.00  0.00    +0.047 A 
ATOM      2  C   UNL     1       0.691  -1.092   3.529  0.00  0.00    +0.037 A 
ATOM      3  C   UNL     1      -0.041  -1.223   4.715  0.00  0.00    +0.040 A 
ATOM      4  C   UNL     1       0.287  -1.654   6.069  0.00  0.00    +0.144 A 
ATOM      5  N   UNL     1      -0.800  -1.578   6.783  0.00  0.00    -0.177 NA
ATOM      6  N   UNL     1      -1.860  -1.118   5.997  0.00  0.00    -0.244 N 
ATOM      7  C   UNL     1      -1.411  -0.894   4.721  0.00  0.00    +0.159 A 
ATOM      8  N   UNL     1      -1.997  -0.465   3.611  0.00  0.00    -0.234 NA
ATOM      9  C   UNL     1      -1.331  -0.328   2.486  0.00  0.00    +0.136 A 
ENDROOT
BRANCH   6  10
ATOM     10  C   UNL     1      -3.233  -0.907   6.462  0.00  0.00    +0.103 C 
ATOM     11  C   UNL     1      -3.804  -2.229   6.979  0.00  0.00    +0.032 C 
ATOM     12  C   UNL     1      -3.237   0.126   7.590  0.00  0.00    +0.032 C 
ENDBRANCH   6  10
BRANCH   1  13
ATOM     13  N   UNL     1       0.711  -0.489   1.189  0.00  0.00    -0.336 N 
ATOM     14  H   UNL     1       1.654  -0.707   1.135  0.00  0.00    +0.147 HD
BRANCH  13  16
ATOM     15  C   UNL     1      -0.019   1.526   0.010  0.00  0.00    +0.033 C 
ATOM     16  C   UNL     1       0.002  -0.004   0.002  0.00  0.00    +0.104 C 
BRANCH  16  17
ATOM     17  C   UNL     1       0.707  -0.490  -1.238  0.00  0.00    +0.011 A 
ATOM     18  C   UNL     1       0.176  -0.943  -2.400  0.00  0.00    +0.014 A 
ATOM     19  C   UNL     1       1.026  -1.341  -3.415  0.00  0.00    +0.023 A 
ATOM     20  C   UNL     1       2.366  -1.267  -3.218  0.00  0.00    +0.055 A 
ATOM     21  S   UNL     1       2.459  -0.612  -1.560  0.00  0.00    -0.085 S 
ATOM     22 BR   UNL     1       3.770  -1.732  -4.396  0.00  0.00    -0.043 Br
ENDBRANCH  16  17
ENDBRANCH  13  16
ENDBRANCH   1  13
TORSDOF 4
