REMARK  Name = ZINC15947056
REMARK  9 active torsions:
REMARK  status: ('A' for Active; 'I' for Inactive)
REMARK    1  A    between atoms: C_1  and  C_2
REMARK    2  A    between atoms: C_2  and  C_3
REMARK    3  A    between atoms: C_2  and  N_4
REMARK    4  A    between atoms: C_12  and  O_28
REMARK    5  A    between atoms: C_14  and  C_17
REMARK    6  A    between atoms: C_19  and  O_26
REMARK    7  A    between atoms: C_20  and  O_24
REMARK    8  A    between atoms: O_24  and  C_25
REMARK    9  A    between atoms: O_26  and  C_27
REMARK                            x       y       z     vdW  Elec       q    Type
REMARK                         _______ _______ _______ _____ _____    ______ ____
ROOT
ATOM      1  N   UNL     1      -1.442  -0.249   0.106  0.00  0.00    +0.384 N 
ATOM      2  C   UNL     1      -1.680  -1.680   0.337  0.00  0.00    -0.073 C 
ATOM      3  C   UNL     1      -3.135  -1.914   0.758  0.00  0.00    +0.018 C 
ATOM      4  C   UNL     1      -4.034  -1.238  -0.269  0.00  0.00    -0.027 A 
ATOM      5  C   UNL     1      -3.521  -0.305  -1.108  0.00  0.00    -0.021 A 
ATOM      6  S   UNL     1      -4.891   0.200  -2.109  0.00  0.00    -0.080 S 
ATOM      7  C   UNL     1      -6.075  -0.765  -1.461  0.00  0.00    +0.080 A 
ATOM      8  C   UNL     1      -5.447  -1.501  -0.448  0.00  0.00    +0.067 A 
ATOM      9  C   UNL     1      -6.285  -2.453   0.325  0.00  0.00    +0.220 C 
ATOM     10  N   UNL     1      -7.474  -2.730  -0.139  0.00  0.00    -0.223 NA
ATOM     11  C   UNL     1      -8.010  -2.219  -1.394  0.00  0.00    +0.224 C 
ATOM     12  N   UNL     1      -7.411  -0.921  -1.753  0.00  0.00    -0.313 N 
ATOM     13  C   UNL     1      -2.103   0.167  -1.145  0.00  0.00    -0.035 C 
ATOM     14  H   UNL     1      -7.929  -0.216  -2.171  0.00  0.00    +0.149 HD
ATOM     15  H   UNL     1      -1.819   0.281   0.878  0.00  0.00    -0.081 HD
ENDROOT
BRANCH  11  16
ATOM     16  C   UNL     1      -7.724  -3.212  -2.491  0.00  0.00    -0.001 A 
ATOM     17  C   UNL     1      -7.647  -4.561  -2.198  0.00  0.00    +0.056 A 
ATOM     18  C   UNL     1      -7.384  -5.475  -3.206  0.00  0.00    +0.163 A 
ATOM     19  C   UNL     1      -7.197  -5.032  -4.512  0.00  0.00    +0.175 A 
ATOM     20  C   UNL     1      -7.276  -3.679  -4.799  0.00  0.00    +0.059 A 
ATOM     21  C   UNL     1      -7.544  -2.772  -3.789  0.00  0.00    +0.025 A 
ATOM     22  I   UNL     1      -6.995  -3.006  -6.763  0.00  0.00    -0.040 I 
BRANCH  19  23
ATOM     23  O   UNL     1      -6.939  -5.925  -5.504  0.00  0.00    -0.490 OA
ATOM     24  C   UNL     1      -8.064  -6.470  -6.196  0.00  0.00    +0.277 C 
ENDBRANCH  19  23
BRANCH  18  25
ATOM     25  O   UNL     1      -7.308  -6.802  -2.919  0.00  0.00    -0.491 OA
ATOM     26  C   UNL     1      -7.510  -7.184  -1.557  0.00  0.00    +0.277 C 
ENDBRANCH  18  25
ENDBRANCH  11  16
BRANCH   1  28
ATOM     27  C   UNL     1       0.246   1.468  -0.337  0.00  0.00    -0.014 C 
ATOM     28  C   UNL     1       0.002  -0.004   0.002  0.00  0.00    -0.074 C 
ATOM     29  C   UNL     1       0.674  -0.339   1.335  0.00  0.00    -0.014 C 
ENDBRANCH   1  28
BRANCH   9  30
ATOM     30  O   UNL     1      -5.832  -3.014   1.470  0.00  0.00    -0.492 OA
ATOM     31  H   UNL     1      -6.462  -3.617   1.888  0.00  0.00    +0.294 HD
ENDBRANCH   9  30
TORSDOF 5
