REMARK  Name = ZINC16917839
REMARK  12 active torsions:
REMARK  status: ('A' for Active; 'I' for Inactive)
REMARK    1  A    between atoms: C_1  and  C_2
REMARK    2  A    between atoms: C_2  and  O_3
REMARK    3  A    between atoms: O_3  and  C_4
REMARK    4  A    between atoms: C_6  and  C_17
REMARK    5  A    between atoms: C_9  and  O_10
REMARK    6  A    between atoms: O_10  and  C_11
REMARK    7  A    between atoms: C_11  and  C_13
REMARK    8  A    between atoms: C_11  and  C_14
REMARK    9  A    between atoms: C_22  and  N_24
REMARK   10  A    between atoms: N_24  and  C_25
REMARK   11  A    between atoms: C_28  and  N_31
REMARK   12  A    between atoms: C_32  and  C_34
REMARK                            x       y       z     vdW  Elec       q    Type
REMARK                         _______ _______ _______ _____ _____    ______ ____
ROOT
ATOM      1  C   UNL     1       0.897  -4.767  -0.057  0.00  0.00    +0.028 C 
ATOM      2  C   UNL     1       0.706  -6.107   0.043  0.00  0.00    +0.079 C 
ATOM      3  C   UNL     1      -0.542  -6.873   0.268  0.00  0.00    +0.276 C 
ATOM      4  O   UNL     1      -1.623  -6.321   0.396  0.00  0.00    -0.267 OA
ATOM      5  N   UNL     1      -0.421  -8.181   0.320  0.00  0.00    -0.152 NA
ATOM      6  C   UNL     1       0.745  -8.793   0.182  0.00  0.00    +0.175 C 
ATOM      7  S   UNL     1       1.888  -7.444  -0.066  0.00  0.00    -0.050 S 
ENDROOT
BRANCH   1  10
ATOM      8  C   UNL     1      -2.090  -3.225   1.606  0.00  0.00    +0.162 A 
ATOM      9  C   UNL     1      -1.057  -4.098   1.327  0.00  0.00    +0.057 A 
ATOM     10  C   UNL     1      -0.204  -3.844   0.246  0.00  0.00    -0.020 A 
ATOM     11  C   UNL     1      -0.404  -2.706  -0.546  0.00  0.00    +0.012 A 
ATOM     12  C   UNL     1      -1.438  -1.841  -0.260  0.00  0.00    +0.050 A 
ATOM     13  C   UNL     1      -2.286  -2.098   0.810  0.00  0.00    +0.163 A 
BRANCH   8  14
ATOM     14  O   UNL     1      -2.921  -3.469   2.655  0.00  0.00    -0.489 OA
BRANCH  14  16
ATOM     15  C   UNL     1      -3.691  -4.748   4.555  0.00  0.00    +0.048 C 
ATOM     16  C   UNL     1      -2.662  -4.643   3.429  0.00  0.00    +0.226 C 
ENDBRANCH  14  16
ENDBRANCH   8  14
BRANCH  13  17
ATOM     17  O   UNL     1      -3.307  -1.244   1.084  0.00  0.00    -0.474 OA
BRANCH  17  18
ATOM     18  C   UNL     1      -3.520  -0.172   0.164  0.00  0.00    +0.283 C 
ATOM     19  C   UNL     1      -2.603   0.999   0.523  0.00  0.00    +0.064 C 
BRANCH  18  20
ATOM     20  C   UNL     1      -4.958   0.275   0.238  0.00  0.00    +0.395 C 
ATOM     21  O   UNL     1      -5.705  -0.210   1.071  0.00  0.00    -0.242 OA
ATOM     22  O   UNL     1      -5.373   1.122  -0.534  0.00  0.00    -0.242 OA
ENDBRANCH  18  20
ENDBRANCH  17  18
ENDBRANCH  13  17
ENDBRANCH   1  10
BRANCH   6  23
ATOM     23  N   UNL     1       1.009 -10.137   0.216  0.00  0.00    -0.192 NA
BRANCH  23  24
ATOM     24  C   UNL     1      -0.043 -11.056   0.307  0.00  0.00    +0.056 A 
ATOM     25  C   UNL     1      -1.258 -10.783  -0.310  0.00  0.00    +0.027 A 
ATOM     26  C   UNL     1      -2.295 -11.689  -0.221  0.00  0.00    +0.025 A 
ATOM     27  C   UNL     1      -2.126 -12.872   0.487  0.00  0.00    +0.033 A 
ATOM     28  C   UNL     1      -0.911 -13.144   1.104  0.00  0.00    +0.025 A 
ATOM     29  C   UNL     1       0.129 -12.242   1.009  0.00  0.00    +0.027 A 
BRANCH  27  30
ATOM     30  N   UNL     1      -3.179 -13.791   0.578  0.00  0.00    -0.286 N 
ATOM     31  C   UNL     1      -3.345 -14.516   1.702  0.00  0.00    +0.214 C 
ATOM     32  O   UNL     1      -2.649 -14.301   2.671  0.00  0.00    -0.276 OA
ATOM     33  C   UNL     1      -4.397 -15.594   1.754  0.00  0.00    +0.109 C 
ATOM     34  H   UNL     1      -3.788 -13.906  -0.168  0.00  0.00    +0.155 HD
ENDBRANCH  27  30
ENDBRANCH  23  24
ENDBRANCH   6  23
TORSDOF 9
