REMARK  Name = ZINC35427010
REMARK  7 active torsions:
REMARK  status: ('A' for Active; 'I' for Inactive)
REMARK    1  A    between atoms: C_1  and  N_2
REMARK    2  A    between atoms: C_16  and  C_28
REMARK    3  A    between atoms: N_22  and  C_23
REMARK    4  A    between atoms: C_23  and  C_24
REMARK    5  A    between atoms: C_24  and  C_25
REMARK    6  A    between atoms: C_25  and  O_26
REMARK    7  A    between atoms: O_26  and  C_27
REMARK                            x       y       z     vdW  Elec       q    Type
REMARK                         _______ _______ _______ _____ _____    ______ ____
ROOT
ATOM      1  C   UNL     1      -0.724   1.577  -0.096  0.00  0.00    -0.096 C 
ATOM      2  N   UNL     1      -0.612   0.112  -0.117  0.00  0.00    +0.381 N 
ATOM      3  C   UNL     1      -1.948  -0.483   0.015  0.00  0.00    -0.074 C 
ATOM      4  C   UNL     1      -1.900  -1.977  -0.320  0.00  0.00    +0.018 C 
ATOM      5  C   UNL     1      -0.806  -2.615   0.533  0.00  0.00    -0.034 A 
ATOM      6  C   UNL     1      -0.716  -4.002   0.753  0.00  0.00    +0.004 A 
ATOM      7  C   UNL     1       0.303  -4.430   1.547  0.00  0.00    +0.090 A 
ATOM      8  S   UNL     1       1.173  -2.956   1.987  0.00  0.00    -0.077 S 
ATOM      9  C   UNL     1       0.134  -1.818   1.110  0.00  0.00    -0.021 A 
ATOM     10  C   UNL     1       0.237  -0.332   1.004  0.00  0.00    -0.036 C 
ATOM     11  N   UNL     1       0.515  -5.759   1.893  0.00  0.00    -0.312 N 
ATOM     12  C   UNL     1       1.640  -6.510   1.913  0.00  0.00    +0.092 A 
ATOM     13  C   UNL     1       1.295  -7.771   2.260  0.00  0.00    +0.020 A 
ATOM     14  C   UNL     1      -0.100  -7.785   2.480  0.00  0.00    +0.025 A 
ATOM     15  C   UNL     1      -0.552  -6.540   2.273  0.00  0.00    +0.049 A 
ATOM     16  C   UNL     1      -1.935  -5.988   2.444  0.00  0.00    +0.155 C 
ATOM     17  N   UNL     1      -2.552  -5.633   1.143  0.00  0.00    -0.269 N 
ATOM     18  C   UNL     1      -1.674  -5.000   0.142  0.00  0.00    +0.148 C 
ATOM     19  C   UNL     1      -3.853  -5.877   0.888  0.00  0.00    +0.303 C 
ATOM     20  O   UNL     1      -4.550  -6.401   1.735  0.00  0.00    -0.253 OA
ATOM     21  N   UNL     1      -4.380  -5.541  -0.306  0.00  0.00    -0.299 N 
ATOM     22  H   UNL     1      -3.823  -5.124  -0.982  0.00  0.00    +0.150 HD
ATOM     23  H   UNL     1      -0.198  -0.181  -0.989  0.00  0.00    -0.082 HD
ENDROOT
BRANCH  16  24
ATOM     24  C   UNL     1      -1.869  -4.754   3.307  0.00  0.00    -0.021 A 
ATOM     25  C   UNL     1      -2.709  -3.687   3.052  0.00  0.00    +0.007 A 
ATOM     26  C   UNL     1      -2.649  -2.555   3.843  0.00  0.00    +0.020 A 
ATOM     27  C   UNL     1      -1.746  -2.490   4.889  0.00  0.00    +0.041 A 
ATOM     28  C   UNL     1      -0.905  -3.558   5.144  0.00  0.00    +0.020 A 
ATOM     29  C   UNL     1      -0.971  -4.692   4.356  0.00  0.00    +0.007 A 
ATOM     30 CL   UNL     1      -1.669  -1.068   5.883  0.00  0.00    -0.084 Cl
ENDBRANCH  16  24
BRANCH  21  31
ATOM     31  C   UNL     1      -5.794  -5.807  -0.583  0.00  0.00    +0.108 C 
BRANCH  31  32
ATOM     32  C   UNL     1      -6.134  -5.333  -1.998  0.00  0.00    +0.047 C 
BRANCH  32  33
ATOM     33  C   UNL     1      -7.610  -5.611  -2.287  0.00  0.00    +0.161 C 
BRANCH  33  34
ATOM     34  O   UNL     1      -7.928  -5.168  -3.608  0.00  0.00    -0.383 OA
ATOM     35  C   UNL     1      -9.291  -5.382  -3.981  0.00  0.00    +0.193 C 
ENDBRANCH  33  34
ENDBRANCH  32  33
ENDBRANCH  31  32
ENDBRANCH  21  31
TORSDOF 5
