REMARK  Name = ZINC39541889
REMARK  7 active torsions:
REMARK  status: ('A' for Active; 'I' for Inactive)
REMARK    1  A    between atoms: C_1  and  O_2
REMARK    2  A    between atoms: O_2  and  C_3
REMARK    3  A    between atoms: C_8  and  N_9
REMARK    4  A    between atoms: C_11  and  C_14
REMARK    5  A    between atoms: C_14  and  N_15
REMARK    6  A    between atoms: N_15  and  C_16
REMARK    7  A    between atoms: C_26  and  C_29
REMARK                            x       y       z     vdW  Elec       q    Type
REMARK                         _______ _______ _______ _____ _____    ______ ____
ROOT
ATOM      1  N   UNL     1       0.672  -6.140   2.685  0.00  0.00    +0.385 N 
ATOM      2  H   UNL     1       1.595  -6.084   2.282  0.00  0.00    -0.085 HD
ATOM      3  H   UNL     1       0.652  -5.625   3.553  0.00  0.00    -0.085 HD
ENDROOT
BRANCH   1   4
ATOM      4  C   UNL     1       0.334  -7.546   2.942  0.00  0.00    -0.054 C 
ATOM      5  C   UNL     1      -1.012  -7.624   3.667  0.00  0.00    -0.013 C 
ATOM      6  C   UNL     1      -1.381  -9.089   3.906  0.00  0.00    +0.017 C 
ATOM      7  C   UNL     1      -0.315  -9.742   4.792  0.00  0.00    +0.106 C 
ATOM      8  N   UNL     1       1.002  -9.545   4.171  0.00  0.00    -0.317 N 
ATOM      9  C   UNL     1       1.419  -8.182   3.816  0.00  0.00    +0.091 C 
ATOM     10  C   UNL     1       1.838 -10.628   3.925  0.00  0.00    +0.121 A 
ATOM     11  C   UNL     1       1.531 -11.873   4.465  0.00  0.00    +0.044 A 
ATOM     12  C   UNL     1       2.371 -12.942   4.211  0.00  0.00    +0.017 A 
ATOM     13  C   UNL     1       3.495 -12.729   3.422  0.00  0.00    +0.073 A 
ATOM     14  C   UNL     1       3.738 -11.467   2.919  0.00  0.00    +0.125 A 
ATOM     15  N   UNL     1       2.916 -10.467   3.173  0.00  0.00    -0.240 NA
BRANCH  13  16
ATOM     16  C   UNL     1       4.439 -13.864   3.120  0.00  0.00    +0.419 C 
ATOM     17  F   UNL     1       4.031 -14.511   1.949  0.00  0.00    -0.166 F 
ATOM     18  F   UNL     1       5.733 -13.361   2.949  0.00  0.00    -0.166 F 
ATOM     19  F   UNL     1       4.429 -14.774   4.183  0.00  0.00    -0.166 F 
ENDBRANCH  13  16
ENDBRANCH   1   4
BRANCH   1  20
ATOM     20  C   UNL     1      -0.305  -5.564   1.752  0.00  0.00    -0.043 C 
BRANCH  20  23
ATOM     21  N   UNL     1       0.904  -2.317   0.608  0.00  0.00    -0.236 N 
ATOM     22  C   UNL     1       0.852  -3.664   0.505  0.00  0.00    +0.116 A 
ATOM     23  C   UNL     1       0.042  -4.121   1.488  0.00  0.00    -0.027 A 
ATOM     24  C   UNL     1      -0.416  -3.018   2.217  0.00  0.00    +0.136 A 
ATOM     25  N   UNL     1       0.104  -1.937   1.694  0.00  0.00    -0.175 NA
BRANCH  21  31
ATOM     26  C   UNL     1       1.604  -0.078   0.002  0.00  0.00    +0.145 A 
ATOM     27  C   UNL     1       2.332   0.770  -0.818  0.00  0.00    +0.048 A 
ATOM     28  C   UNL     1       3.081   0.252  -1.857  0.00  0.00    +0.004 A 
ATOM     29  C   UNL     1       3.108  -1.112  -2.082  0.00  0.00    +0.002 A 
ATOM     30  C   UNL     1       2.386  -1.965  -1.269  0.00  0.00    +0.031 A 
ATOM     31  C   UNL     1       1.635  -1.453  -0.221  0.00  0.00    +0.107 A 
BRANCH  26  33
ATOM     32  C   UNL     1       0.881   1.848   1.193  0.00  0.00    +0.277 C 
ATOM     33  O   UNL     1       0.866   0.429   1.024  0.00  0.00    -0.493 OA
ENDBRANCH  26  33
ENDBRANCH  21  31
ENDBRANCH  20  23
ENDBRANCH   1  20
TORSDOF 6
