REMARK  Name = ZINC35938675
REMARK  7 active torsions:
REMARK  status: ('A' for Active; 'I' for Inactive)
REMARK    1  A    between atoms: C_1  and  C_2
REMARK    2  A    between atoms: C_5  and  C_8
REMARK    3  A    between atoms: N_17  and  C_18
REMARK    4  A    between atoms: C_18  and  C_19
REMARK    5  A    between atoms: C_19  and  C_20
REMARK    6  A    between atoms: C_26  and  C_29
REMARK    7  A    between atoms: C_30  and  C_32
REMARK                            x       y       z     vdW  Elec       q    Type
REMARK                         _______ _______ _______ _____ _____    ______ ____
ROOT
ATOM      1  C   UNL     1      -2.982  -4.038   2.999  0.00  0.00    +0.077 C 
ENDROOT
BRANCH   1   2
ATOM      2  C   UNL     1      -4.395  -3.605   2.701  0.00  0.00    +0.214 C 
ATOM      3  O   UNL     1      -4.606  -2.779   1.839  0.00  0.00    -0.276 OA
ATOM      4  N   UNL     1      -5.422  -4.135   3.393  0.00  0.00    -0.298 N 
ATOM      5  C   UNL     1      -5.180  -5.132   4.445  0.00  0.00    +0.127 C 
ATOM      6  C   UNL     1      -6.008  -6.385   4.132  0.00  0.00    +0.127 C 
ATOM      7  N   UNL     1      -7.391  -5.976   3.849  0.00  0.00    -0.292 N 
ATOM      8  C   UNL     1      -7.633  -4.979   2.797  0.00  0.00    +0.091 C 
ATOM      9  C   UNL     1      -6.805  -3.722   3.113  0.00  0.00    +0.130 C 
ATOM     10  C   UNL     1      -7.213  -5.551   1.441  0.00  0.00    +0.029 C 
ATOM     11  C   UNL     1      -8.418  -6.506   4.541  0.00  0.00    +0.247 C 
ATOM     12  O   UNL     1      -8.213  -7.382   5.359  0.00  0.00    -0.270 OA
BRANCH  11  13
ATOM     13  C   UNL     1      -9.795  -6.024   4.305  0.00  0.00    +0.037 A 
ATOM     14  C   UNL     1     -10.307  -5.972   3.007  0.00  0.00    +0.014 A 
ATOM     15  C   UNL     1     -11.592  -5.521   2.793  0.00  0.00    +0.021 A 
ATOM     16  C   UNL     1     -12.375  -5.120   3.863  0.00  0.00    +0.041 A 
ATOM     17  C   UNL     1     -11.873  -5.169   5.153  0.00  0.00    +0.021 A 
ATOM     18  C   UNL     1     -10.591  -5.624   5.380  0.00  0.00    +0.014 A 
ATOM     19 CL   UNL     1     -13.992  -4.552   3.586  0.00  0.00    -0.084 Cl
ENDBRANCH  11  13
ENDBRANCH   1   2
BRANCH   1  20
ATOM     20  C   UNL     1      -2.015  -3.290   2.080  0.00  0.00    -0.068 C 
BRANCH  20  29
ATOM     21  C   UNL     1       0.293  -2.906   1.571  0.00  0.00    -0.006 C 
ATOM     22  C   UNL     1       1.711  -3.420   1.800  0.00  0.00    -0.047 A 
ATOM     23  C   UNL     1       2.860  -2.681   1.530  0.00  0.00    +0.010 A 
ATOM     24  C   UNL     1       4.081  -3.217   1.767  0.00  0.00    +0.045 A 
ATOM     25  S   UNL     1       3.657  -4.834   2.400  0.00  0.00    -0.101 S 
ATOM     26  C   UNL     1       1.898  -4.674   2.300  0.00  0.00    -0.010 A 
ATOM     27  C   UNL     1       0.828  -5.652   2.662  0.00  0.00    +0.024 C 
ATOM     28  C   UNL     1      -0.491  -5.141   2.058  0.00  0.00    -0.072 C 
ATOM     29  N   UNL     1      -0.638  -3.712   2.370  0.00  0.00    +0.388 N 
ATOM     30  H   UNL     1      -0.447  -3.567   3.350  0.00  0.00    -0.080 HD
BRANCH  21  35
ATOM     31  C   UNL     1      -0.054   2.629   3.195  0.00  0.00    +0.044 C 
ATOM     32  C   UNL     1       0.037   1.185   2.771  0.00  0.00    -0.050 A 
ATOM     33  C   UNL     1       0.171   0.865   1.433  0.00  0.00    +0.003 A 
ATOM     34  C   UNL     1       0.254  -0.460   1.045  0.00  0.00    +0.002 A 
ATOM     35  C   UNL     1       0.203  -1.463   1.995  0.00  0.00    -0.057 A 
ATOM     36  C   UNL     1       0.071  -1.142   3.333  0.00  0.00    +0.002 A 
ATOM     37  C   UNL     1      -0.008   0.182   3.721  0.00  0.00    +0.003 A 
ENDBRANCH  21  35
ENDBRANCH  20  29
ENDBRANCH   1  20
TORSDOF 5
