REMARK  Name = ZINC13811216
REMARK  4 active torsions:
REMARK  status: ('A' for Active; 'I' for Inactive)
REMARK    1  A    between atoms: C_10  and  N_69
REMARK    2  A    between atoms: C_21  and  C_23
REMARK    3  A    between atoms: C_27  and  O_29
REMARK    4  A    between atoms: O_29  and  C_30
REMARK                            x       y       z     vdW  Elec       q    Type
REMARK                         _______ _______ _______ _____ _____    ______ ____
ROOT
ATOM      1  C   UNL     1       4.119   1.330  -0.201  0.00  0.00    -0.072 C 
ATOM      2  C   UNL     1       5.583   1.768  -0.108  0.00  0.00    +0.052 C 
ATOM      3  C   UNL     1       6.298   1.423  -1.414  0.00  0.00    +0.189 C 
ATOM      4  C   UNL     1       5.579   2.085  -2.588  0.00  0.00    +0.052 C 
ATOM      5  C   UNL     1       4.115   1.637  -2.605  0.00  0.00    -0.072 C 
ATOM      6  N   UNL     1       6.331  -0.030  -1.600  0.00  0.00    -0.207 N 
ATOM      7  C   UNL     1       7.060  -0.629  -2.742  0.00  0.00    +0.136 C 
ATOM      8  C   UNL     1       7.200  -2.098  -2.320  0.00  0.00    +0.086 C 
ATOM      9  C   UNL     1       6.268  -2.218  -1.132  0.00  0.00    +0.069 C 
ATOM     10  N   UNL     1       5.821  -1.047  -0.814  0.00  0.00    -0.185 NA
ATOM     11  C   UNL     1       8.392   0.069  -2.812  0.00  0.00    +0.017 A 
ATOM     12  C   UNL     1       9.411  -0.493  -3.559  0.00  0.00    +0.009 A 
ATOM     13  C   UNL     1      10.637   0.135  -3.651  0.00  0.00    +0.001 A 
ATOM     14  C   UNL     1      10.846   1.334  -2.994  0.00  0.00    +0.004 A 
ATOM     15  C   UNL     1       9.835   1.895  -2.244  0.00  0.00    +0.046 A 
ATOM     16  C   UNL     1       8.596   1.264  -2.138  0.00  0.00    +0.128 A 
ATOM     17  O   UNL     1       7.656   1.863  -1.361  0.00  0.00    -0.467 OA
ATOM     18  N   UNL     1       3.479   2.035  -1.331  0.00  0.00    +0.385 N 
ATOM     19  H   UNL     1       3.596   3.047  -1.202  0.00  0.00    -0.081 HD
ENDROOT
BRANCH  18  29
ATOM     20  C   UNL     1       0.286   4.070  -4.486  0.00  0.00    +0.000 A 
ATOM     21  C   UNL     1       1.248   4.606  -3.650  0.00  0.00    +0.000 A 
ATOM     22  C   UNL     1       1.801   3.828  -2.654  0.00  0.00    +0.002 A 
ATOM     23  C   UNL     1       1.400   2.509  -2.484  0.00  0.00    -0.058 A 
ATOM     24  C   UNL     1       0.445   1.974  -3.319  0.00  0.00    -0.046 A 
ATOM     25  C   UNL     1      -0.112   2.760  -4.320  0.00  0.00    +0.004 A 
ATOM     26  C   UNL     1      -0.032   0.550  -3.198  0.00  0.00    +0.035 C 
ATOM     27  C   UNL     1       0.330  -0.023  -1.829  0.00  0.00    +0.003 C 
ATOM     28  C   UNL     1       1.823   0.223  -1.581  0.00  0.00    -0.010 C 
ATOM     29  C   UNL     1       2.035   1.721  -1.369  0.00  0.00    -0.037 C 
ENDBRANCH  18  29
BRANCH   9  30
ATOM     30  C   UNL     1       5.922  -3.477  -0.444  0.00  0.00    +0.001 A 
ATOM     31  C   UNL     1       6.469  -4.687  -0.880  0.00  0.00    +0.010 A 
ATOM     32  C   UNL     1       6.143  -5.862  -0.234  0.00  0.00    +0.004 A 
ATOM     33  C   UNL     1       5.276  -5.846   0.844  0.00  0.00    +0.046 A 
ATOM     34  C   UNL     1       4.728  -4.649   1.284  0.00  0.00    +0.127 A 
ATOM     35  C   UNL     1       5.052  -3.463   0.647  0.00  0.00    +0.055 A 
BRANCH  34  36
ATOM     36  O   UNL     1       3.878  -4.641   2.344  0.00  0.00    -0.434 OA
BRANCH  36  37
ATOM     37  C   UNL     1       3.592  -5.900   2.957  0.00  0.00    +0.541 C 
ATOM     38  F   UNL     1       3.011  -6.755   2.015  0.00  0.00    -0.166 F 
ATOM     39  F   UNL     1       4.780  -6.467   3.432  0.00  0.00    -0.166 F 
ENDBRANCH  36  37
ENDBRANCH  34  36
ENDBRANCH   9  30
TORSDOF 4
