REMARK  Name = ZINC39960639
REMARK  12 active torsions:
REMARK  status: ('A' for Active; 'I' for Inactive)
REMARK    1  A    between atoms: C_1  and  C_2
REMARK    2  A    between atoms: C_2  and  C_3
REMARK    3  A    between atoms: C_12  and  C_17
REMARK    4  A    between atoms: C_12  and  C_19
REMARK    5  A    between atoms: C_17  and  C_18
REMARK    6  A    between atoms: C_19  and  C_20
REMARK    7  A    between atoms: C_20  and  O_22
REMARK    8  A    between atoms: O_22  and  C_23
REMARK    9  A    between atoms: C_25  and  O_39
REMARK   10  A    between atoms: C_27  and  O_38
REMARK   11  A    between atoms: C_29  and  O_37
REMARK   12  A    between atoms: C_31  and  C_34
REMARK                            x       y       z     vdW  Elec       q    Type
REMARK                         _______ _______ _______ _____ _____    ______ ____
ROOT
ATOM      1  C   UNL     1       6.267   0.918  -0.113  0.00  0.00    +0.162 C 
ENDROOT
BRANCH   1  11
ATOM      2  C   UNL     1       0.696   0.270  -0.844  0.00  0.00    -0.024 A 
ATOM      3  C   UNL     1      -0.143  -0.077  -1.881  0.00  0.00    +0.005 A 
ATOM      4  C   UNL     1       0.341  -0.777  -2.978  0.00  0.00    +0.001 A 
ATOM      5  C   UNL     1       1.658  -1.134  -3.047  0.00  0.00    +0.010 A 
ATOM      6  C   UNL     1       2.527  -0.793  -2.009  0.00  0.00    +0.004 A 
ATOM      7  C   UNL     1       3.946  -1.001  -1.756  0.00  0.00    -0.014 A 
ATOM      8  C   UNL     1       4.972  -1.699  -2.612  0.00  0.00    +0.065 C 
ATOM      9  C   UNL     1       6.362  -1.304  -2.092  0.00  0.00    +0.166 C 
ATOM     10  O   UNL     1       6.394  -1.438  -0.668  0.00  0.00    -0.366 OA
ATOM     11  C   UNL     1       5.619  -0.460   0.036  0.00  0.00    +0.119 C 
ATOM     12  C   UNL     1       4.231  -0.439  -0.562  0.00  0.00    +0.053 A 
ATOM     13  H   UNL     1       3.052   0.576   0.816  0.00  0.00    +0.166 HD
ATOM     14  N   UNL     1       3.101   0.113  -0.035  0.00  0.00    -0.355 N 
ATOM     15  C   UNL     1       2.040  -0.078  -0.896  0.00  0.00    +0.050 A 
BRANCH   2  17
ATOM     16  C   UNL     1       0.385   2.529   0.131  0.00  0.00    +0.009 C 
ATOM     17  C   UNL     1       0.157   1.031   0.340  0.00  0.00    +0.034 C 
ENDBRANCH   2  17
BRANCH  11  18
ATOM     18  C   UNL     1       5.537  -0.834   1.518  0.00  0.00    +0.038 C 
ATOM     19  C   UNL     1       4.874  -2.205   1.661  0.00  0.00    +0.007 C 
ENDBRANCH  11  18
ENDBRANCH   1  11
BRANCH   1  20
ATOM     20  C   UNL     1       7.686   0.863   0.393  0.00  0.00    +0.312 C 
ATOM     21  O   UNL     1       8.169  -0.194   0.721  0.00  0.00    -0.251 OA
BRANCH  20  22
ATOM     22  O   UNL     1       8.412   1.989   0.478  0.00  0.00    -0.432 OA
BRANCH  22  23
ATOM     23  C   UNL     1       9.749   1.863   0.967  0.00  0.00    +0.343 C 
ATOM     24  C   UNL     1      10.329   3.255   1.229  0.00  0.00    +0.214 C 
ATOM     25  C   UNL     1      11.782   3.114   1.694  0.00  0.00    +0.180 C 
ATOM     26  C   UNL     1      12.574   2.345   0.633  0.00  0.00    +0.186 C 
ATOM     27  C   UNL     1      11.907   0.988   0.394  0.00  0.00    +0.266 C 
ATOM     28  O   UNL     1      10.550   1.190  -0.006  0.00  0.00    -0.322 OA
BRANCH  27  29
ATOM     29  C   UNL     1      12.646   0.248  -0.692  0.00  0.00    +0.387 C 
ATOM     30  O   UNL     1      13.799  -0.105  -0.512  0.00  0.00    -0.243 OA
ATOM     31  O   UNL     1      12.091   0.004  -1.750  0.00  0.00    -0.243 OA
ENDBRANCH  27  29
BRANCH  26  32
ATOM     32  O   UNL     1      12.591   3.091  -0.585  0.00  0.00    -0.386 OA
ATOM     33  H   UNL     1      13.077   2.662  -1.303  0.00  0.00    +0.210 HD
ENDBRANCH  26  32
BRANCH  25  34
ATOM     34  O   UNL     1      12.355   4.411   1.873  0.00  0.00    -0.386 OA
ATOM     35  H   UNL     1      11.897   4.956   2.528  0.00  0.00    +0.210 HD
ENDBRANCH  25  34
BRANCH  24  36
ATOM     36  O   UNL     1      10.284   4.026   0.026  0.00  0.00    -0.383 OA
ATOM     37  H   UNL     1       9.393   4.151  -0.327  0.00  0.00    +0.210 HD
ENDBRANCH  24  36
ENDBRANCH  22  23
ENDBRANCH  20  22
ENDBRANCH   1  20
TORSDOF 10
