REMARK  Name = ZINC67121543
REMARK  8 active torsions:
REMARK  status: ('A' for Active; 'I' for Inactive)
REMARK    1  A    between atoms: C_1  and  C_2
REMARK    2  A    between atoms: C_2  and  C_4
REMARK    3  A    between atoms: C_2  and  N_16
REMARK    4  A    between atoms: C_6  and  C_9
REMARK    5  A    between atoms: N_16  and  C_17
REMARK    6  A    between atoms: C_17  and  C_18
REMARK    7  A    between atoms: C_21  and  O_25
REMARK    8  A    between atoms: O_25  and  C_26
REMARK                            x       y       z     vdW  Elec       q    Type
REMARK                         _______ _______ _______ _____ _____    ______ ____
ROOT
ATOM      1  N   UNL     1      -1.376  -0.512   0.012  0.00  0.00    +0.389 N 
ATOM      2  H   UNL     1      -1.363  -1.518   0.090  0.00  0.00    -0.084 HD
ATOM      3  H   UNL     1      -1.873  -0.121   0.799  0.00  0.00    -0.084 HD
ENDROOT
BRANCH   1   5
ATOM      4  C   UNL     1      -0.019   1.526   0.010  0.00  0.00    -0.004 C 
ATOM      5  C   UNL     1       0.002  -0.004   0.002  0.00  0.00    +0.016 C 
BRANCH   5   6
ATOM      6  C   UNL     1       0.731  -0.503   1.223  0.00  0.00    +0.213 A 
ATOM      7  N   UNL     1       1.937  -0.994   1.242  0.00  0.00    -0.193 NA
ATOM      8  C   UNL     1       2.274  -1.341   2.497  0.00  0.00    +0.202 A 
ATOM      9  N   UNL     1       1.268  -1.067   3.291  0.00  0.00    -0.056 NA
ATOM     10  O   UNL     1       0.250  -0.512   2.473  0.00  0.00    -0.339 OA
BRANCH   8  11
ATOM     11  C   UNL     1       3.569  -1.934   2.913  0.00  0.00    +0.023 A 
ATOM     12  C   UNL     1       4.565  -2.171   1.967  0.00  0.00    +0.014 A 
ATOM     13  C   UNL     1       5.768  -2.722   2.359  0.00  0.00    +0.039 A 
ATOM     14  C   UNL     1       5.986  -3.040   3.690  0.00  0.00    +0.123 A 
ATOM     15  C   UNL     1       4.999  -2.805   4.633  0.00  0.00    +0.039 A 
ATOM     16  C   UNL     1       3.795  -2.249   4.251  0.00  0.00    +0.014 A 
ATOM     17  F   UNL     1       7.165  -3.579   4.069  0.00  0.00    -0.205 F 
ENDBRANCH   8  11
ENDBRANCH   5   6
ENDBRANCH   1   5
BRANCH   1  18
ATOM     18  C   UNL     1      -2.050  -0.126  -1.234  0.00  0.00    -0.046 C 
BRANCH  18  19
ATOM     19  C   UNL     1      -3.464  -0.648  -1.224  0.00  0.00    -0.063 A 
ATOM     20  C   UNL     1      -3.739  -1.905  -1.729  0.00  0.00    +0.005 A 
ATOM     21  C   UNL     1      -5.035  -2.386  -1.721  0.00  0.00    +0.047 A 
ATOM     22  C   UNL     1      -6.059  -1.607  -1.205  0.00  0.00    +0.145 A 
ATOM     23  C   UNL     1      -5.781  -0.345  -0.698  0.00  0.00    +0.083 A 
ATOM     24  C   UNL     1      -4.482   0.129  -0.703  0.00  0.00    +0.025 A 
ATOM     25 CL   UNL     1      -7.060   0.634  -0.051  0.00  0.00    -0.080 Cl
BRANCH  22  26
ATOM     26  O   UNL     1      -7.335  -2.077  -1.196  0.00  0.00    -0.433 OA
BRANCH  26  27
ATOM     27  C   UNL     1      -7.547  -3.384  -1.735  0.00  0.00    +0.541 C 
ATOM     28  F   UNL     1      -7.147  -3.406  -3.075  0.00  0.00    -0.166 F 
ATOM     29  F   UNL     1      -6.798  -4.315  -1.009  0.00  0.00    -0.166 F 
ENDBRANCH  26  27
ENDBRANCH  22  26
ENDBRANCH  18  19
ENDBRANCH   1  18
TORSDOF 7
