REMARK  Name = ZINC08772059
REMARK  16 active torsions:
REMARK  status: ('A' for Active; 'I' for Inactive)
REMARK    1  A    between atoms: CD1_1  and  CG_2
REMARK    2  A    between atoms: CG_2  and  CD2_3
REMARK    3  A    between atoms: CG_2  and  CB_4
REMARK    4  A    between atoms: CB_4  and  CA_5
REMARK    5  A    between atoms: CA_5  and  C_7
REMARK    6  A    between atoms: CA_5  and  N_18
REMARK    7  A    between atoms: N_9  and  CA_10
REMARK    8  A    between atoms: CA_10  and  CB_12
REMARK    9  A    between atoms: CA_10  and  C_16
REMARK   10  A    between atoms: CB_12  and  CG_13
REMARK   11  A    between atoms: CG_13  and  SD_14
REMARK   12  A    between atoms: SD_14  and  CE_15
REMARK   13  A    between atoms: C_29  and  O_35
REMARK   14  A    between atoms: C_30  and  C_32
REMARK   15  A    between atoms: C_32  and  C_33
REMARK   16  A    between atoms: C_32  and  C_34
REMARK                            x       y       z     vdW  Elec       q    Type
REMARK                         _______ _______ _______ _____ _____    ______ ____
ROOT
ATOM      1  N   MET A   1       3.845   4.722   2.115  0.00  0.00    -0.288 N 
ATOM      2  C   UNK A   0       2.688   4.461   1.476  0.00  0.00    +0.308 C 
ATOM      3  O   UNK A   0       1.722   5.179   1.649  0.00  0.00    -0.252 OA
ATOM      4  N   UNK A   0       2.602   3.404   0.644  0.00  0.00    -0.241 N 
ATOM      5  C   UNK A   0       1.384   3.039   0.048  0.00  0.00    +0.064 A 
ATOM      6  C   UNK A   0       0.175   3.299   0.662  0.00  0.00    +0.026 A 
ATOM      7  C   UNK A   0      -1.004   2.910   0.049  0.00  0.00    +0.002 A 
ATOM      8  C   UNK A   0      -0.974   2.264  -1.174  0.00  0.00    +0.002 A 
ATOM      9  C   UNK A   0       0.229   2.001  -1.799  0.00  0.00    +0.030 A 
ATOM     10  C   UNK A   0       1.422   2.389  -1.194  0.00  0.00    +0.089 A 
ATOM     11  N   UNK A   0       2.628   2.147  -1.795  0.00  0.00    -0.214 NA
ATOM     12  C   UNK A   0       3.744   2.228  -1.143  0.00  0.00    +0.209 C 
ATOM     13  C   UNK A   0       3.779   2.577   0.323  0.00  0.00    +0.171 C 
ATOM     14  H   MET A   1       4.637   4.199   1.918  0.00  0.00    +0.151 HD
ENDROOT
BRANCH  13  15
ATOM     15  C   UNK A   0       3.752   1.293   1.155  0.00  0.00    +0.013 C 
ATOM     16  C   UNK A   0       4.969   0.433   0.806  0.00  0.00    +0.009 C 
ATOM     17  C   UNK A   0       3.788   1.649   2.643  0.00  0.00    +0.009 C 
ENDBRANCH  13  15
BRANCH  12  18
ATOM     18  O   UNK A   0       4.903   1.991  -1.790  0.00  0.00    -0.494 OA
ATOM     19  H   UNK A   0       4.793   1.770  -2.726  0.00  0.00    +0.293 HD
ENDBRANCH  12  18
BRANCH   1  20
ATOM     20  CA  MET A   1       3.906   5.797   3.109  0.00  0.00    +0.161 C 
BRANCH  20  21
ATOM     21  C   MET A   1       5.323   6.298   3.220  0.00  0.00    +0.234 C 
ATOM     22  O   MET A   1       6.196   5.806   2.537  0.00  0.00    -0.274 OA
ATOM     23  N   MET A   1       5.620   7.294   4.079  0.00  0.00    -0.301 N 
ATOM     24  H   MET A   1       4.922   7.687   4.625  0.00  0.00    +0.150 HD
BRANCH  23  25
ATOM     25  CA  MET A   1       6.998   7.781   4.187  0.00  0.00    +0.187 C 
BRANCH  25  26
ATOM     26  C   MET A   1       7.248   8.819   3.123  0.00  0.00    +0.376 C 
ATOM     27  O   MET A   1       6.367   9.121   2.354  0.00  0.00    -0.244 OA
ATOM     28  OXT MET A   1       8.450   9.408   3.031  0.00  0.00    -0.244 OA
ENDBRANCH  25  26
BRANCH  25  29
ATOM     29  CB  MET A   1       7.211   8.404   5.568  0.00  0.00    +0.044 C 
BRANCH  29  30
ATOM     30  CG  MET A   1       7.080   7.322   6.641  0.00  0.00    +0.071 C 
BRANCH  30  31
ATOM     31  SD  MET A   1       7.333   8.060   8.279  0.00  0.00    -0.164 S 
ATOM     32  CE  MET A   1       7.146   6.665   9.423  0.00  0.00    +0.084 C 
ENDBRANCH  30  31
ENDBRANCH  29  30
ENDBRANCH  25  29
ENDBRANCH  23  25
ENDBRANCH  20  21
BRANCH  20  33
ATOM     33  CB  MET A   1       3.446   5.263   4.467  0.00  0.00    +0.034 C 
BRANCH  33  35
ATOM     34  CD1 MET A   1       1.543   4.221   5.705  0.00  0.00    +0.007 C 
ATOM     35  CG  MET A   1       1.970   4.870   4.387  0.00  0.00    -0.015 C 
ATOM     36  CD2 MET A   1       1.122   6.118   4.134  0.00  0.00    +0.007 C 
ENDBRANCH  33  35
ENDBRANCH  20  33
ENDBRANCH   1  20
TORSDOF 11
