REMARK  Name = ZINC63372203
REMARK  14 active torsions:
REMARK  status: ('A' for Active; 'I' for Inactive)
REMARK    1  A    between atoms: C_1  and  C_2
REMARK    2  A    between atoms: C_2  and  C_4
REMARK    3  A    between atoms: C_2  and  N_32
REMARK    4  A    between atoms: C_7  and  S_9
REMARK    5  A    between atoms: S_9  and  C_10
REMARK    6  A    between atoms: C_10  and  C_11
REMARK    7  A    between atoms: C_26  and  C_28
REMARK    8  A    between atoms: C_28  and  O_30
REMARK    9  A    between atoms: O_30  and  C_31
REMARK   10  A    between atoms: C_33  and  O_35
REMARK   11  A    between atoms: O_35  and  C_36
REMARK   12  A    between atoms: C_36  and  C_37
REMARK   13  A    between atoms: C_36  and  C_38
REMARK   14  A    between atoms: C_36  and  C_39
REMARK                            x       y       z     vdW  Elec       q    Type
REMARK                         _______ _______ _______ _____ _____    ______ ____
ROOT
ATOM      1  C   UNL     1       6.064  -1.536   6.540  0.00  0.00    +0.227 C 
ATOM      2  O   UNL     1       6.957  -2.024   5.880  0.00  0.00    -0.275 OA
ATOM      3  N   UNL     1       5.427  -2.278   7.467  0.00  0.00    -0.285 N 
ATOM      4  C   UNL     1       4.436  -1.646   8.351  0.00  0.00    +0.137 C 
ATOM      5  C   UNL     1       3.093  -2.352   8.132  0.00  0.00    +0.124 C 
ATOM      6  C   UNL     1       3.369  -3.848   8.214  0.00  0.00    -0.035 C 
ATOM      7  C   UNL     1       2.565  -4.327   9.156  0.00  0.00    -0.001 A 
ATOM      8  C   UNL     1       2.326  -5.697   9.636  0.00  0.00    +0.010 A 
ATOM      9  C   UNL     1       1.424  -5.830  10.644  0.00  0.00    +0.001 A 
ATOM     10  C   UNL     1       0.742  -4.751  11.214  0.00  0.00    +0.002 A 
ATOM     11  C   UNL     1       0.896  -3.458  10.831  0.00  0.00    +0.026 A 
ATOM     12  C   UNL     1       1.817  -3.191   9.776  0.00  0.00    +0.043 A 
ATOM     13  N   UNL     1       2.137  -2.047   9.198  0.00  0.00    -0.376 N 
ATOM     14  C   UNL     1       4.437  -4.521   7.387  0.00  0.00    +0.067 C 
ATOM     15  C   UNL     1       5.725  -3.710   7.581  0.00  0.00    +0.189 C 
ATOM     16  H   UNL     1       1.811  -1.164   9.432  0.00  0.00    +0.160 HD
ENDROOT
BRANCH  15  17
ATOM     17  C   UNL     1       6.727  -4.100   6.525  0.00  0.00    +0.328 C 
ATOM     18  O   UNL     1       6.411  -4.087   5.359  0.00  0.00    -0.249 OA
BRANCH  17  19
ATOM     19  O   UNL     1       7.969  -4.463   6.880  0.00  0.00    -0.467 OA
ATOM     20  C   UNL     1       8.866  -4.821   5.827  0.00  0.00    +0.280 C 
ENDBRANCH  17  19
ENDBRANCH  15  17
BRANCH   1  21
ATOM     21  C   UNL     1       5.667  -0.098   6.323  0.00  0.00    +0.175 C 
BRANCH  21  22
ATOM     22  S   UNL     1       6.701   0.625   5.020  0.00  0.00    -0.056 S 
BRANCH  22  26
ATOM     23  C   UNL     1       5.859   4.336   4.283  0.00  0.00    +0.238 A 
ATOM     24  N   UNL     1       5.008   4.054   5.225  0.00  0.00    -0.110 NA
ATOM     25  N   UNL     1       5.160   2.830   5.591  0.00  0.00    -0.101 NA
ATOM     26  C   UNL     1       6.122   2.284   4.887  0.00  0.00    +0.278 A 
ATOM     27  O   UNL     1       6.581   3.224   4.040  0.00  0.00    -0.414 OA
BRANCH  23  29
ATOM     28  C   UNL     1       6.716   6.652   4.512  0.00  0.00    +0.038 C 
ATOM     29  C   UNL     1       6.006   5.663   3.584  0.00  0.00    +0.161 C 
BRANCH  29  30
ATOM     30  N   UNL     1       4.681   6.183   3.239  0.00  0.00    -0.270 N 
ATOM     31  C   UNL     1       4.543   7.046   2.213  0.00  0.00    +0.401 C 
ATOM     32  O   UNL     1       5.517   7.393   1.575  0.00  0.00    -0.226 OA
ATOM     33  H   UNL     1       3.904   5.906   3.748  0.00  0.00    +0.153 HD
BRANCH  31  34
ATOM     34  O   UNL     1       3.325   7.524   1.895  0.00  0.00    -0.445 OA
BRANCH  34  35
ATOM     35  C   UNL     1       3.252   8.435   0.796  0.00  0.00    +0.107 C 
ATOM     36  C   UNL     1       3.767   7.749  -0.470  0.00  0.00    +0.055 C 
ATOM     37  C   UNL     1       1.798   8.866   0.587  0.00  0.00    +0.055 C 
ATOM     38  C   UNL     1       4.110   9.665   1.096  0.00  0.00    +0.055 C 
ENDBRANCH  34  35
ENDBRANCH  31  34
ENDBRANCH  29  30
ENDBRANCH  23  29
ENDBRANCH  22  26
ENDBRANCH  21  22
ENDBRANCH   1  21
TORSDOF 9
