REMARK  Name = ZINC35646593
REMARK  13 active torsions:
REMARK  status: ('A' for Active; 'I' for Inactive)
REMARK    1  A    between atoms: C_1  and  C_2
REMARK    2  A    between atoms: C_2  and  N_3
REMARK    3  A    between atoms: C_4  and  C_24
REMARK    4  A    between atoms: C_5  and  C_19
REMARK    5  A    between atoms: C_6  and  C_11
REMARK    6  A    between atoms: C_14  and  C_18
REMARK    7  A    between atoms: C_16  and  C_17
REMARK    8  A    between atoms: C_19  and  O_21
REMARK    9  A    between atoms: O_21  and  C_22
REMARK   10  A    between atoms: C_22  and  C_23
REMARK   11  A    between atoms: C_24  and  N_25
REMARK   12  A    between atoms: C_29  and  C_32
REMARK   13  A    between atoms: C_33  and  C_35
REMARK                            x       y       z     vdW  Elec       q    Type
REMARK                         _______ _______ _______ _____ _____    ______ ____
ROOT
ATOM      1  N   UNL     1      -1.095  -0.356  -0.080  0.00  0.00    -0.258 N 
ATOM      2  C   UNL     1      -1.555  -0.571   1.188  0.00  0.00    +0.041 C 
ATOM      3  C   UNL     1      -2.805  -1.032   1.407  0.00  0.00    +0.080 C 
ATOM      4  C   UNL     1      -3.679  -1.302   0.198  0.00  0.00    +0.144 C 
ATOM      5  N   UNL     1      -3.088  -1.038  -1.124  0.00  0.00    -0.288 N 
ATOM      6  C   UNL     1      -1.824  -0.574  -1.181  0.00  0.00    +0.307 C 
ATOM      7  O   UNL     1      -1.329  -0.349  -2.268  0.00  0.00    -0.252 OA
ATOM      8  H   UNL     1      -3.597  -1.192  -1.935  0.00  0.00    +0.151 HD
ENDROOT
BRANCH   4   9
ATOM      9  C   UNL     1      -4.094  -2.750   0.240  0.00  0.00    -0.020 A 
ATOM     10  C   UNL     1      -3.314  -3.711  -0.377  0.00  0.00    +0.006 A 
ATOM     11  C   UNL     1      -3.695  -5.039  -0.338  0.00  0.00    +0.004 A 
ATOM     12  C   UNL     1      -4.856  -5.407   0.317  0.00  0.00    -0.050 A 
ATOM     13  C   UNL     1      -5.635  -4.446   0.935  0.00  0.00    +0.007 A 
ATOM     14  C   UNL     1      -5.252  -3.119   0.900  0.00  0.00    -0.045 A 
ATOM     15  C   UNL     1      -6.098  -2.072   1.577  0.00  0.00    +0.044 C 
ATOM     16  C   UNL     1      -5.272  -6.855   0.358  0.00  0.00    +0.044 C 
ENDBRANCH   4   9
BRANCH   1  18
ATOM     17  C   UNL     1       0.258   1.675  -0.243  0.00  0.00    +0.025 C 
ATOM     18  C   UNL     1       0.272   0.145  -0.243  0.00  0.00    +0.111 C 
ENDBRANCH   1  18
BRANCH   3  19
ATOM     19  C   UNL     1      -3.284  -1.255   2.719  0.00  0.00    +0.339 C 
ATOM     20  O   UNL     1      -3.239  -2.371   3.201  0.00  0.00    -0.245 OA
BRANCH  19  21
ATOM     21  O   UNL     1      -3.788  -0.230   3.437  0.00  0.00    -0.462 OA
BRANCH  21  22
ATOM     22  C   UNL     1      -4.149  -0.502   4.792  0.00  0.00    +0.229 C 
ATOM     23  C   UNL     1      -4.811   0.735   5.403  0.00  0.00    +0.048 C 
ENDBRANCH  21  22
ENDBRANCH  19  21
ENDBRANCH   3  19
BRANCH   2  24
ATOM     24  C   UNL     1      -0.653  -0.288   2.362  0.00  0.00    +0.136 C 
BRANCH  24  25
ATOM     25  N   UNL     1       0.474  -1.230   2.350  0.00  0.00    -0.294 NA
ATOM     26  C   UNL     1       0.014  -2.606   2.578  0.00  0.00    +0.104 C 
ATOM     27  C   UNL     1       1.186  -3.573   2.379  0.00  0.00    +0.123 C 
ATOM     28  N   UNL     1       2.299  -3.140   3.237  0.00  0.00    -0.296 N 
ATOM     29  C   UNL     1       2.728  -1.735   3.165  0.00  0.00    +0.087 C 
ATOM     30  C   UNL     1       1.495  -0.841   3.333  0.00  0.00    +0.107 C 
ATOM     31  C   UNL     1       3.733  -1.447   4.282  0.00  0.00    +0.029 C 
ATOM     32  C   UNL     1       2.910  -4.008   4.068  0.00  0.00    +0.219 C 
ATOM     33  O   UNL     1       3.765  -3.616   4.833  0.00  0.00    -0.275 OA
BRANCH  32  34
ATOM     34  C   UNL     1       2.531  -5.467   4.045  0.00  0.00    +0.075 C 
ATOM     35  C   UNL     1       1.800  -6.026   5.267  0.00  0.00    +0.013 C 
ATOM     36  C   UNL     1       3.261  -6.402   5.011  0.00  0.00    +0.013 C 
ENDBRANCH  32  34
ENDBRANCH  24  25
ENDBRANCH   2  24
TORSDOF 8
