REMARK  Name = ZINC35641638
REMARK  11 active torsions:
REMARK  status: ('A' for Active; 'I' for Inactive)
REMARK    1  A    between atoms: C_1  and  C_2
REMARK    2  A    between atoms: C_2  and  N_3
REMARK    3  A    between atoms: C_4  and  C_23
REMARK    4  A    between atoms: C_5  and  C_18
REMARK    5  A    between atoms: C_6  and  C_11
REMARK    6  A    between atoms: C_18  and  O_20
REMARK    7  A    between atoms: O_20  and  C_21
REMARK    8  A    between atoms: C_21  and  C_22
REMARK    9  A    between atoms: C_23  and  N_24
REMARK   10  A    between atoms: N_27  and  C_30
REMARK   11  A    between atoms: C_35  and  C_36
REMARK                            x       y       z     vdW  Elec       q    Type
REMARK                         _______ _______ _______ _____ _____    ______ ____
ROOT
ATOM      1  N   UNL     1       0.855  -0.628  -1.665  0.00  0.00    -0.258 N 
ATOM      2  C   UNL     1      -0.071  -0.918  -2.626  0.00  0.00    +0.041 C 
ATOM      3  C   UNL     1       0.273  -1.590  -3.746  0.00  0.00    +0.080 C 
ATOM      4  C   UNL     1       1.721  -2.012  -3.898  0.00  0.00    +0.144 C 
ATOM      5  N   UNL     1       2.640  -1.651  -2.806  0.00  0.00    -0.288 N 
ATOM      6  C   UNL     1       2.147  -0.972  -1.751  0.00  0.00    +0.307 C 
ATOM      7  O   UNL     1       2.898  -0.666  -0.846  0.00  0.00    -0.252 OA
ATOM      8  H   UNL     1       3.578  -1.893  -2.846  0.00  0.00    +0.151 HD
ENDROOT
BRANCH   4   9
ATOM      9  C   UNL     1       2.251  -1.402  -5.171  0.00  0.00    -0.022 A 
ATOM     10  C   UNL     1       2.655  -0.081  -5.187  0.00  0.00    +0.007 A 
ATOM     11  C   UNL     1       3.141   0.479  -6.354  0.00  0.00    +0.020 A 
ATOM     12  C   UNL     1       3.223  -0.284  -7.505  0.00  0.00    +0.041 A 
ATOM     13  C   UNL     1       2.817  -1.606  -7.488  0.00  0.00    +0.020 A 
ATOM     14  C   UNL     1       2.337  -2.167  -6.319  0.00  0.00    +0.007 A 
ATOM     15 CL   UNL     1       3.832   0.419  -8.971  0.00  0.00    -0.084 Cl
ENDBRANCH   4   9
BRANCH   1  17
ATOM     16  C   UNL     1       0.553   1.608  -0.723  0.00  0.00    +0.025 C 
ATOM     17  C   UNL     1       0.412   0.105  -0.477  0.00  0.00    +0.111 C 
ENDBRANCH   1  17
BRANCH   3  18
ATOM     18  C   UNL     1      -0.685  -1.892  -4.742  0.00  0.00    +0.339 C 
ATOM     19  O   UNL     1      -1.845  -1.556  -4.591  0.00  0.00    -0.245 OA
BRANCH  18  20
ATOM     20  O   UNL     1      -0.313  -2.551  -5.858  0.00  0.00    -0.462 OA
BRANCH  20  21
ATOM     21  C   UNL     1      -1.333  -2.822  -6.822  0.00  0.00    +0.229 C 
ATOM     22  C   UNL     1      -0.726  -3.571  -8.010  0.00  0.00    +0.048 C 
ENDBRANCH  20  21
ENDBRANCH  18  20
ENDBRANCH   3  18
BRANCH   2  23
ATOM     23  C   UNL     1      -1.500  -0.479  -2.434  0.00  0.00    +0.136 C 
BRANCH  23  24
ATOM     24  N   UNL     1      -2.299  -1.613  -1.950  0.00  0.00    -0.294 NA
ATOM     25  C   UNL     1      -1.974  -1.927  -0.552  0.00  0.00    +0.103 C 
ATOM     26  C   UNL     1      -2.689  -3.219  -0.143  0.00  0.00    +0.120 C 
ATOM     27  N   UNL     1      -4.124  -3.070  -0.430  0.00  0.00    -0.327 N 
ATOM     28  C   UNL     1      -4.522  -2.624  -1.773  0.00  0.00    +0.120 C 
ATOM     29  C   UNL     1      -3.735  -1.355  -2.119  0.00  0.00    +0.103 C 
BRANCH  27  30
ATOM     30  C   UNL     1      -5.083  -3.345   0.548  0.00  0.00    +0.033 A 
ATOM     31  C   UNL     1      -5.519  -2.336   1.398  0.00  0.00    +0.023 A 
ATOM     32  C   UNL     1      -6.468  -2.611   2.364  0.00  0.00    +0.002 A 
ATOM     33  C   UNL     1      -6.983  -3.889   2.485  0.00  0.00    +0.000 A 
ATOM     34  C   UNL     1      -6.550  -4.895   1.640  0.00  0.00    +0.005 A 
ATOM     35  C   UNL     1      -5.606  -4.625   0.669  0.00  0.00    -0.029 A 
ATOM     36  C   UNL     1      -5.141  -5.721  -0.256  0.00  0.00    +0.045 C 
ENDBRANCH  27  30
ENDBRANCH  23  24
ENDBRANCH   2  23
TORSDOF 8
