REMARK  Name = ZINC12734038
REMARK  7 active torsions:
REMARK  status: ('A' for Active; 'I' for Inactive)
REMARK    1  A    between atoms: C_1  and  C_2
REMARK    2  A    between atoms: C_2  and  C_3
REMARK    3  A    between atoms: C_3  and  C_30
REMARK    4  A    between atoms: N_6  and  C_10
REMARK    5  A    between atoms: C_10  and  C_11
REMARK    6  A    between atoms: C_22  and  C_24
REMARK    7  A    between atoms: C_33  and  C_36
REMARK                            x       y       z     vdW  Elec       q    Type
REMARK                         _______ _______ _______ _____ _____    ______ ____
ROOT
ATOM      1  C   UNL     1      -3.216  -0.328   6.994  0.00  0.00    +0.214 C 
ENDROOT
BRANCH   1   2
ATOM      2  C   UNL     1      -1.944  -1.101   7.224  0.00  0.00    +0.238 C 
ATOM      3  O   UNL     1      -1.209  -1.353   6.292  0.00  0.00    -0.273 OA
ATOM      4  N   UNL     1      -1.621  -1.513   8.466  0.00  0.00    -0.261 N 
ATOM      5  C   UNL     1      -2.633  -1.589   9.427  0.00  0.00    +0.050 A 
ATOM      6  C   UNL     1      -3.954  -1.625   8.986  0.00  0.00    +0.024 A 
ATOM      7  C   UNL     1      -4.992  -1.693   9.893  0.00  0.00    +0.002 A 
ATOM      8  C   UNL     1      -4.729  -1.726  11.250  0.00  0.00    +0.001 A 
ATOM      9  C   UNL     1      -3.428  -1.704  11.697  0.00  0.00    +0.016 A 
ATOM     10  C   UNL     1      -2.376  -1.633  10.792  0.00  0.00    +0.029 A 
ATOM     11  S   UNL     1      -0.721  -1.593  11.402  0.00  0.00    -0.121 S 
ATOM     12  C   UNL     1       0.242  -1.040   9.963  0.00  0.00    +0.102 C 
ATOM     13  C   UNL     1      -0.230  -1.854   8.748  0.00  0.00    +0.122 C 
BRANCH  13  14
ATOM     14  C   UNL     1       0.624  -1.521   7.551  0.00  0.00    -0.026 A 
ATOM     15  C   UNL     1       0.974  -0.208   7.295  0.00  0.00    +0.005 A 
ATOM     16  C   UNL     1       1.760   0.096   6.200  0.00  0.00    +0.000 A 
ATOM     17  C   UNL     1       2.189  -0.911   5.355  0.00  0.00    +0.000 A 
ATOM     18  C   UNL     1       1.834  -2.223   5.608  0.00  0.00    +0.000 A 
ATOM     19  C   UNL     1       1.051  -2.528   6.706  0.00  0.00    +0.005 A 
ENDBRANCH  13  14
ENDBRANCH   1   2
BRANCH   1  23
ATOM     20  C   UNL     1      -2.974   1.480   3.758  0.00  0.00    +0.138 C 
ATOM     21  C   UNL     1      -3.305   0.247   4.577  0.00  0.00    +0.251 C 
ATOM     22  O   UNL     1      -3.723  -0.814   4.166  0.00  0.00    -0.272 OA
ATOM     23  N   UNL     1      -3.038   0.577   5.856  0.00  0.00    -0.215 N 
ATOM     24  C   UNL     1      -2.589   1.833   5.958  0.00  0.00    +0.310 C 
ATOM     25  O   UNL     1      -2.281   2.357   7.010  0.00  0.00    -0.252 OA
ATOM     26  N   UNL     1      -2.517   2.455   4.763  0.00  0.00    -0.281 N 
ATOM     27  H   UNL     1      -2.222   3.364   4.596  0.00  0.00    +0.152 HD
BRANCH  20  28
ATOM     28  C   UNL     1      -1.876   1.181   2.771  0.00  0.00    -0.015 A 
ATOM     29  C   UNL     1      -0.552   1.309   3.150  0.00  0.00    +0.006 A 
ATOM     30  C   UNL     1       0.456   1.034   2.244  0.00  0.00    +0.004 A 
ATOM     31  C   UNL     1       0.140   0.632   0.960  0.00  0.00    -0.050 A 
ATOM     32  C   UNL     1      -1.183   0.510   0.579  0.00  0.00    +0.004 A 
ATOM     33  C   UNL     1      -2.191   0.780   1.486  0.00  0.00    +0.006 A 
ATOM     34  C   UNL     1       1.239   0.334  -0.027  0.00  0.00    +0.044 C 
ENDBRANCH  20  28
BRANCH  20  36
ATOM     35  C   UNL     1      -5.274   2.408   4.064  0.00  0.00    +0.007 C 
ATOM     36  C   UNL     1      -4.220   1.996   3.034  0.00  0.00    +0.037 C 
ENDBRANCH  20  36
ENDBRANCH   1  23
TORSDOF 5
