REMARK  Name = ZINC39227664
REMARK  9 active torsions:
REMARK  status: ('A' for Active; 'I' for Inactive)
REMARK    1  A    between atoms: C_1  and  C_2
REMARK    2  A    between atoms: C_2  and  O_3
REMARK    3  A    between atoms: O_3  and  C_4
REMARK    4  A    between atoms: C_7  and  N_10
REMARK    5  A    between atoms: C_11  and  C_13
REMARK    6  A    between atoms: C_16  and  C_19
REMARK    7  A    between atoms: N_32  and  C_35
REMARK    8  A    between atoms: C_35  and  C_36
REMARK    9  A    between atoms: C_35  and  C_37
REMARK                            x       y       z     vdW  Elec       q    Type
REMARK                         _______ _______ _______ _____ _____    ______ ____
ROOT
ATOM      1  C   UNL     1       2.671 -12.129   3.144  0.00  0.00    -0.017 A 
ATOM      2  C   UNL     1       2.131 -12.979   2.174  0.00  0.00    +0.012 A 
ATOM      3  C   UNL     1       2.318 -14.341   2.254  0.00  0.00    +0.047 A 
ATOM      4  C   UNL     1       3.048 -14.887   3.303  0.00  0.00    +0.132 A 
ATOM      5  C   UNL     1       3.596 -14.037   4.279  0.00  0.00    +0.060 A 
ATOM      6  C   UNL     1       3.410 -12.659   4.196  0.00  0.00    +0.023 A 
ATOM      7  C   UNL     1       4.379 -14.624   5.382  0.00  0.00    +0.170 C 
ATOM      8  O   UNL     1       5.046 -13.937   6.127  0.00  0.00    -0.292 OA
ATOM      9  C   UNL     1       4.306 -16.133   5.537  0.00  0.00    +0.127 C 
ATOM     10  C   UNL     1       4.327 -16.733   4.124  0.00  0.00    +0.114 C 
ATOM     11  O   UNL     1       3.223 -16.228   3.376  0.00  0.00    -0.485 OA
ATOM     12  C   UNL     1       5.638 -16.349   3.432  0.00  0.00    +0.030 C 
ATOM     13  C   UNL     1       5.699 -17.021   2.059  0.00  0.00    -0.075 C 
ATOM     14  N   UNL     1       5.635 -18.479   2.221  0.00  0.00    +0.381 N 
ATOM     15  C   UNL     1       4.349 -18.859   2.816  0.00  0.00    -0.075 C 
ATOM     16  C   UNL     1       4.234 -18.258   4.219  0.00  0.00    +0.030 C 
ATOM     17  H   UNL     1       6.386 -18.782   2.822  0.00  0.00    -0.081 HD
ENDROOT
BRANCH   1  21
ATOM     18  C   UNL     1       2.067  -7.926   2.867  0.00  0.00    +0.037 A 
ATOM     19  C   UNL     1       1.522  -8.776   1.900  0.00  0.00    +0.013 A 
ATOM     20  C   UNL     1       1.719 -10.136   1.990  0.00  0.00    +0.009 A 
ATOM     21  C   UNL     1       2.460 -10.665   3.047  0.00  0.00    -0.018 A 
ATOM     22  C   UNL     1       3.004  -9.818   4.013  0.00  0.00    +0.009 A 
ATOM     23  C   UNL     1       2.814  -8.457   3.921  0.00  0.00    +0.013 A 
BRANCH  18  25
ATOM     24  N   UNL     1       1.136  -5.956   1.753  0.00  0.00    -0.281 N 
ATOM     25  C   UNL     1       1.857  -6.468   2.771  0.00  0.00    +0.248 C 
ATOM     26  O   UNL     1       2.334  -5.729   3.609  0.00  0.00    -0.270 OA
ATOM     27  H   UNL     1       0.691  -6.550   1.128  0.00  0.00    +0.155 HD
BRANCH  24  31
ATOM     28  C   UNL     1       0.818  -1.825   1.296  0.00  0.00    +0.121 A 
ATOM     29  C   UNL     1      -0.244  -2.645   0.942  0.00  0.00    +0.047 A 
ATOM     30  C   UNL     1      -0.139  -4.014   1.094  0.00  0.00    +0.027 A 
ATOM     31  C   UNL     1       1.029  -4.569   1.599  0.00  0.00    +0.034 A 
ATOM     32  C   UNL     1       2.091  -3.747   1.953  0.00  0.00    +0.027 A 
ATOM     33  C   UNL     1       1.987  -2.379   1.796  0.00  0.00    +0.047 A 
BRANCH  28  34
ATOM     34  O   UNL     1       0.714  -0.477   1.147  0.00  0.00    -0.492 OA
BRANCH  34  36
ATOM     35  C   UNL     1      -0.448   1.550   0.530  0.00  0.00    +0.048 C 
ATOM     36  C   UNL     1      -0.519   0.025   0.626  0.00  0.00    +0.225 C 
ENDBRANCH  34  36
ENDBRANCH  28  34
ENDBRANCH  24  31
ENDBRANCH  18  25
ENDBRANCH   1  21
BRANCH  14  37
ATOM     37  C   UNL     1       5.774 -19.122   0.907  0.00  0.00    -0.075 C 
ATOM     38  C   UNL     1       7.119 -18.735   0.289  0.00  0.00    -0.014 C 
ATOM     39  C   UNL     1       5.708 -20.642   1.074  0.00  0.00    -0.014 C 
ENDBRANCH  14  37
TORSDOF 6
