REMARK  Name = ZINC08780755
REMARK  5 active torsions:
REMARK  status: ('A' for Active; 'I' for Inactive)
REMARK    1  A    between atoms: C_14  and  C_15
REMARK    2  A    between atoms: N_16  and  N_17
REMARK    3  A    between atoms: C_18  and  C_20
REMARK    4  A    between atoms: C_25  and  C_26
REMARK    5  A    between atoms: C_25  and  N_59
REMARK                            x       y       z     vdW  Elec       q    Type
REMARK                         _______ _______ _______ _____ _____    ______ ____
ROOT
ATOM      1  N   UNL     1       2.865   5.205   6.170  0.00  0.00    -0.207 N 
ATOM      2  C   UNL     1       2.058   5.702   5.212  0.00  0.00    +0.235 C 
ATOM      3  O   UNL     1       1.189   6.497   5.503  0.00  0.00    -0.274 OA
ATOM      4  H   UNL     1       3.560   4.569   5.938  0.00  0.00    +0.177 HD
ENDROOT
BRANCH   2   5
ATOM      5  C   UNL     1       2.235   5.270   3.779  0.00  0.00    +0.073 C 
ATOM      6  C   UNL     1       1.199   5.977   2.900  0.00  0.00    -0.006 C 
ATOM      7  C   UNL     1       1.344   5.489   1.457  0.00  0.00    -0.078 C 
ATOM      8  C   UNL     1       2.155   3.332   2.207  0.00  0.00    -0.078 C 
ATOM      9  C   UNL     1       2.035   3.756   3.673  0.00  0.00    -0.006 C 
ATOM     10  N   UNL     1       1.116   4.029   1.419  0.00  0.00    +0.382 N 
ATOM     11  H   UNL     1       0.197   3.824   1.827  0.00  0.00    -0.081 HD
BRANCH  10  12
ATOM     12  C   UNL     1       1.138   3.551   0.021  0.00  0.00    -0.043 C 
BRANCH  12  13
ATOM     13  C   UNL     1       1.177   2.044   0.015  0.00  0.00    -0.064 A 
ATOM     14  C   UNL     1      -0.001   1.322   0.028  0.00  0.00    +0.003 A 
ATOM     15  C   UNL     1       0.035  -0.060   0.023  0.00  0.00    +0.015 A 
ATOM     16  C   UNL     1       1.250  -0.720   0.004  0.00  0.00    +0.018 A 
ATOM     17  C   UNL     1       2.429   0.003  -0.009  0.00  0.00    +0.015 A 
ATOM     18  C   UNL     1       2.392   1.385  -0.003  0.00  0.00    +0.003 A 
ATOM     19 BR   UNL     1       1.300  -2.610  -0.003  0.00  0.00    -0.050 Br
ENDBRANCH  12  13
ENDBRANCH  10  12
ENDBRANCH   2   5
BRANCH   1  21
ATOM     20  C   UNL     1       3.480   5.127   8.428  0.00  0.00    +0.139 C 
ATOM     21  N   UNL     1       2.701   5.606   7.502  0.00  0.00    -0.188 NA
BRANCH  20  35
ATOM     22  C   UNL     1       5.546   3.774  12.897  0.00  0.00    +0.001 A 
ATOM     23  C   UNL     1       5.713   3.371  11.573  0.00  0.00    +0.001 A 
ATOM     24  C   UNL     1       4.998   3.931  10.561  0.00  0.00    +0.009 A 
ATOM     25  C   UNL     1       4.061   4.939  10.847  0.00  0.00    -0.009 A 
ATOM     26  C   UNL     1       3.888   5.368  12.237  0.00  0.00    -0.017 A 
ATOM     27  C   UNL     1       4.661   4.745  13.240  0.00  0.00    +0.008 A 
ATOM     28  C   UNL     1       2.971   6.370  12.556  0.00  0.00    +0.017 A 
ATOM     29  C   UNL     1       2.217   6.972  11.547  0.00  0.00    -0.017 A 
ATOM     30  C   UNL     1       1.284   7.988  11.846  0.00  0.00    +0.008 A 
ATOM     31  C   UNL     1       0.566   8.555  10.842  0.00  0.00    +0.001 A 
ATOM     32  C   UNL     1       0.726   8.159   9.515  0.00  0.00    +0.001 A 
ATOM     33  C   UNL     1       1.609   7.186   9.162  0.00  0.00    +0.009 A 
ATOM     34  C   UNL     1       2.384   6.558  10.153  0.00  0.00    -0.009 A 
ATOM     35  C   UNL     1       3.308   5.546   9.822  0.00  0.00    +0.010 A 
ENDBRANCH  20  35
ENDBRANCH   1  21
TORSDOF 5
