REMARK  Name = ZINC37264079
REMARK  12 active torsions:
REMARK  status: ('A' for Active; 'I' for Inactive)
REMARK    1  A    between atoms: C_1  and  C_2
REMARK    2  A    between atoms: C_2  and  C_3
REMARK    3  A    between atoms: C_3  and  C_5
REMARK    4  A    between atoms: C_3  and  N_6
REMARK    5  A    between atoms: C_7  and  C_9
REMARK    6  A    between atoms: C_9  and  N_10
REMARK    7  A    between atoms: C_13  and  C_23
REMARK    8  A    between atoms: N_15  and  C_16
REMARK    9  A    between atoms: C_23  and  C_24
REMARK   10  A    between atoms: C_23  and  C_25
REMARK   11  A    between atoms: C_23  and  C_26
REMARK   12  A    between atoms: C_27  and  C_33
REMARK                            x       y       z     vdW  Elec       q    Type
REMARK                         _______ _______ _______ _____ _____    ______ ____
ROOT
ATOM      1  N   UNL     1      -0.015   1.966  10.167  0.00  0.00    -0.246 N 
ATOM      2  C   UNL     1       0.441   0.766   9.602  0.00  0.00    +0.136 A 
ATOM      3  C   UNL     1       0.776  -0.328  10.325  0.00  0.00    +0.034 A 
ATOM      4  C   UNL     1       1.188  -1.321   9.434  0.00  0.00    +0.075 A 
ATOM      5  N   UNL     1       1.101  -0.842   8.216  0.00  0.00    -0.169 NA
ATOM      6  N   UNL     1       0.628   0.478   8.292  0.00  0.00    -0.218 N 
ATOM      7  C   UNL     1       0.699  -0.424  11.827  0.00  0.00    +0.118 C 
ATOM      8  S   UNL     1       2.064   0.559  12.544  0.00  0.00    -0.138 S 
ATOM      9  C   UNL     1       2.069   2.035  11.473  0.00  0.00    +0.166 C 
ATOM     10  C   UNL     1       0.673   2.492  11.186  0.00  0.00    +0.231 C 
ATOM     11  O   UNL     1       0.162   3.342  11.884  0.00  0.00    -0.274 OA
ENDROOT
BRANCH   6  12
ATOM     12  C   UNL     1       0.393   1.339   7.210  0.00  0.00    +0.068 A 
ATOM     13  C   UNL     1       0.824   2.658   7.265  0.00  0.00    +0.030 A 
ATOM     14  C   UNL     1       0.592   3.504   6.199  0.00  0.00    +0.040 A 
ATOM     15  C   UNL     1      -0.072   3.039   5.076  0.00  0.00    +0.124 A 
ATOM     16  C   UNL     1      -0.504   1.724   5.020  0.00  0.00    +0.040 A 
ATOM     17  C   UNL     1      -0.267   0.873   6.082  0.00  0.00    +0.030 A 
ATOM     18  F   UNL     1      -0.299   3.869   4.034  0.00  0.00    -0.205 F 
ENDBRANCH   6  12
BRANCH   7  19
ATOM     19  C   UNL     1       0.830  -1.864  12.250  0.00  0.00    +0.007 A 
ATOM     20  C   UNL     1       1.940  -2.547  12.622  0.00  0.00    +0.012 A 
ATOM     21  C   UNL     1       1.822  -3.878  12.974  0.00  0.00    +0.008 A 
ATOM     22  C   UNL     1       0.599  -4.462  12.937  0.00  0.00    +0.045 A 
ATOM     23  S   UNL     1      -0.438  -3.112  12.398  0.00  0.00    -0.100 S 
ENDBRANCH   7  19
BRANCH   4  24
ATOM     24  C   UNL     1       1.653  -2.705   9.808  0.00  0.00    +0.007 C 
ATOM     25  C   UNL     1       0.464  -3.522  10.316  0.00  0.00    +0.017 C 
ATOM     26  C   UNL     1       2.255  -3.389   8.579  0.00  0.00    +0.017 C 
ATOM     27  C   UNL     1       2.712  -2.607  10.908  0.00  0.00    +0.017 C 
ENDBRANCH   4  24
BRANCH   1  28
ATOM     28  C   UNL     1      -1.213   2.631   9.649  0.00  0.00    +0.210 C 
BRANCH  28  30
ATOM     29  N   UNL     1      -3.610   2.789  10.239  0.00  0.00    -0.311 N 
ATOM     30  C   UNL     1      -2.409   2.223  10.469  0.00  0.00    +0.231 C 
ATOM     31  O   UNL     1      -2.291   1.383  11.337  0.00  0.00    -0.274 OA
ATOM     32  H   UNL     1      -3.721   3.406   9.499  0.00  0.00    +0.149 HD
BRANCH  29  33
ATOM     33  C   UNL     1      -4.747   2.474  11.107  0.00  0.00    +0.070 C 
ATOM     34  C   UNL     1      -4.788   3.463  12.273  0.00  0.00    +0.028 C 
BRANCH  33  36
ATOM     35  C   UNL     1      -6.058   1.505   9.214  0.00  0.00    +0.005 C 
ATOM     36  C   UNL     1      -6.045   2.578  10.304  0.00  0.00    +0.018 C 
ENDBRANCH  33  36
ENDBRANCH  29  33
ENDBRANCH  28  30
ENDBRANCH   1  28
TORSDOF 7
