REMARK  Name = ZINC49486182
REMARK  8 active torsions:
REMARK  status: ('A' for Active; 'I' for Inactive)
REMARK    1  A    between atoms: C_3  and  C_6
REMARK    2  A    between atoms: C_6  and  C_8
REMARK    3  A    between atoms: C_6  and  N_23
REMARK    4  A    between atoms: C_8  and  N_9
REMARK    5  A    between atoms: C_10  and  C_12
REMARK    6  A    between atoms: C_13  and  C_14
REMARK    7  A    between atoms: C_17  and  N_20
REMARK    8  A    between atoms: N_26  and  C_29
REMARK                            x       y       z     vdW  Elec       q    Type
REMARK                         _______ _______ _______ _____ _____    ______ ____
ROOT
ATOM      1  C   UNL     1       3.635   0.590   0.016  0.00  0.00    +0.017 C 
ENDROOT
BRANCH   1   2
ATOM      2  N   UNL     1       3.965  -0.566  -0.829  0.00  0.00    +0.389 N 
ATOM      3  C   UNL     1       5.405  -0.841  -0.736  0.00  0.00    -0.059 C 
ATOM      4  C   UNL     1       5.732  -2.113  -1.526  0.00  0.00    +0.086 C 
ATOM      5  N   UNL     1       5.232  -1.951  -2.899  0.00  0.00    -0.333 N 
ATOM      6  C   UNL     1       3.839  -1.516  -3.083  0.00  0.00    +0.086 C 
ATOM      7  C   UNL     1       3.601  -0.272  -2.221  0.00  0.00    -0.059 C 
ATOM      8  H   UNL     1       3.450  -1.372  -0.511  0.00  0.00    -0.081 HD
BRANCH   5   9
ATOM      9  C   UNL     1       6.057  -2.205  -3.999  0.00  0.00    +0.030 A 
ATOM     10  C   UNL     1       7.401  -2.497  -3.808  0.00  0.00    +0.026 A 
ATOM     11  C   UNL     1       8.214  -2.748  -4.896  0.00  0.00    +0.040 A 
ATOM     12  C   UNL     1       7.690  -2.707  -6.177  0.00  0.00    +0.124 A 
ATOM     13  C   UNL     1       6.350  -2.416  -6.370  0.00  0.00    +0.040 A 
ATOM     14  C   UNL     1       5.532  -2.170  -5.285  0.00  0.00    +0.026 A 
ATOM     15  F   UNL     1       8.487  -2.952  -7.240  0.00  0.00    -0.205 F 
ENDBRANCH   5   9
ENDBRANCH   1   2
BRANCH   1  18
ATOM     16  C   UNL     1       0.173   1.844  -0.156  0.00  0.00    +0.041 A 
ATOM     17  C   UNL     1       1.569   2.063  -0.107  0.00  0.00    +0.043 A 
ATOM     18  C   UNL     1       2.152   0.852  -0.050  0.00  0.00    +0.093 A 
ATOM     19  O   UNL     1       1.189  -0.084  -0.061  0.00  0.00    -0.469 OA
ATOM     20  C   UNL     1      -0.013   0.512  -0.126  0.00  0.00    +0.195 A 
ENDBRANCH   1  18
BRANCH   1  21
ATOM     21  C   UNL     1       4.037   0.295   1.463  0.00  0.00    +0.097 C 
BRANCH  21  22
ATOM     22  N   UNL     1       3.412  -0.957   1.898  0.00  0.00    -0.313 N 
ATOM     23  C   UNL     1       3.551  -1.371   3.173  0.00  0.00    +0.237 C 
ATOM     24  O   UNL     1       4.196  -0.707   3.962  0.00  0.00    -0.271 OA
ATOM     25  H   UNL     1       2.898  -1.486   1.269  0.00  0.00    +0.149 HD
BRANCH  23  26
ATOM     26  C   UNL     1       2.926  -2.622   3.608  0.00  0.00    +0.068 C 
ATOM     27  C   UNL     1       3.066  -3.038   4.883  0.00  0.00    +0.013 C 
BRANCH  27  28
ATOM     28  C   UNL     1       2.438  -4.295   5.320  0.00  0.00    -0.025 A 
ATOM     29  C   UNL     1       1.701  -5.065   4.415  0.00  0.00    +0.010 A 
ATOM     30  C   UNL     1       1.116  -6.242   4.832  0.00  0.00    +0.033 A 
ATOM     31  C   UNL     1       1.257  -6.662   6.143  0.00  0.00    +0.126 A 
ATOM     32  C   UNL     1       1.984  -5.905   7.046  0.00  0.00    +0.033 A 
ATOM     33  C   UNL     1       2.580  -4.729   6.642  0.00  0.00    +0.010 A 
BRANCH  31  34
ATOM     34  N   UNL     1       0.625  -7.926   6.583  0.00  0.00    +0.056 N 
ATOM     35  O   UNL     1      -0.011  -8.589   5.798  0.00  0.00    -0.126 OA
ATOM     36  O   UNL     1       0.746  -8.296   7.728  0.00  0.00    -0.126 OA
ENDBRANCH  31  34
ENDBRANCH  27  28
ENDBRANCH  23  26
ENDBRANCH  21  22
ENDBRANCH   1  21
TORSDOF 8
