REMARK  Name = ZINC09593164
REMARK  10 active torsions:
REMARK  status: ('A' for Active; 'I' for Inactive)
REMARK    1  A    between atoms: C_1  and  C_2
REMARK    2  A    between atoms: C_6  and  N_8
REMARK    3  A    between atoms: N_8  and  C_9
REMARK    4  A    between atoms: C_9  and  C_10
REMARK    5  A    between atoms: C_16  and  C_18
REMARK    6  A    between atoms: C_18  and  N_57
REMARK    7  A    between atoms: C_19  and  N_57
REMARK    8  A    between atoms: C_20  and  C_21
REMARK    9  A    between atoms: C_20  and  N_57
REMARK   10  A    between atoms: N_23  and  C_24
REMARK                            x       y       z     vdW  Elec       q    Type
REMARK                         _______ _______ _______ _____ _____    ______ ____
ROOT
ATOM      1  C   UNL     1      -2.493   5.106  -0.265  0.00  0.00    +0.019 C 
ENDROOT
BRANCH   1   3
ATOM      2  N   UNL     1      -0.027   5.216  -0.101  0.00  0.00    -0.269 N 
ATOM      3  C   UNL     1      -1.185   5.844  -0.389  0.00  0.00    +0.203 C 
ATOM      4  O   UNL     1      -1.174   7.002  -0.747  0.00  0.00    -0.277 OA
BRANCH   2  10
ATOM      5  C   UNL     1       0.534   1.678   3.266  0.00  0.00    +0.044 C 
ATOM      6  C   UNL     1       0.237   2.114   1.855  0.00  0.00    -0.049 A 
ATOM      7  C   UNL     1      -0.043   1.169   0.884  0.00  0.00    +0.003 A 
ATOM      8  C   UNL     1      -0.322   1.564  -0.411  0.00  0.00    +0.002 A 
ATOM      9  C   UNL     1      -0.317   2.906  -0.740  0.00  0.00    +0.023 A 
ATOM     10  C   UNL     1      -0.032   3.857   0.230  0.00  0.00    +0.037 A 
ATOM     11  C   UNL     1       0.248   3.456   1.530  0.00  0.00    +0.027 A 
ENDBRANCH   2  10
BRANCH   2  12
ATOM     12  C   UNL     1       1.236   5.958  -0.134  0.00  0.00    +0.148 C 
BRANCH  12  13
ATOM     13  C   UNL     1       1.829   5.878  -1.517  0.00  0.00    -0.030 A 
ATOM     14  C   UNL     1       2.697   4.851  -1.838  0.00  0.00    +0.005 A 
ATOM     15  C   UNL     1       3.237   4.775  -3.109  0.00  0.00    +0.000 A 
ATOM     16  C   UNL     1       2.917   5.731  -4.054  0.00  0.00    +0.000 A 
ATOM     17  C   UNL     1       2.054   6.761  -3.731  0.00  0.00    +0.000 A 
ATOM     18  C   UNL     1       1.510   6.835  -2.462  0.00  0.00    +0.005 A 
ENDBRANCH  12  13
ENDBRANCH   2  12
ENDBRANCH   1   3
BRANCH   1  20
ATOM     19  C   UNL     1      -3.667   7.045   0.587  0.00  0.00    -0.095 C 
ATOM     20  N   UNL     1      -3.600   6.054  -0.508  0.00  0.00    +0.389 N 
ATOM     21  H   UNL     1      -3.429   6.547  -1.393  0.00  0.00    -0.081 HD
BRANCH  20  22
ATOM     22  C   UNL     1      -4.880   5.322  -0.606  0.00  0.00    +0.019 C 
BRANCH  22  23
ATOM     23  C   UNL     1      -5.952   6.275  -1.071  0.00  0.00    +0.201 C 
ATOM     24  O   UNL     1      -5.679   7.439  -1.278  0.00  0.00    -0.278 OA
ATOM     25  N   UNL     1      -7.212   5.835  -1.254  0.00  0.00    -0.285 N 
ATOM     26  H   UNL     1      -7.415   4.891  -1.157  0.00  0.00    +0.155 HD
BRANCH  25  27
ATOM     27  C   UNL     1      -8.229   6.740  -1.587  0.00  0.00    +0.072 A 
ATOM     28  C   UNL     1      -7.931   7.881  -2.318  0.00  0.00    +0.029 A 
ATOM     29  C   UNL     1      -8.935   8.771  -2.650  0.00  0.00    +0.043 A 
ATOM     30  C   UNL     1     -10.237   8.531  -2.245  0.00  0.00    +0.161 A 
ATOM     31  C   UNL     1     -10.538   7.395  -1.510  0.00  0.00    +0.195 A 
ATOM     32  C   UNL     1      -9.536   6.498  -1.180  0.00  0.00    +0.182 A 
ATOM     33  F   UNL     1      -9.828   5.390  -0.464  0.00  0.00    -0.200 F 
ATOM     34  F   UNL     1     -11.809   7.162  -1.115  0.00  0.00    -0.199 F 
ATOM     35  F   UNL     1     -11.216   9.405  -2.567  0.00  0.00    -0.202 F 
ENDBRANCH  25  27
ENDBRANCH  22  23
ENDBRANCH  20  22
ENDBRANCH   1  20
TORSDOF 8
