REMARK  Name = ZINC66240916
REMARK  6 active torsions:
REMARK  status: ('A' for Active; 'I' for Inactive)
REMARK    1  A    between atoms: C_1  and  C_2
REMARK    2  A    between atoms: C_2  and  C_3
REMARK    3  A    between atoms: C_13  and  C_15
REMARK    4  A    between atoms: C_18  and  N_21
REMARK    5  A    between atoms: C_22  and  N_28
REMARK    6  A    between atoms: C_23  and  C_26
REMARK                            x       y       z     vdW  Elec       q    Type
REMARK                         _______ _______ _______ _____ _____    ______ ____
ROOT
ATOM      1  C   UNL     1       2.646  -3.788   8.836  0.00  0.00    +0.037 A 
ATOM      2  C   UNL     1       2.082  -3.097   9.911  0.00  0.00    +0.015 A 
ATOM      3  C   UNL     1       2.358  -3.490  11.201  0.00  0.00    +0.028 A 
ATOM      4  C   UNL     1       3.199  -4.572  11.435  0.00  0.00    +0.067 A 
ATOM      5  C   UNL     1       3.763  -5.263  10.368  0.00  0.00    +0.028 A 
ATOM      6  C   UNL     1       3.486  -4.879   9.075  0.00  0.00    +0.015 A 
ENDROOT
BRANCH   1  16
ATOM      7  C   UNL     1       0.742  -0.511   1.242  0.00  0.00    -0.006 C 
ATOM      8  C   UNL     1       0.868  -2.036   1.177  0.00  0.00    +0.010 C 
ATOM      9  C   UNL     1       1.811  -2.534   2.274  0.00  0.00    +0.056 C 
ATOM     10  C   UNL     1       1.347  -1.969   3.609  0.00  0.00    +0.054 A 
ATOM     11  C   UNL     1       0.516  -0.896   3.654  0.00  0.00    +0.015 A 
ATOM     12  S   UNL     1       0.291  -0.653   5.393  0.00  0.00    -0.057 S 
ATOM     13  C   UNL     1       1.264  -1.925   5.920  0.00  0.00    +0.165 A 
ATOM     14  N   UNL     1       1.698  -2.454   4.797  0.00  0.00    -0.229 NA
ATOM     15  N   UNL     1       1.542  -2.318   7.223  0.00  0.00    -0.261 N 
ATOM     16  C   UNL     1       2.352  -3.370   7.451  0.00  0.00    +0.250 C 
ATOM     17  O   UNL     1       2.840  -3.976   6.516  0.00  0.00    -0.270 OA
ATOM     18  C   UNL     1      -0.047  -0.129   2.505  0.00  0.00    +0.048 C 
ATOM     19  H   UNL     1       1.152  -1.835   7.968  0.00  0.00    +0.157 HD
BRANCH   7  21
ATOM     20  C   UNL     1      -0.019   1.526   0.010  0.00  0.00    +0.004 C 
ATOM     21  C   UNL     1       0.002  -0.004   0.002  0.00  0.00    +0.000 C 
ENDBRANCH   7  21
ENDBRANCH   1  16
BRANCH   4  22
ATOM     22  N   UNL     1       3.478  -4.968  12.746  0.00  0.00    -0.218 N 
ATOM     23  C   UNL     1       3.670  -6.245  13.168  0.00  0.00    +0.137 A 
ATOM     24  C   UNL     1       3.920  -6.187  14.537  0.00  0.00    +0.111 A 
ATOM     25  C   UNL     1       3.869  -4.824  14.911  0.00  0.00    +0.155 A 
ATOM     26  N   UNL     1       3.614  -4.115  13.848  0.00  0.00    -0.172 NA
BRANCH  23  27
ATOM     27  N   UNL     1       3.626  -7.383  12.388  0.00  0.00    -0.342 N 
ATOM     28  H   UNL     1       3.442  -7.314  11.438  0.00  0.00    +0.144 HD
ATOM     29  H   UNL     1       3.778  -8.253  12.790  0.00  0.00    +0.144 HD
ENDBRANCH  23  27
BRANCH  24  30
ATOM     30  C   UNL     1       4.180  -7.299  15.402  0.00  0.00    +0.104 C 
ATOM     31  N   UNL     1       4.386  -8.180  16.088  0.00  0.00    -0.191 NA
ENDBRANCH  24  30
ENDBRANCH   4  22
TORSDOF 5
