REMARK  Name = ZINC05034601
REMARK  7 active torsions:
REMARK  status: ('A' for Active; 'I' for Inactive)
REMARK    1  A    between atoms: C_1  and  C_2
REMARK    2  A    between atoms: C_2  and  C_5
REMARK    3  A    between atoms: N_3  and  N_4
REMARK    4  A    between atoms: C_5  and  O_29
REMARK    5  A    between atoms: C_10  and  C_28
REMARK    6  A    between atoms: N_22  and  N_23
REMARK    7  A    between atoms: C_26  and  C_27
REMARK                            x       y       z     vdW  Elec       q    Type
REMARK                         _______ _______ _______ _____ _____    ______ ____
ROOT
ATOM      1  C   UNL     1       5.662   2.221   1.348  0.00  0.00    +0.111 C 
ATOM      2  C   UNL     1       4.968   3.604   1.295  0.00  0.00    +0.042 C 
ATOM      3  C   UNL     1       3.446   3.329   1.152  0.00  0.00    +0.007 C 
ATOM      4  C   UNL     1       3.324   1.839   1.506  0.00  0.00    +0.002 C 
ATOM      5  C   UNL     1       4.580   1.246   0.840  0.00  0.00    +0.005 C 
ATOM      6  C   UNL     1       4.795  -0.198   1.222  0.00  0.00    +0.010 C 
ATOM      7  C   UNL     1       3.458  -0.835   1.655  0.00  0.00    +0.005 C 
ATOM      8  C   UNL     1       2.365  -0.308   0.738  0.00  0.00    +0.002 C 
ATOM      9  C   UNL     1       2.058   1.148   1.107  0.00  0.00    -0.003 C 
ATOM     10  C   UNL     1       1.258   1.782  -0.022  0.00  0.00    +0.008 C 
ATOM     11  C   UNL     1      -0.102   1.062  -0.066  0.00  0.00    +0.031 C 
ATOM     12  C   UNL     1       0.118  -0.434  -0.200  0.00  0.00    -0.062 C 
ATOM     13  C   UNL     1      -0.559  -1.059  -1.158  0.00  0.00    +0.024 C 
ATOM     14  C   UNL     1      -0.342  -2.493  -1.404  0.00  0.00    +0.059 C 
ATOM     15  N   UNL     1      -0.590  -3.038  -2.557  0.00  0.00    -0.194 NA
ATOM     16  C   UNL     1       0.192  -3.297  -0.235  0.00  0.00    +0.058 C 
ATOM     17  C   UNL     1       1.410  -2.553   0.308  0.00  0.00    +0.017 C 
ATOM     18  C   UNL     1       1.078  -1.129   0.731  0.00  0.00    -0.007 C 
ATOM     19  C   UNL     1       0.473  -1.181   2.132  0.00  0.00    +0.016 C 
ATOM     20  C   UNL     1       4.534   1.390  -0.685  0.00  0.00    +0.015 C 
ENDROOT
BRANCH   1  22
ATOM     21  C   UNL     1       7.680   0.939   0.309  0.00  0.00    +0.065 C 
ATOM     22  C   UNL     1       6.853   2.192   0.431  0.00  0.00    +0.065 C 
ATOM     23  N   UNL     1       7.164   3.233  -0.246  0.00  0.00    -0.196 NA
BRANCH  23  24
ATOM     24  N   UNL     1       8.274   3.207  -1.101  0.00  0.00    -0.283 N 
ATOM     25  H   UNL     1       8.806   2.400  -1.179  0.00  0.00    +0.164 HD
ATOM     26  H   UNL     1       8.510   3.995  -1.614  0.00  0.00    +0.164 HD
ENDBRANCH  23  24
ENDBRANCH   1  22
BRANCH  15  27
ATOM     27  N   UNL     1      -1.081  -2.255  -3.610  0.00  0.00    -0.282 N 
ATOM     28  H   UNL     1      -1.234  -1.306  -3.479  0.00  0.00    +0.164 HD
ATOM     29  H   UNL     1      -1.266  -2.662  -4.471  0.00  0.00    +0.164 HD
ENDBRANCH  15  27
BRANCH   1  30
ATOM     30  O   UNL     1       6.035   1.900   2.684  0.00  0.00    -0.382 OA
ATOM     31  H   UNL     1       6.713   2.481   3.054  0.00  0.00    +0.211 HD
ENDBRANCH   1  30
TORSDOF 4
