REMARK  Name = ZINC20575912
REMARK  4 active torsions:
REMARK  status: ('A' for Active; 'I' for Inactive)
REMARK    1  A    between atoms: C_3  and  C_8
REMARK    2  A    between atoms: C_8  and  N_9
REMARK    3  A    between atoms: C_18  and  N_19
REMARK    4  A    between atoms: N_19  and  C_20
REMARK                            x       y       z     vdW  Elec       q    Type
REMARK                         _______ _______ _______ _____ _____    ______ ____
ROOT
ATOM      1  N   UNL     1      -5.114   4.175  -0.666  0.00  0.00    -0.197 N 
ATOM      2  C   UNL     1      -6.235   3.372  -0.354  0.00  0.00    +0.070 A 
ATOM      3  C   UNL     1      -7.547   3.822  -0.339  0.00  0.00    +0.033 A 
ATOM      4  C   UNL     1      -8.549   2.967  -0.022  0.00  0.00    +0.048 A 
ATOM      5  S   UNL     1      -7.723   1.471   0.276  0.00  0.00    -0.091 S 
ATOM      6  C   UNL     1      -6.067   2.023  -0.030  0.00  0.00    +0.083 A 
ATOM      7  C   UNL     1      -4.831   1.272   0.026  0.00  0.00    +0.222 C 
ATOM      8  O   UNL     1      -4.841   0.052   0.073  0.00  0.00    -0.285 OA
ATOM      9  C   UNL     1      -3.597   1.994   0.030  0.00  0.00    +0.170 C 
ATOM     10  C   UNL     1      -2.414   1.347   0.021  0.00  0.00    +0.105 C 
ATOM     11  S   UNL     1      -3.666   3.761   0.040  0.00  0.00    +0.080 S 
ATOM     12  O   UNL     1      -3.746   4.159   1.401  0.00  0.00    -0.150 OA
ATOM     13  O   UNL     1      -2.639   4.215  -0.830  0.00  0.00    -0.150 OA
ENDROOT
BRANCH  10  14
ATOM     14  N   UNL     1      -1.244   2.058   0.019  0.00  0.00    -0.319 N 
ATOM     15  H   UNL     1      -1.269   3.158   0.025  0.00  0.00    +0.152 HD
BRANCH  14  16
ATOM     16  C   UNL     1      -0.017   1.386   0.010  0.00  0.00    +0.033 A 
ATOM     17  C   UNL     1       0.002  -0.004   0.002  0.00  0.00    +0.024 A 
ATOM     18  C   UNL     1       1.220  -0.660  -0.013  0.00  0.00    +0.019 A 
ATOM     19  C   UNL     1       2.386   0.070  -0.021  0.00  0.00    +0.037 A 
ATOM     20  C   UNL     1       2.402   1.466  -0.013  0.00  0.00    +0.051 A 
ATOM     21  C   UNL     1       1.157   2.115   0.002  0.00  0.00    +0.047 A 
ATOM     22  N   UNL     1       3.662   2.087  -0.022  0.00  0.00    -0.279 N 
ATOM     23  C   UNL     1       4.137   3.498  -0.019  0.00  0.00    +0.134 C 
ATOM     24  C   UNL     1       5.669   3.373  -0.035  0.00  0.00    +0.134 C 
ATOM     25  N   UNL     1       5.908   1.926  -0.045  0.00  0.00    -0.366 N 
ATOM     26  C   UNL     1       4.777   1.291  -0.037  0.00  0.00    +0.140 C 
ATOM     27  S   UNL     1       4.107  -0.364  -0.039  0.00  0.00    -0.054 S 
ATOM     28  H   UNL     1       6.854   1.365  -0.057  0.00  0.00    +0.161 HD
ENDBRANCH  14  16
ENDBRANCH  10  14
BRANCH   1  29
ATOM     29  C   UNL     1      -5.223   5.321  -1.571  0.00  0.00    +0.166 C 
BRANCH  29  32
ATOM     30  C   UNL     1      -3.708   4.366  -4.896  0.00  0.00    +0.003 A 
ATOM     31  C   UNL     1      -3.837   4.803  -3.590  0.00  0.00    +0.005 A 
ATOM     32  C   UNL     1      -5.085   4.851  -2.996  0.00  0.00    -0.026 A 
ATOM     33  C   UNL     1      -6.206   4.475  -3.711  0.00  0.00    +0.043 A 
ATOM     34  C   UNL     1      -6.079   4.043  -5.020  0.00  0.00    +0.124 A 
ATOM     35  C   UNL     1      -4.828   3.989  -5.612  0.00  0.00    +0.038 A 
ATOM     36  F   UNL     1      -7.174   3.675  -5.720  0.00  0.00    -0.205 F 
ENDBRANCH  29  32
ENDBRANCH   1  29
TORSDOF 4
