REMARK  Name = ZINC64983286
REMARK  11 active torsions:
REMARK  status: ('A' for Active; 'I' for Inactive)
REMARK    1  A    between atoms: C_1  and  C_2
REMARK    2  A    between atoms: C_2  and  C_4
REMARK    3  A    between atoms: C_2  and  O_23
REMARK    4  A    between atoms: N_6  and  C_7
REMARK    5  A    between atoms: C_10  and  S_13
REMARK    6  A    between atoms: S_13  and  N_16
REMARK    7  A    between atoms: O_23  and  C_24
REMARK    8  A    between atoms: C_27  and  C_30
REMARK    9  A    between atoms: C_30  and  C_31
REMARK   10  A    between atoms: C_30  and  C_32
REMARK   11  A    between atoms: C_30  and  C_33
REMARK                            x       y       z     vdW  Elec       q    Type
REMARK                         _______ _______ _______ _____ _____    ______ ____
ROOT
ATOM      1  C   UNL     1       0.400  -0.452  -1.325  0.00  0.00    +0.258 C 
ATOM      2  O   UNL     1      -0.414  -0.772  -2.163  0.00  0.00    -0.271 OA
ATOM      3  N   UNL     1       1.706  -0.370  -1.649  0.00  0.00    -0.282 N 
ATOM      4  H   UNL     1       2.367  -0.194  -0.962  0.00  0.00    +0.155 HD
ENDROOT
BRANCH   3   5
ATOM      5  C   UNL     1       2.108  -0.538  -2.979  0.00  0.00    +0.034 A 
ATOM      6  C   UNL     1       3.320  -1.151  -3.268  0.00  0.00    +0.025 A 
ATOM      7  C   UNL     1       3.714  -1.315  -4.581  0.00  0.00    +0.030 A 
ATOM      8  C   UNL     1       2.902  -0.871  -5.609  0.00  0.00    +0.109 A 
ATOM      9  C   UNL     1       1.695  -0.260  -5.325  0.00  0.00    +0.030 A 
ATOM     10  C   UNL     1       1.292  -0.098  -4.014  0.00  0.00    +0.025 A 
BRANCH   8  11
ATOM     11  S   UNL     1       3.408  -1.083  -7.283  0.00  0.00    +0.073 S 
ATOM     12  O   UNL     1       2.727  -0.093  -8.042  0.00  0.00    -0.150 OA
ATOM     13  O   UNL     1       4.825  -1.190  -7.269  0.00  0.00    -0.150 OA
BRANCH  11  14
ATOM     14  N   UNL     1       2.828  -2.549  -7.788  0.00  0.00    -0.199 N 
ATOM     15  C   UNL     1       1.457  -2.760  -7.880  0.00  0.00    +0.138 A 
ATOM     16  C   UNL     1       0.976  -3.996  -8.300  0.00  0.00    +0.045 A 
ATOM     17  C   UNL     1      -0.390  -4.192  -8.387  0.00  0.00    +0.005 A 
ATOM     18  C   UNL     1      -1.233  -3.141  -8.051  0.00  0.00    +0.020 A 
ATOM     19  C   UNL     1      -0.688  -1.940  -7.643  0.00  0.00    +0.113 A 
ATOM     20  N   UNL     1       0.621  -1.784  -7.563  0.00  0.00    -0.239 NA
ATOM     21  H   UNL     1       3.445  -3.261  -8.019  0.00  0.00    +0.175 HD
ENDBRANCH  11  14
ENDBRANCH   8  11
ENDBRANCH   3   5
BRANCH   1  23
ATOM     22  C   UNL     1       0.220   1.331   0.390  0.00  0.00    +0.062 C 
ATOM     23  C   UNL     1      -0.047  -0.144   0.081  0.00  0.00    +0.256 C 
BRANCH  23  24
ATOM     24  O   UNL     1      -1.445  -0.412   0.206  0.00  0.00    -0.480 OA
BRANCH  24  25
ATOM     25  C   UNL     1      -1.912  -0.689   1.452  0.00  0.00    +0.122 A 
ATOM     26  C   UNL     1      -3.233  -1.072   1.629  0.00  0.00    +0.046 A 
ATOM     27  C   UNL     1      -3.705  -1.353   2.897  0.00  0.00    +0.008 A 
ATOM     28  C   UNL     1      -2.861  -1.254   3.988  0.00  0.00    -0.037 A 
ATOM     29  C   UNL     1      -1.544  -0.872   3.813  0.00  0.00    +0.008 A 
ATOM     30  C   UNL     1      -1.066  -0.595   2.547  0.00  0.00    +0.046 A 
BRANCH  28  31
ATOM     31  C   UNL     1      -3.379  -1.561   5.370  0.00  0.00    +0.015 C 
ATOM     32  C   UNL     1      -4.826  -2.050   5.275  0.00  0.00    +0.021 C 
ATOM     33  C   UNL     1      -2.514  -2.650   6.008  0.00  0.00    +0.021 C 
BRANCH  31  34
ATOM     34  C   UNL     1      -3.323  -0.315   6.215  0.00  0.00    -0.037 A 
ATOM     35  C   UNL     1      -4.098   0.781   5.884  0.00  0.00    +0.004 A 
ATOM     36  C   UNL     1      -4.048   1.923   6.660  0.00  0.00    +0.000 A 
ATOM     37  C   UNL     1      -3.222   1.971   7.768  0.00  0.00    +0.000 A 
ATOM     38  C   UNL     1      -2.448   0.875   8.100  0.00  0.00    +0.000 A 
ATOM     39  C   UNL     1      -2.502  -0.270   7.326  0.00  0.00    +0.004 A 
ENDBRANCH  31  34
ENDBRANCH  28  31
ENDBRANCH  24  25
ENDBRANCH  23  24
ENDBRANCH   1  23
TORSDOF 8
