REMARK  Name = ZINC14882221
REMARK  7 active torsions:
REMARK  status: ('A' for Active; 'I' for Inactive)
REMARK    1  A    between atoms: C_1  and  C_2
REMARK    2  A    between atoms: C_2  and  C_3
REMARK    3  A    between atoms: C_3  and  C_20
REMARK    4  A    between atoms: N_6  and  C_10
REMARK    5  A    between atoms: C_10  and  C_11
REMARK    6  A    between atoms: C_25  and  C_26
REMARK    7  A    between atoms: C_25  and  N_65
REMARK                            x       y       z     vdW  Elec       q    Type
REMARK                         _______ _______ _______ _____ _____    ______ ____
ROOT
ATOM      1  C   UNL     1       3.918   7.007  -3.144  0.00  0.00    +0.115 C 
ATOM      2  C   UNL     1       5.172   7.846  -2.991  0.00  0.00    +0.247 C 
ATOM      3  O   UNL     1       5.454   8.580  -2.068  0.00  0.00    -0.273 OA
ATOM      4  N   UNL     1       5.908   7.605  -4.094  0.00  0.00    -0.220 N 
ATOM      5  C   UNL     1       5.300   6.740  -4.914  0.00  0.00    +0.310 C 
ATOM      6  O   UNL     1       5.768   6.368  -5.972  0.00  0.00    -0.252 OA
ATOM      7  N   UNL     1       4.111   6.328  -4.436  0.00  0.00    -0.285 N 
ATOM      8  H   UNL     1       3.501   5.705  -4.861  0.00  0.00    +0.151 HD
ENDROOT
BRANCH   1   9
ATOM      9  C   UNL     1       3.811   5.986  -2.010  0.00  0.00    +0.018 C 
ATOM     10  C   UNL     1       5.090   5.145  -1.957  0.00  0.00    -0.013 C 
ATOM     11  C   UNL     1       4.953   4.087  -0.860  0.00  0.00    -0.078 C 
ATOM     12  C   UNL     1       2.549   4.010  -1.153  0.00  0.00    -0.078 C 
ATOM     13  C   UNL     1       2.614   5.066  -2.259  0.00  0.00    -0.013 C 
ATOM     14  N   UNL     1       3.798   3.219  -1.171  0.00  0.00    +0.380 N 
ATOM     15  H   UNL     1       3.925   2.819  -2.108  0.00  0.00    -0.082 HD
BRANCH  14  16
ATOM     16  C   UNL     1       3.713   2.119  -0.188  0.00  0.00    -0.075 C 
BRANCH  16  17
ATOM     17  C   UNL     1       2.444   1.307  -0.457  0.00  0.00    -0.024 C 
ATOM     18  C   UNL     1       2.505   0.706  -1.867  0.00  0.00    +0.006 C 
ATOM     19  C   UNL     1       1.154   0.058  -2.175  0.00  0.00    +0.027 C 
ATOM     20  C   UNL     1       0.740  -0.837  -1.044  0.00  0.00    -0.031 C 
ATOM     21  C   UNL     1       1.251  -0.789   0.144  0.00  0.00    -0.031 C 
ATOM     22  C   UNL     1       2.337   0.162   0.553  0.00  0.00    +0.028 C 
ENDBRANCH  16  17
ENDBRANCH  14  16
ENDBRANCH   1   9
BRANCH   1  24
ATOM     23  C   UNL     1       2.748   8.823  -4.399  0.00  0.00    +0.006 C 
ATOM     24  C   UNL     1       2.674   7.897  -3.184  0.00  0.00    +0.032 C 
ENDBRANCH   1  24
BRANCH   4  25
ATOM     25  C   UNL     1       7.213   8.214  -4.361  0.00  0.00    +0.153 C 
BRANCH  25  26
ATOM     26  C   UNL     1       7.020   9.503  -5.117  0.00  0.00    -0.026 A 
ATOM     27  C   UNL     1       6.865  10.691  -4.426  0.00  0.00    +0.009 A 
ATOM     28  C   UNL     1       6.689  11.877  -5.115  0.00  0.00    +0.050 A 
ATOM     29  C   UNL     1       6.667  11.877  -6.500  0.00  0.00    +0.166 A 
ATOM     30  C   UNL     1       6.822  10.681  -7.196  0.00  0.00    +0.167 A 
ATOM     31  C   UNL     1       7.004   9.497  -6.499  0.00  0.00    +0.054 A 
ATOM     32  O   UNL     1       6.764  10.944  -8.534  0.00  0.00    -0.453 OA
ATOM     33  C   UNL     1       6.164  12.248  -8.644  0.00  0.00    +0.466 C 
ATOM     34  O   UNL     1       6.511  12.890  -7.402  0.00  0.00    -0.453 OA
ENDBRANCH  25  26
ENDBRANCH   4  25
TORSDOF 6
