REMARK  Name = ZINC00866888
REMARK  4 active torsions:
REMARK  status: ('A' for Active; 'I' for Inactive)
REMARK    1  A    between atoms: C_3  and  C_6
REMARK    2  A    between atoms: C_9  and  C_33
REMARK    3  A    between atoms: C_14  and  C_16
REMARK    4  A    between atoms: N_21  and  C_24
REMARK                            x       y       z     vdW  Elec       q    Type
REMARK                         _______ _______ _______ _____ _____    ______ ____
ROOT
ATOM      1  C   UNL     1       3.840   0.605  -0.014  0.00  0.00    +0.140 C 
ATOM      2  C   UNL     1       4.454   0.300   1.357  0.00  0.00    +0.066 C 
ATOM      3  C   UNL     1       3.852  -0.990   1.924  0.00  0.00    +0.215 C 
ATOM      4  N   UNL     1       3.928  -2.038   0.902  0.00  0.00    -0.237 N 
ATOM      5  C   UNL     1       4.092  -1.785  -0.431  0.00  0.00    +0.137 A 
ATOM      6  C   UNL     1       4.123  -2.966  -1.081  0.00  0.00    +0.112 A 
ATOM      7  C   UNL     1       3.969  -3.988  -0.117  0.00  0.00    +0.167 A 
ATOM      8  N   UNL     1       3.852  -3.420   1.071  0.00  0.00    -0.163 NA
ATOM      9 CL   UNL     1       4.315  -3.190  -2.792  0.00  0.00    -0.078 Cl
ATOM     10  N   UNL     1       4.199  -0.484  -0.944  0.00  0.00    -0.318 N 
ATOM     11  H   UNL     1       4.491  -0.308  -1.853  0.00  0.00    +0.148 HD
ENDROOT
BRANCH   7  12
ATOM     12  C   UNL     1       3.943  -5.439  -0.390  0.00  0.00    +0.268 C 
ATOM     13  O   UNL     1       4.008  -5.844  -1.534  0.00  0.00    -0.268 OA
ATOM     14  N   UNL     1       3.848  -6.315   0.630  0.00  0.00    -0.293 N 
ATOM     15  C   UNL     1       3.621  -5.842   2.003  0.00  0.00    +0.127 C 
ATOM     16  C   UNL     1       2.373  -6.538   2.561  0.00  0.00    +0.124 C 
ATOM     17  N   UNL     1       2.494  -7.982   2.321  0.00  0.00    -0.327 N 
ATOM     18  C   UNL     1       2.721  -8.455   0.948  0.00  0.00    +0.124 C 
ATOM     19  C   UNL     1       3.963  -7.760   0.389  0.00  0.00    +0.127 C 
BRANCH  17  20
ATOM     20  C   UNL     1       2.395  -8.891   3.379  0.00  0.00    +0.030 A 
ATOM     21  C   UNL     1       2.654 -10.239   3.165  0.00  0.00    +0.026 A 
ATOM     22  C   UNL     1       2.556 -11.134   4.212  0.00  0.00    +0.040 A 
ATOM     23  C   UNL     1       2.200 -10.689   5.474  0.00  0.00    +0.124 A 
ATOM     24  C   UNL     1       1.942  -9.346   5.690  0.00  0.00    +0.040 A 
ATOM     25  C   UNL     1       2.044  -8.446   4.647  0.00  0.00    +0.026 A 
ATOM     26  F   UNL     1       2.104 -11.567   6.497  0.00  0.00    -0.205 F 
ENDBRANCH  17  20
ENDBRANCH   7  12
BRANCH   1  29
ATOM     27  C   UNL     1       0.265   1.445   0.289  0.00  0.00    +0.041 A 
ATOM     28  C   UNL     1       1.622   1.826   0.182  0.00  0.00    +0.046 A 
ATOM     29  C   UNL     1       2.341   0.692   0.111  0.00  0.00    +0.125 A 
ATOM     30  O   UNL     1       1.496  -0.351   0.169  0.00  0.00    -0.466 OA
ATOM     31  C   UNL     1       0.236   0.100   0.277  0.00  0.00    +0.195 A 
ENDBRANCH   1  29
BRANCH   3  32
ATOM     32  C   UNL     1       4.640  -1.422   3.163  0.00  0.00    +0.412 C 
ATOM     33  F   UNL     1       4.575  -0.415   4.131  0.00  0.00    -0.168 F 
ATOM     34  F   UNL     1       4.089  -2.600   3.678  0.00  0.00    -0.168 F 
ATOM     35  F   UNL     1       5.975  -1.647   2.811  0.00  0.00    -0.168 F 
ENDBRANCH   3  32
TORSDOF 4
