REMARK  Name = ZINC13112158
REMARK  10 active torsions:
REMARK  status: ('A' for Active; 'I' for Inactive)
REMARK    1  A    between atoms: C_1  and  C_2
REMARK    2  A    between atoms: C_2  and  C_4
REMARK    3  A    between atoms: C_2  and  S_30
REMARK    4  A    between atoms: N_6  and  C_7
REMARK    5  A    between atoms: N_6  and  C_13
REMARK    6  A    between atoms: C_7  and  C_8
REMARK    7  A    between atoms: C_14  and  N_29
REMARK    8  A    between atoms: N_15  and  C_22
REMARK    9  A    between atoms: C_22  and  C_23
REMARK   10  A    between atoms: S_30  and  C_31
REMARK                            x       y       z     vdW  Elec       q    Type
REMARK                         _______ _______ _______ _____ _____    ______ ____
ROOT
ATOM      1  C   UNL     1       3.166   2.543   1.009  0.00  0.00    +0.140 A 
ATOM      2  C   UNL     1       3.499   1.598   0.060  0.00  0.00    +0.128 A 
ATOM      3  N   UNL     1       2.704   1.456  -1.054  0.00  0.00    -0.276 N 
ATOM      4  C   UNL     1       1.610   2.223  -1.211  0.00  0.00    +0.331 A 
ATOM      5  O   UNL     1       0.917   2.079  -2.200  0.00  0.00    -0.246 OA
ATOM      6  N   UNL     1       1.267   3.145  -0.294  0.00  0.00    -0.273 N 
ATOM      7  H   UNL     1       0.449   3.702  -0.435  0.00  0.00    +0.173 HD
ATOM      8  C   UNL     1       2.014   3.327   0.812  0.00  0.00    +0.277 A 
ATOM      9  O   UNL     1       1.695   4.167   1.637  0.00  0.00    -0.266 OA
ENDROOT
BRANCH   1  12
ATOM     10  C   UNL     1       3.468   2.411   3.377  0.00  0.00    +0.233 C 
ATOM     11  O   UNL     1       2.312   2.060   3.490  0.00  0.00    -0.274 OA
ATOM     12  N   UNL     1       3.964   2.716   2.159  0.00  0.00    -0.256 N 
BRANCH  10  14
ATOM     13  C   UNL     1       5.233   1.262   4.686  0.00  0.00    +0.029 C 
ATOM     14  C   UNL     1       4.349   2.508   4.595  0.00  0.00    +0.134 C 
BRANCH  14  15
ATOM     15  S   UNL     1       3.316   2.625   6.081  0.00  0.00    -0.113 S 
BRANCH  15  16
ATOM     16  C   UNL     1       2.520   4.189   5.925  0.00  0.00    +0.009 A 
ATOM     17  C   UNL     1       2.713   4.958   4.784  0.00  0.00    +0.015 A 
ATOM     18  C   UNL     1       2.085   6.181   4.662  0.00  0.00    +0.001 A 
ATOM     19  C   UNL     1       1.272   6.647   5.680  0.00  0.00    +0.000 A 
ATOM     20  C   UNL     1       1.081   5.887   6.820  0.00  0.00    +0.001 A 
ATOM     21  C   UNL     1       1.703   4.660   6.946  0.00  0.00    +0.015 A 
ENDBRANCH  15  16
ENDBRANCH  14  15
ENDBRANCH  10  14
BRANCH  12  22
ATOM     22  C   UNL     1       5.331   3.227   2.033  0.00  0.00    +0.188 C 
BRANCH  22  23
ATOM     23  C   UNL     1       5.303   4.733   1.987  0.00  0.00    +0.122 A 
ATOM     24  C   UNL     1       5.376   5.554   3.050  0.00  0.00    +0.046 A 
ATOM     25  C   UNL     1       5.313   6.876   2.552  0.00  0.00    +0.041 A 
ATOM     26  C   UNL     1       5.206   6.783   1.214  0.00  0.00    +0.195 A 
ATOM     27  O   UNL     1       5.206   5.483   0.877  0.00  0.00    -0.466 OA
ENDBRANCH  22  23
ENDBRANCH  12  22
ENDBRANCH   1  12
BRANCH   2  28
ATOM     28  N   UNL     1       4.614   0.812   0.223  0.00  0.00    -0.343 N 
ATOM     29  H   UNL     1       4.891   0.210  -0.485  0.00  0.00    +0.144 HD
ATOM     30  H   UNL     1       5.124   0.858   1.046  0.00  0.00    +0.144 HD
ENDBRANCH   2  28
BRANCH   3  31
ATOM     31  C   UNL     1       3.048   0.460  -2.072  0.00  0.00    +0.163 C 
BRANCH  31  32
ATOM     32  C   UNL     1       3.944   1.089  -3.107  0.00  0.00    -0.028 A 
ATOM     33  C   UNL     1       3.394   1.693  -4.223  0.00  0.00    +0.005 A 
ATOM     34  C   UNL     1       4.215   2.274  -5.170  0.00  0.00    +0.000 A 
ATOM     35  C   UNL     1       5.588   2.243  -5.008  0.00  0.00    +0.000 A 
ATOM     36  C   UNL     1       6.138   1.635  -3.895  0.00  0.00    +0.000 A 
ATOM     37  C   UNL     1       5.316   1.058  -2.945  0.00  0.00    +0.005 A 
ENDBRANCH  31  32
ENDBRANCH   3  31
TORSDOF 9
