REMARK  Name = ZINC14471410
REMARK  6 active torsions:
REMARK  status: ('A' for Active; 'I' for Inactive)
REMARK    1  A    between atoms: C_1  and  C_2
REMARK    2  A    between atoms: C_2  and  N_3
REMARK    3  A    between atoms: N_3  and  C_4
REMARK    4  A    between atoms: C_10  and  C_12
REMARK    5  A    between atoms: C_25  and  C_28
REMARK    6  A    between atoms: C_32  and  N_34
REMARK                            x       y       z     vdW  Elec       q    Type
REMARK                         _______ _______ _______ _____ _____    ______ ____
ROOT
ATOM      1  C   UNL     1      -5.112   5.394  -0.114  0.00  0.00    +0.038 A 
ATOM      2  C   UNL     1      -4.661   5.996   1.064  0.00  0.00    +0.015 A 
ATOM      3  C   UNL     1      -3.357   5.813   1.463  0.00  0.00    +0.024 A 
ATOM      4  C   UNL     1      -2.493   5.033   0.699  0.00  0.00    +0.031 A 
ATOM      5  C   UNL     1      -2.930   4.431  -0.474  0.00  0.00    -0.019 A 
ATOM      6  C   UNL     1      -4.242   4.614  -0.876  0.00  0.00    +0.019 A 
ATOM      7  C   UNL     1      -2.033   3.588  -1.325  0.00  0.00    +0.049 C 
ATOM      8  C   UNL     1      -2.322   2.092  -1.172  0.00  0.00    -0.023 C 
ATOM      9  C   UNL     1      -1.208   1.402  -1.222  0.00  0.00    -0.030 C 
ATOM     10  C   UNL     1      -0.021   2.324  -1.422  0.00  0.00    +0.033 C 
ATOM     11  C   UNL     1      -0.548   3.704  -0.928  0.00  0.00    +0.029 C 
ATOM     12  C   UNL     1      -0.416   3.723   0.598  0.00  0.00    +0.105 C 
ATOM     13  N   UNL     1      -1.195   4.847   1.127  0.00  0.00    -0.336 N 
ATOM     14  H   UNL     1      -0.802   5.469   1.760  0.00  0.00    +0.147 HD
ENDROOT
BRANCH  12  15
ATOM     15  C   UNL     1      -0.945   2.431   1.166  0.00  0.00    -0.025 A 
ATOM     16  C   UNL     1      -2.307   2.250   1.321  0.00  0.00    +0.007 A 
ATOM     17  C   UNL     1      -2.792   1.063   1.837  0.00  0.00    +0.022 A 
ATOM     18  C   UNL     1      -1.914   0.061   2.209  0.00  0.00    +0.071 A 
ATOM     19  C   UNL     1      -0.551   0.242   2.054  0.00  0.00    +0.145 A 
ATOM     20  C   UNL     1      -0.068   1.428   1.532  0.00  0.00    +0.039 A 
ATOM     21 CL   UNL     1      -2.522  -1.428   2.864  0.00  0.00    -0.081 Cl
BRANCH  19  22
ATOM     22  N   UNL     1       0.388  -0.832   2.446  0.00  0.00    +0.058 N 
ATOM     23  O   UNL     1       1.588  -0.672   2.309  0.00  0.00    -0.126 OA
ATOM     24  O   UNL     1      -0.038  -1.876   2.905  0.00  0.00    -0.126 OA
ENDBRANCH  19  22
ENDBRANCH  12  15
BRANCH   1  26
ATOM     25  N   UNL     1      -7.481   5.767   0.362  0.00  0.00    -0.268 N 
ATOM     26  C   UNL     1      -6.508   5.583  -0.552  0.00  0.00    +0.251 C 
ATOM     27  O   UNL     1      -6.780   5.573  -1.737  0.00  0.00    -0.270 OA
BRANCH  25  28
ATOM     28  C   UNL     1      -8.821   5.792  -0.039  0.00  0.00    +0.037 A 
ATOM     29  C   UNL     1      -9.813   6.136   0.871  0.00  0.00    +0.023 A 
ATOM     30  C   UNL     1     -11.134   6.165   0.470  0.00  0.00    +0.002 A 
ATOM     31  C   UNL     1     -11.471   5.841  -0.832  0.00  0.00    +0.000 A 
ATOM     32  C   UNL     1     -10.487   5.492  -1.738  0.00  0.00    +0.002 A 
ATOM     33  C   UNL     1      -9.163   5.467  -1.345  0.00  0.00    +0.023 A 
ENDBRANCH  25  28
BRANCH  25  35
ATOM     34  C   UNL     1      -7.154   7.430   2.125  0.00  0.00    +0.025 C 
ATOM     35  C   UNL     1      -7.136   5.940   1.775  0.00  0.00    +0.110 C 
ENDBRANCH  25  35
ENDBRANCH   1  26
TORSDOF 5
