REMARK  Name = ZINC39595968
REMARK  10 active torsions:
REMARK  status: ('A' for Active; 'I' for Inactive)
REMARK    1  A    between atoms: C_1  and  C_2
REMARK    2  A    between atoms: C_2  and  C_4
REMARK    3  A    between atoms: C_2  and  O_31
REMARK    4  A    between atoms: C_4  and  N_5
REMARK    5  A    between atoms: C_6  and  C_8
REMARK    6  A    between atoms: C_19  and  C_21
REMARK    7  A    between atoms: C_21  and  C_23
REMARK    8  A    between atoms: C_21  and  O_24
REMARK    9  A    between atoms: O_24  and  C_25
REMARK   10  A    between atoms: O_31  and  C_32
REMARK                            x       y       z     vdW  Elec       q    Type
REMARK                         _______ _______ _______ _____ _____    ______ ____
ROOT
ATOM      1  C   UNL     1       1.041  -4.152   2.023  0.00  0.00    +0.100 C 
ATOM      2  C   UNL     1      -0.474  -4.457   2.050  0.00  0.00    +0.121 C 
ATOM      3  N   UNL     1      -0.602  -5.637   2.938  0.00  0.00    -0.297 N 
ATOM      4  C   UNL     1       0.369  -5.384   4.029  0.00  0.00    +0.115 C 
ATOM      5  C   UNL     1       1.590  -4.761   3.324  0.00  0.00    -0.004 C 
ATOM      6  C   UNL     1       2.623  -5.838   3.008  0.00  0.00    -0.010 C 
ATOM      7  C   UNL     1       3.196  -6.389   4.316  0.00  0.00    -0.082 C 
ATOM      8  N   UNL     1       3.814  -5.299   5.080  0.00  0.00    +0.379 N 
ATOM      9  C   UNL     1       2.795  -4.312   5.459  0.00  0.00    -0.082 C 
ATOM     10  C   UNL     1       2.206  -3.674   4.199  0.00  0.00    -0.010 C 
ATOM     11  C   UNL     1      -1.417  -6.699   2.787  0.00  0.00    +0.256 C 
ATOM     12  O   UNL     1      -2.094  -6.807   1.786  0.00  0.00    -0.272 OA
ATOM     13  H   UNL     1       4.244  -5.674   5.912  0.00  0.00    -0.086 HD
ATOM     14  H   UNL     1       4.519  -4.851   4.513  0.00  0.00    -0.086 HD
ENDROOT
BRANCH   1  16
ATOM     15  N   UNL     1       2.373  -2.163   1.400  0.00  0.00    -0.312 N 
ATOM     16  C   UNL     1       1.276  -2.663   2.001  0.00  0.00    +0.218 C 
ATOM     17  O   UNL     1       0.477  -1.915   2.524  0.00  0.00    -0.275 OA
ATOM     18  H   UNL     1       3.012  -2.761   0.982  0.00  0.00    +0.149 HD
BRANCH  15  19
ATOM     19  C   UNL     1       2.601  -0.716   1.379  0.00  0.00    +0.148 C 
BRANCH  19  21
ATOM     20  C   UNL     1       4.146   1.095   0.618  0.00  0.00    +0.053 C 
ATOM     21  C   UNL     1       3.908  -0.417   0.640  0.00  0.00    +0.187 C 
BRANCH  21  22
ATOM     22  O   UNL     1       4.993  -1.060   1.312  0.00  0.00    -0.488 OA
BRANCH  22  23
ATOM     23  C   UNL     1       6.058  -1.428   0.552  0.00  0.00    +0.121 A 
ATOM     24  C   UNL     1       7.100  -2.147   1.119  0.00  0.00    +0.048 A 
ATOM     25  C   UNL     1       8.182  -2.521   0.345  0.00  0.00    +0.042 A 
ATOM     26  C   UNL     1       8.227  -2.176  -0.995  0.00  0.00    +0.124 A 
ATOM     27  C   UNL     1       7.188  -1.457  -1.562  0.00  0.00    +0.042 A 
ATOM     28  C   UNL     1       6.102  -1.089  -0.792  0.00  0.00    +0.048 A 
ATOM     29  F   UNL     1       9.286  -2.541  -1.750  0.00  0.00    -0.205 F 
ENDBRANCH  22  23
ENDBRANCH  21  22
ENDBRANCH  19  21
ENDBRANCH  15  19
ENDBRANCH   1  16
BRANCH  11  30
ATOM     30  C   UNL     1      -1.488  -7.753   3.861  0.00  0.00    +0.256 C 
ATOM     31  C   UNL     1      -2.139  -7.162   5.113  0.00  0.00    +0.062 C 
BRANCH  30  32
ATOM     32  O   UNL     1      -2.267  -8.857   3.395  0.00  0.00    -0.480 OA
BRANCH  32  33
ATOM     33  C   UNL     1      -2.023 -10.068   3.963  0.00  0.00    +0.122 A 
ATOM     34  C   UNL     1      -2.671 -11.200   3.491  0.00  0.00    +0.045 A 
ATOM     35  C   UNL     1      -2.422 -12.429   4.069  0.00  0.00    +0.004 A 
ATOM     36  C   UNL     1      -1.527 -12.532   5.119  0.00  0.00    +0.000 A 
ATOM     37  C   UNL     1      -0.880 -11.405   5.591  0.00  0.00    +0.004 A 
ATOM     38  C   UNL     1      -1.122 -10.174   5.012  0.00  0.00    +0.045 A 
ENDBRANCH  32  33
ENDBRANCH  30  32
ENDBRANCH  11  30
TORSDOF 8
