REMARK  Name = ZINC48343198
REMARK  15 active torsions:
REMARK  status: ('A' for Active; 'I' for Inactive)
REMARK    1  A    between atoms: C_1  and  C_2
REMARK    2  A    between atoms: C_2  and  C_3
REMARK    3  A    between atoms: C_3  and  C_4
REMARK    4  A    between atoms: C_4  and  C_5
REMARK    5  A    between atoms: C_5  and  N_6
REMARK    6  A    between atoms: N_6  and  C_7
REMARK    7  A    between atoms: N_6  and  C_28
REMARK    8  A    between atoms: C_7  and  C_8
REMARK    9  A    between atoms: N_10  and  C_11
REMARK   10  A    between atoms: C_15  and  S_17
REMARK   11  A    between atoms: S_17  and  N_20
REMARK   12  A    between atoms: C_28  and  C_30
REMARK   13  A    between atoms: C_28  and  C_31
REMARK   14  A    between atoms: C_31  and  C_32
REMARK   15  A    between atoms: C_32  and  C_33
REMARK                            x       y       z     vdW  Elec       q    Type
REMARK                         _______ _______ _______ _____ _____    ______ ____
ROOT
ATOM      1  C   UNL     1       3.707  -7.131  -3.969  0.00  0.00    +0.035 A 
ATOM      2  C   UNL     1       2.695  -8.030  -4.282  0.00  0.00    +0.023 A 
ATOM      3  C   UNL     1       2.998  -9.206  -4.940  0.00  0.00    +0.004 A 
ATOM      4  C   UNL     1       4.307  -9.489  -5.286  0.00  0.00    +0.029 A 
ATOM      5  C   UNL     1       5.316  -8.596  -4.976  0.00  0.00    +0.114 A 
ATOM      6  C   UNL     1       5.019  -7.415  -4.324  0.00  0.00    +0.052 A 
ENDROOT
BRANCH   1   9
ATOM      7  C   UNL     1       2.310  -5.864  -2.518  0.00  0.00    +0.201 C 
ATOM      8  O   UNL     1       1.613  -6.843  -2.355  0.00  0.00    -0.278 OA
ATOM      9  N   UNL     1       3.403  -5.938  -3.303  0.00  0.00    -0.287 N 
ATOM     10  H   UNL     1       3.979  -5.165  -3.406  0.00  0.00    +0.155 HD
BRANCH   7  11
ATOM     11  C   UNL     1       1.954  -4.566  -1.842  0.00  0.00    +0.019 C 
BRANCH  11  12
ATOM     12  N   UNL     1       0.563  -4.622  -1.373  0.00  0.00    +0.387 N 
ATOM     13  H   UNL     1       0.404  -5.498  -0.898  0.00  0.00    -0.081 HD
BRANCH  12  14
ATOM     14  C   UNL     1      -0.345  -4.515  -2.522  0.00  0.00    -0.071 C 
ATOM     15  C   UNL     1      -0.792  -5.914  -2.951  0.00  0.00    -0.013 C 
BRANCH  14  16
ATOM     16  C   UNL     1       0.380  -3.832  -3.684  0.00  0.00    -0.016 C 
BRANCH  16  17
ATOM     17  C   UNL     1       0.486  -2.331  -3.407  0.00  0.00    -0.005 C 
ATOM     18  C   UNL     1       0.191  -1.554  -4.691  0.00  0.00    +0.004 C 
ENDBRANCH  16  17
ENDBRANCH  14  16
ENDBRANCH  12  14
BRANCH  12  19
ATOM     19  C   UNL     1       0.313  -3.511  -0.445  0.00  0.00    -0.078 C 
BRANCH  19  20
ATOM     20  C   UNL     1      -1.128  -3.584   0.062  0.00  0.00    -0.019 C 
BRANCH  20  21
ATOM     21  C   UNL     1      -1.347  -2.514   1.133  0.00  0.00    -0.002 C 
BRANCH  21  23
ATOM     22  C   UNL     1      -3.007  -1.517   2.712  0.00  0.00    +0.004 C 
ATOM     23  C   UNL     1      -2.788  -2.588   1.641  0.00  0.00    -0.003 C 
ENDBRANCH  21  23
ENDBRANCH  20  21
ENDBRANCH  19  20
ENDBRANCH  12  19
ENDBRANCH  11  12
ENDBRANCH   7  11
ENDBRANCH   1   9
BRANCH   5  24
ATOM     24  S   UNL     1       6.982  -8.962  -5.418  0.00  0.00    +0.100 S 
ATOM     25  O   UNL     1       7.809  -8.220  -4.533  0.00  0.00    -0.146 OA
ATOM     26  O   UNL     1       7.069 -10.375  -5.540  0.00  0.00    -0.146 OA
BRANCH  24  27
ATOM     27  N   UNL     1       7.233  -8.340  -6.933  0.00  0.00    -0.118 NA
ATOM     28  C   UNL     1       8.387  -8.471  -7.502  0.00  0.00    +0.117 C 
ATOM     29  C   UNL     1       8.623  -7.894  -8.895  0.00  0.00    +0.073 C 
ATOM     30  C   UNL     1       9.575  -6.726  -8.743  0.00  0.00    +0.008 C 
ATOM     31  C   UNL     1      11.049  -7.128  -8.814  0.00  0.00    +0.002 C 
ATOM     32  C   UNL     1      11.361  -8.403  -8.029  0.00  0.00    +0.019 C 
ATOM     33  C   UNL     1      10.680  -8.454  -6.678  0.00  0.00    +0.102 C 
ATOM     34  N   UNL     1       9.364  -9.099  -6.878  0.00  0.00    -0.331 N 
ATOM     35  H   UNL     1       9.221  -9.998  -6.545  0.00  0.00    +0.147 HD
ENDBRANCH  24  27
ENDBRANCH   5  24
TORSDOF 12
