REMARK  Name = ZINC36635513
REMARK  8 active torsions:
REMARK  status: ('A' for Active; 'I' for Inactive)
REMARK    1  A    between atoms: C_1  and  C_2
REMARK    2  A    between atoms: C_5  and  N_9
REMARK    3  A    between atoms: C_6  and  C_8
REMARK    4  A    between atoms: N_9  and  C_10
REMARK    5  A    between atoms: N_15  and  C_18
REMARK    6  A    between atoms: C_19  and  C_26
REMARK    7  A    between atoms: C_21  and  C_25
REMARK    8  A    between atoms: C_23  and  C_24
REMARK                            x       y       z     vdW  Elec       q    Type
REMARK                         _______ _______ _______ _____ _____    ______ ____
ROOT
ATOM      1  C   UNL     1       0.061  -4.893  -1.294  0.00  0.00    +0.166 C 
ATOM      2  C   UNL     1       0.642  -6.310  -1.109  0.00  0.00    +0.128 C 
ATOM      3  C   UNL     1      -0.506  -7.216  -1.496  0.00  0.00    +0.228 C 
ATOM      4  O   UNL     1      -0.476  -8.428  -1.492  0.00  0.00    -0.275 OA
ATOM      5  N   UNL     1      -1.561  -6.468  -1.842  0.00  0.00    -0.208 N 
ATOM      6  C   UNL     1      -1.354  -5.144  -1.767  0.00  0.00    +0.247 C 
ATOM      7  O   UNL     1      -2.167  -4.286  -2.034  0.00  0.00    -0.273 OA
ENDROOT
BRANCH   5   8
ATOM      8  C   UNL     1      -2.783  -7.022  -2.251  0.00  0.00    +0.050 A 
ATOM      9  C   UNL     1      -3.007  -7.295  -3.593  0.00  0.00    -0.028 A 
ATOM     10  C   UNL     1      -4.212  -7.841  -3.993  0.00  0.00    +0.008 A 
ATOM     11  C   UNL     1      -5.193  -8.114  -3.057  0.00  0.00    -0.050 A 
ATOM     12  C   UNL     1      -4.972  -7.843  -1.720  0.00  0.00    +0.008 A 
ATOM     13  C   UNL     1      -3.767  -7.303  -1.313  0.00  0.00    -0.028 A 
ATOM     14  C   UNL     1      -3.525  -7.013   0.146  0.00  0.00    +0.046 C 
ATOM     15  C   UNL     1      -6.506  -8.709  -3.497  0.00  0.00    +0.044 C 
ATOM     16  C   UNL     1      -1.939  -6.997  -4.613  0.00  0.00    +0.046 C 
ENDBRANCH   5   8
BRANCH   1  17
ATOM     17  N   UNL     1       0.058  -4.167  -0.021  0.00  0.00    -0.332 N 
ATOM     18  H   UNL     1       0.069  -4.657   0.816  0.00  0.00    +0.147 HD
BRANCH  17  23
ATOM     19  C   UNL     1      -0.018   1.503   0.010  0.00  0.00    +0.044 C 
ATOM     20  C   UNL     1       0.002  -0.004   0.002  0.00  0.00    -0.050 A 
ATOM     21  C   UNL     1       0.006  -0.687  -1.200  0.00  0.00    +0.005 A 
ATOM     22  C   UNL     1       0.024  -2.068  -1.212  0.00  0.00    +0.023 A 
ATOM     23  C   UNL     1       0.040  -2.771  -0.013  0.00  0.00    +0.031 A 
ATOM     24  C   UNL     1       0.036  -2.081   1.192  0.00  0.00    -0.029 A 
ATOM     25  C   UNL     1       0.023  -0.700   1.196  0.00  0.00    +0.008 A 
ATOM     26  C   UNL     1       0.052  -2.839   2.495  0.00  0.00    +0.045 C 
ENDBRANCH  17  23
ENDBRANCH   1  17
TORSDOF 3
