REMARK  Name = ZINC39305632
REMARK  8 active torsions:
REMARK  status: ('A' for Active; 'I' for Inactive)
REMARK    1  A    between atoms: C_1  and  C_2
REMARK    2  A    between atoms: C_4  and  C_9
REMARK    3  A    between atoms: N_6  and  C_8
REMARK    4  A    between atoms: C_9  and  C_11
REMARK    5  A    between atoms: C_9  and  N_12
REMARK    6  A    between atoms: N_12  and  C_13
REMARK    7  A    between atoms: C_13  and  C_14
REMARK    8  A    between atoms: C_16  and  C_20
REMARK                            x       y       z     vdW  Elec       q    Type
REMARK                         _______ _______ _______ _____ _____    ______ ____
ROOT
ATOM      1  C   UNL     1      -2.852  -1.074  -3.284  0.00  0.00    -0.024 C 
ENDROOT
BRANCH   1   2
ATOM      2  C   UNL     1      -2.294  -1.661  -4.555  0.00  0.00    +0.047 A 
ATOM      3  C   UNL     1      -2.418  -2.989  -4.962  0.00  0.00    +0.050 A 
ATOM      4  C   UNL     1      -1.780  -3.121  -6.163  0.00  0.00    +0.066 A 
ATOM      5  N   UNL     1      -1.273  -1.899  -6.489  0.00  0.00    -0.277 N 
ATOM      6  N   UNL     1      -1.617  -1.007  -5.465  0.00  0.00    -0.180 NA
ATOM      7  H   UNL     1      -0.768  -1.684  -7.289  0.00  0.00    +0.189 HD
BRANCH   4   8
ATOM      8  C   UNL     1      -1.661  -4.361  -6.961  0.00  0.00    -0.000 A 
ATOM      9  C   UNL     1      -2.238  -5.546  -6.503  0.00  0.00    +0.013 A 
ATOM     10  C   UNL     1      -2.125  -6.700  -7.252  0.00  0.00    +0.039 A 
ATOM     11  C   UNL     1      -1.439  -6.683  -8.456  0.00  0.00    +0.123 A 
ATOM     12  C   UNL     1      -0.864  -5.508  -8.915  0.00  0.00    +0.039 A 
ATOM     13  C   UNL     1      -0.976  -4.348  -8.177  0.00  0.00    +0.013 A 
ATOM     14  F   UNL     1      -1.331  -7.815  -9.184  0.00  0.00    -0.205 F 
ENDBRANCH   4   8
ENDBRANCH   1   2
BRANCH   1  15
ATOM     15  N   UNL     1      -1.816  -1.086  -2.243  0.00  0.00    +0.387 N 
ATOM     16  H   UNL     1      -1.026  -0.538  -2.548  0.00  0.00    -0.085 HD
ATOM     17  H   UNL     1      -1.520  -2.036  -2.074  0.00  0.00    -0.085 HD
BRANCH  15  18
ATOM     18  C   UNL     1      -2.360  -0.515  -1.004  0.00  0.00    -0.045 C 
ATOM     19  C   UNL     1      -2.692   0.962  -1.227  0.00  0.00    -0.009 C 
BRANCH  18  22
ATOM     20  C   UNL     1      -2.644  -1.171   2.162  0.00  0.00    +0.030 C 
ATOM     21  C   UNL     1      -1.541  -0.300   1.558  0.00  0.00    +0.095 C 
ATOM     22  C   UNL     1      -1.339  -0.639   0.097  0.00  0.00    -0.051 C 
ATOM     23  C   UNL     1      -0.098  -1.065  -0.026  0.00  0.00    +0.086 C 
ATOM     24  N   UNL     1       0.569  -1.055   1.183  0.00  0.00    -0.277 N 
ATOM     25  N   UNL     1      -0.241  -0.602   2.188  0.00  0.00    -0.234 NA
ATOM     26  C   UNL     1       1.961  -1.474   1.365  0.00  0.00    +0.149 C 
ATOM     27  H   UNL     1       0.149   0.220   2.626  0.00  0.00    +0.145 HD
ENDBRANCH  18  22
ENDBRANCH  15  18
ENDBRANCH   1  15
TORSDOF 5
