REMARK  Name = ZINC02202128
REMARK  7 active torsions:
REMARK  status: ('A' for Active; 'I' for Inactive)
REMARK    1  A    between atoms: C_3  and  C_6
REMARK    2  A    between atoms: C_9  and  C_11
REMARK    3  A    between atoms: C_11  and  C_27
REMARK    4  A    between atoms: C_12  and  N_13
REMARK    5  A    between atoms: N_13  and  C_14
REMARK    6  A    between atoms: C_17  and  S_20
REMARK    7  A    between atoms: S_20  and  N_23
REMARK                            x       y       z     vdW  Elec       q    Type
REMARK                         _______ _______ _______ _____ _____    ______ ____
ROOT
ATOM      1  C   UNL     1       9.299   4.488   0.252  0.00  0.00    +0.031 A 
ATOM      2  C   UNL     1       9.731   5.789   0.475  0.00  0.00    +0.025 A 
ATOM      3  C   UNL     1      11.074   6.045   0.670  0.00  0.00    +0.031 A 
ATOM      4  C   UNL     1      11.988   5.008   0.645  0.00  0.00    +0.113 A 
ATOM      5  C   UNL     1      11.561   3.711   0.424  0.00  0.00    +0.031 A 
ATOM      6  C   UNL     1      10.219   3.447   0.233  0.00  0.00    +0.025 A 
ENDROOT
BRANCH   4   7
ATOM      7  S   UNL     1      13.701   5.339   0.894  0.00  0.00    +0.102 S 
ATOM      8  O   UNL     1      14.414   4.273   0.281  0.00  0.00    -0.146 OA
ATOM      9  O   UNL     1      13.908   6.698   0.537  0.00  0.00    -0.146 OA
BRANCH   7  10
ATOM     10  N   UNL     1      13.989   5.227   2.521  0.00  0.00    -0.093 NA
ATOM     11  C   UNL     1      15.190   5.429   2.985  0.00  0.00    +0.212 C 
ATOM     12  N   UNL     1      16.218   5.734   2.124  0.00  0.00    -0.369 N 
ATOM     13  N   UNL     1      15.430   5.336   4.336  0.00  0.00    -0.369 N 
ATOM     14  H   UNL     1      16.049   5.799   1.171  0.00  0.00    +0.159 HD
ATOM     15  H   UNL     1      14.705   5.121   4.943  0.00  0.00    +0.159 HD
ATOM     16  H   UNL     1      16.324   5.486   4.681  0.00  0.00    +0.159 HD
ATOM     17  H   UNL     1      17.112   5.884   2.470  0.00  0.00    +0.159 HD
ENDBRANCH   7  10
ENDBRANCH   4   7
BRANCH   1  18
ATOM     18  N   UNL     1       7.941   4.226   0.055  0.00  0.00    -0.319 N 
ATOM     19  H   UNL     1       7.640   3.316  -0.097  0.00  0.00    +0.152 HD
BRANCH  18  21
ATOM     20  C   UNL     1       5.703   4.984  -0.005  0.00  0.00    +0.098 C 
ATOM     21  C   UNL     1       7.037   5.250   0.074  0.00  0.00    +0.093 C 
BRANCH  20  25
ATOM     22  C   UNL     1       5.329   1.283   0.057  0.00  0.00    +0.085 A 
ATOM     23  C   UNL     1       3.960   1.224   0.082  0.00  0.00    +0.076 A 
ATOM     24  S   UNL     1       3.551   2.965   0.064  0.00  0.00    -0.074 S 
ATOM     25  C   UNL     1       5.226   3.587   0.025  0.00  0.00    +0.120 A 
ATOM     26  N   UNL     1       5.927   2.463   0.034  0.00  0.00    -0.238 NA
BRANCH  22  29
ATOM     27  C   UNL     1       8.017  -1.384   0.052  0.00  0.00    +0.008 A 
ATOM     28  C   UNL     1       7.490  -0.110   0.043  0.00  0.00    +0.017 A 
ATOM     29  C   UNL     1       6.130   0.040   0.061  0.00  0.00    +0.038 A 
ATOM     30  S   UNL     1       5.574  -1.657   0.090  0.00  0.00    -0.095 S 
ATOM     31  C   UNL     1       7.175  -2.447   0.077  0.00  0.00    +0.046 A 
ENDBRANCH  22  29
ENDBRANCH  20  25
BRANCH  20  32
ATOM     32  C   UNL     1       4.763   6.059  -0.117  0.00  0.00    +0.103 C 
ATOM     33  N   UNL     1       4.018   6.911  -0.206  0.00  0.00    -0.191 NA
ENDBRANCH  20  32
ENDBRANCH  18  21
ENDBRANCH   1  18
TORSDOF 7
