REMARK  Name = ZINC01371646
REMARK  7 active torsions:
REMARK  status: ('A' for Active; 'I' for Inactive)
REMARK    1  A    between atoms: C_1  and  C_2
REMARK    2  A    between atoms: C_5  and  C_32
REMARK    3  A    between atoms: C_9  and  C_14
REMARK    4  A    between atoms: C_14  and  N_15
REMARK    5  A    between atoms: N_15  and  C_16
REMARK    6  A    between atoms: C_16  and  C_17
REMARK    7  A    between atoms: N_24  and  C_25
REMARK                            x       y       z     vdW  Elec       q    Type
REMARK                         _______ _______ _______ _____ _____    ______ ____
ROOT
ATOM      1  N   UNL     1       2.318   1.095   0.095  0.00  0.00    -0.274 N 
ATOM      2  C   UNL     1       1.118   1.702   0.006  0.00  0.00    +0.307 C 
ATOM      3  O   UNL     1       1.054   2.913  -0.074  0.00  0.00    -0.252 OA
ATOM      4  N   UNL     1      -0.011   0.966   0.007  0.00  0.00    -0.269 N 
ATOM      5  H   UNL     1       0.041  -0.003   0.003  0.00  0.00    +0.156 HD
ENDROOT
BRANCH   4   6
ATOM      6  C   UNL     1      -1.260   1.599   0.008  0.00  0.00    +0.035 A 
ATOM      7  C   UNL     1      -2.326   1.034   0.695  0.00  0.00    +0.025 A 
ATOM      8  C   UNL     1      -3.555   1.664   0.700  0.00  0.00    +0.022 A 
ATOM      9  C   UNL     1      -3.727   2.852   0.010  0.00  0.00    +0.041 A 
ATOM     10  C   UNL     1      -2.668   3.414  -0.680  0.00  0.00    +0.022 A 
ATOM     11  C   UNL     1      -1.435   2.791  -0.682  0.00  0.00    +0.025 A 
ATOM     12 CL   UNL     1      -5.275   3.638   0.012  0.00  0.00    -0.084 Cl
ENDBRANCH   4   6
BRANCH   1  13
ATOM     13  C   UNL     1       3.545   1.895   0.094  0.00  0.00    +0.150 C 
BRANCH  13  22
ATOM     14  C   UNL     1       6.678  -0.092   3.749  0.00  0.00    +0.044 C 
ATOM     15  C   UNL     1       6.024   1.132   4.337  0.00  0.00    -0.041 A 
ATOM     16  C   UNL     1       6.312   1.516   5.616  0.00  0.00    +0.004 A 
ATOM     17  C   UNL     1       5.716   2.642   6.167  0.00  0.00    +0.005 A 
ATOM     18  C   UNL     1       4.822   3.394   5.434  0.00  0.00    -0.026 A 
ATOM     19  C   UNL     1       4.514   3.022   4.130  0.00  0.00    +0.052 A 
ATOM     20  C   UNL     1       5.121   1.880   3.575  0.00  0.00    +0.002 A 
ATOM     21  C   UNL     1       4.790   1.497   2.201  0.00  0.00    +0.020 A 
ATOM     22  C   UNL     1       3.908   2.261   1.511  0.00  0.00    +0.035 A 
ATOM     23  C   UNL     1       3.331   3.401   2.112  0.00  0.00    +0.254 A 
ATOM     24  O   UNL     1       2.544   4.076   1.472  0.00  0.00    -0.268 OA
ATOM     25  N   UNL     1       3.624   3.757   3.375  0.00  0.00    -0.322 N 
ATOM     26  H   UNL     1       3.207   4.544   3.759  0.00  0.00    +0.169 HD
ATOM     27  C   UNL     1       4.183   4.615   6.044  0.00  0.00    +0.046 C 
ENDBRANCH  13  22
ENDBRANCH   1  13
BRANCH   1  28
ATOM     28  C   UNL     1       2.395  -0.365   0.193  0.00  0.00    +0.183 C 
BRANCH  28  29
ATOM     29  C   UNL     1       2.480  -0.957  -1.190  0.00  0.00    +0.122 A 
ATOM     30  C   UNL     1       3.614  -1.206  -1.871  0.00  0.00    +0.046 A 
ATOM     31  C   UNL     1       3.231  -1.756  -3.116  0.00  0.00    +0.041 A 
ATOM     32  C   UNL     1       1.887  -1.811  -3.121  0.00  0.00    +0.195 A 
ATOM     33  O   UNL     1       1.438  -1.331  -1.950  0.00  0.00    -0.466 OA
ENDBRANCH  28  29
ENDBRANCH   1  28
TORSDOF 5
