REMARK  Name = ZINC15770740
REMARK  9 active torsions:
REMARK  status: ('A' for Active; 'I' for Inactive)
REMARK    1  A    between atoms: C_2  and  C_3
REMARK    2  A    between atoms: C_3  and  C_5
REMARK    3  A    between atoms: C_3  and  N_17
REMARK    4  A    between atoms: C_5  and  C_7
REMARK    5  A    between atoms: C_5  and  O_16
REMARK    6  A    between atoms: C_12  and  N_13
REMARK    7  A    between atoms: C_18  and  C_35
REMARK    8  A    between atoms: C_20  and  C_29
REMARK    9  A    between atoms: C_22  and  C_23
REMARK                            x       y       z     vdW  Elec       q    Type
REMARK                         _______ _______ _______ _____ _____    ______ ____
ROOT
ATOM      1  N   UNL     1      -3.629  -1.262   2.021  0.00  0.00    -0.330 N 
ATOM      2  C   UNL     1      -2.386  -1.422   2.454  0.00  0.00    +0.051 A 
ATOM      3  C   UNL     1      -1.481  -0.366   2.427  0.00  0.00    +0.035 A 
ATOM      4  C   UNL     1      -1.899   0.877   1.947  0.00  0.00    -0.014 A 
ATOM      5  C   UNL     1      -3.218   1.007   1.505  0.00  0.00    +0.035 A 
ATOM      6  C   UNL     1      -4.063  -0.097   1.558  0.00  0.00    +0.051 A 
ENDROOT
BRANCH   6   7
ATOM      7  C   UNL     1      -5.465   0.030   1.092  0.00  0.00    -0.001 A 
ATOM      8  C   UNL     1      -6.200  -1.109   0.766  0.00  0.00    +0.010 A 
ATOM      9  C   UNL     1      -7.506  -0.985   0.339  0.00  0.00    +0.001 A 
ATOM     10  C   UNL     1      -8.083   0.267   0.222  0.00  0.00    +0.000 A 
ATOM     11  C   UNL     1      -7.356   1.401   0.538  0.00  0.00    +0.001 A 
ATOM     12  C   UNL     1      -6.051   1.289   0.972  0.00  0.00    +0.010 A 
ENDBRANCH   6   7
BRANCH   4  13
ATOM     13  C   UNL     1      -0.967   2.030   1.907  0.00  0.00    -0.018 A 
ATOM     14  C   UNL     1      -1.398   3.262   1.419  0.00  0.00    +0.008 A 
ATOM     15  C   UNL     1      -0.528   4.333   1.390  0.00  0.00    +0.001 A 
ATOM     16  C   UNL     1       0.774   4.182   1.833  0.00  0.00    +0.000 A 
ATOM     17  C   UNL     1       1.209   2.959   2.312  0.00  0.00    +0.001 A 
ATOM     18  C   UNL     1       0.346   1.883   2.352  0.00  0.00    +0.008 A 
ENDBRANCH   4  13
BRANCH   2  19
ATOM     19  C   UNL     1      -1.954  -2.745   2.969  0.00  0.00    -0.001 A 
ATOM     20  C   UNL     1      -0.708  -3.259   2.616  0.00  0.00    +0.010 A 
ATOM     21  C   UNL     1      -0.309  -4.488   3.103  0.00  0.00    +0.001 A 
ATOM     22  C   UNL     1      -1.148  -5.213   3.928  0.00  0.00    +0.000 A 
ATOM     23  C   UNL     1      -2.389  -4.710   4.277  0.00  0.00    +0.001 A 
ATOM     24  C   UNL     1      -2.796  -3.480   3.801  0.00  0.00    +0.010 A 
ENDBRANCH   2  19
BRANCH   1  25
ATOM     25  C   UNL     1      -4.550  -2.400   2.061  0.00  0.00    +0.143 C 
BRANCH  25  27
ATOM     26  C   UNL     1      -4.333  -4.266   0.501  0.00  0.00    +0.006 C 
ATOM     27  C   UNL     1      -4.655  -3.010   0.687  0.00  0.00    -0.007 C 
ENDBRANCH  25  27
BRANCH  25  28
ATOM     28  C   UNL     1      -5.932  -1.923   2.514  0.00  0.00    +0.173 C 
BRANCH  28  29
ATOM     29  C   UNL     1      -6.108  -2.215   3.982  0.00  0.00    +0.013 A 
ATOM     30  C   UNL     1      -6.665  -3.414   4.386  0.00  0.00    +0.008 A 
ATOM     31  C   UNL     1      -6.827  -3.682   5.732  0.00  0.00    +0.000 A 
ATOM     32  C   UNL     1      -6.430  -2.751   6.675  0.00  0.00    +0.002 A 
ATOM     33  C   UNL     1      -5.872  -1.553   6.271  0.00  0.00    +0.033 A 
ATOM     34  C   UNL     1      -5.707  -1.287   4.924  0.00  0.00    +0.132 A 
BRANCH  34  35
ATOM     35  N   UNL     1      -5.104  -0.006   4.491  0.00  0.00    +0.057 N 
ATOM     36  O   UNL     1      -4.609   0.743   5.314  0.00  0.00    -0.126 OA
ATOM     37  O   UNL     1      -5.103   0.299   3.312  0.00  0.00    -0.126 OA
ENDBRANCH  34  35
ENDBRANCH  28  29
BRANCH  28  38
ATOM     38  O   UNL     1      -6.940  -2.607   1.768  0.00  0.00    -0.385 OA
ATOM     39  H   UNL     1      -7.388  -3.307   2.262  0.00  0.00    +0.210 HD
ENDBRANCH  28  38
ENDBRANCH  25  28
ENDBRANCH   1  25
TORSDOF 9
