REMARK  Name = ZINC22323837
REMARK  10 active torsions:
REMARK  status: ('A' for Active; 'I' for Inactive)
REMARK    1  A    between atoms: C_1  and  C_2
REMARK    2  A    between atoms: C_5  and  S_8
REMARK    3  A    between atoms: S_8  and  N_11
REMARK    4  A    between atoms: N_11  and  C_12
REMARK    5  A    between atoms: N_11  and  C_31
REMARK    6  A    between atoms: C_12  and  C_13
REMARK    7  A    between atoms: N_15  and  C_16
REMARK    8  A    between atoms: C_16  and  C_18
REMARK    9  A    between atoms: C_16  and  C_24
REMARK   10  A    between atoms: C_28  and  C_30
REMARK                            x       y       z     vdW  Elec       q    Type
REMARK                         _______ _______ _______ _____ _____    ______ ____
ROOT
ATOM      1  C   UNL     1      -2.167   7.546  -2.297  0.00  0.00    +0.227 C 
ENDROOT
BRANCH   1   2
ATOM      2  C   UNL     1      -1.064   7.053  -1.396  0.00  0.00    +0.233 C 
ATOM      3  O   UNL     1      -0.105   7.760  -1.169  0.00  0.00    -0.274 OA
ATOM      4  N   UNL     1      -1.143   5.826  -0.843  0.00  0.00    -0.303 N 
ATOM      5  H   UNL     1      -2.013   5.185  -1.050  0.00  0.00    +0.150 HD
BRANCH   4   6
ATOM      6  C   UNL     1      -0.070   5.347   0.032  0.00  0.00    +0.134 C 
BRANCH   6   7
ATOM      7  C   UNL     1      -0.050   3.840   0.023  0.00  0.00    -0.023 A 
ATOM      8  C   UNL     1      -1.238   3.133   0.029  0.00  0.00    +0.006 A 
ATOM      9  C   UNL     1      -1.219   1.751   0.017  0.00  0.00    +0.001 A 
ATOM     10  C   UNL     1      -0.013   1.076   0.008  0.00  0.00    +0.003 A 
ATOM     11  C   UNL     1       1.175   1.783   0.000  0.00  0.00    -0.050 A 
ATOM     12  C   UNL     1       1.156   3.166   0.008  0.00  0.00    +0.009 A 
ATOM     13  C   UNL     1       2.490   1.047  -0.016  0.00  0.00    +0.044 C 
ENDBRANCH   6   7
BRANCH   6  14
ATOM     14  C   UNL     1      -0.312   5.838   1.437  0.00  0.00    -0.023 A 
ATOM     15  C   UNL     1      -1.595   5.857   1.951  0.00  0.00    +0.006 A 
ATOM     16  C   UNL     1      -1.815   6.302   3.241  0.00  0.00    +0.000 A 
ATOM     17  C   UNL     1      -0.754   6.737   4.013  0.00  0.00    +0.000 A 
ATOM     18  C   UNL     1       0.528   6.723   3.496  0.00  0.00    +0.000 A 
ATOM     19  C   UNL     1       0.749   6.274   2.208  0.00  0.00    +0.006 A 
ENDBRANCH   6  14
ENDBRANCH   4   6
ENDBRANCH   1   2
BRANCH   1  20
ATOM     20  N   UNL     1      -1.847   8.896  -2.766  0.00  0.00    -0.191 N 
BRANCH  20  21
ATOM     21  C   UNL     1      -1.034   9.072  -3.890  0.00  0.00    +0.087 A 
ATOM     22  C   UNL     1      -1.588   9.034  -5.163  0.00  0.00    +0.027 A 
ATOM     23  C   UNL     1      -0.782   9.211  -6.271  0.00  0.00    +0.002 A 
ATOM     24  C   UNL     1       0.576   9.417  -6.116  0.00  0.00    +0.003 A 
ATOM     25  C   UNL     1       1.134   9.450  -4.851  0.00  0.00    +0.040 A 
ATOM     26  C   UNL     1       0.333   9.278  -3.736  0.00  0.00    +0.146 A 
ATOM     27  F   UNL     1       0.877   9.310  -2.500  0.00  0.00    -0.203 F 
ENDBRANCH  20  21
BRANCH  20  28
ATOM     28  S   UNL     1      -2.449  10.215  -1.966  0.00  0.00    +0.075 S 
ATOM     29  O   UNL     1      -2.467  11.285  -2.902  0.00  0.00    -0.150 OA
ATOM     30  O   UNL     1      -3.618   9.779  -1.285  0.00  0.00    -0.150 OA
BRANCH  28  35
ATOM     31  C   UNL     1       1.566  11.710   2.283  0.00  0.00    +0.044 C 
ATOM     32  C   UNL     1       0.563  11.337   1.222  0.00  0.00    -0.050 A 
ATOM     33  C   UNL     1       0.656  11.889  -0.042  0.00  0.00    +0.005 A 
ATOM     34  C   UNL     1      -0.264  11.547  -1.016  0.00  0.00    +0.029 A 
ATOM     35  C   UNL     1      -1.277  10.652  -0.726  0.00  0.00    +0.109 A 
ATOM     36  C   UNL     1      -1.373  10.104   0.540  0.00  0.00    +0.029 A 
ATOM     37  C   UNL     1      -0.450  10.443   1.512  0.00  0.00    +0.005 A 
ENDBRANCH  28  35
ENDBRANCH  20  28
ENDBRANCH   1  20
TORSDOF 8
