REMARK  Name = ZINC38985738
REMARK  6 active torsions:
REMARK  status: ('A' for Active; 'I' for Inactive)
REMARK    1  A    between atoms: C_1  and  C_2
REMARK    2  A    between atoms: C_5  and  C_30
REMARK    3  A    between atoms: C_6  and  S_8
REMARK    4  A    between atoms: S_8  and  N_11
REMARK    5  A    between atoms: C_13  and  N_23
REMARK    6  A    between atoms: N_23  and  C_24
REMARK                            x       y       z     vdW  Elec       q    Type
REMARK                         _______ _______ _______ _____ _____    ______ ____
ROOT
ATOM      1  N   UNL     1      -1.366  -3.816   2.801  0.00  0.00    -0.112 NA
ATOM      2  C   UNL     1      -1.612  -4.564   3.836  0.00  0.00    +0.167 C 
ATOM      3  C   UNL     1      -2.905  -5.344   3.929  0.00  0.00    +0.218 C 
ATOM      4  N   UNL     1      -3.123  -6.172   5.125  0.00  0.00    -0.362 N 
ATOM      5  C   UNL     1      -2.197  -6.196   6.043  0.00  0.00    +0.060 A 
ATOM      6  C   UNL     1      -2.366  -7.008   7.257  0.00  0.00    +0.027 A 
ATOM      7  C   UNL     1      -1.385  -7.007   8.185  0.00  0.00    +0.002 A 
ATOM      8  C   UNL     1      -0.212  -6.252   8.020  0.00  0.00    +0.002 A 
ATOM      9  C   UNL     1       0.015  -5.483   6.932  0.00  0.00    +0.028 A 
ATOM     10  C   UNL     1      -0.948  -5.409   5.894  0.00  0.00    +0.064 A 
ATOM     11  N   UNL     1      -0.720  -4.661   4.834  0.00  0.00    -0.338 N 
ATOM     12  H   UNL     1      -3.937  -6.689   5.228  0.00  0.00    +0.162 HD
ATOM     13  H   UNL     1       0.112  -4.165   4.775  0.00  0.00    +0.167 HD
ENDROOT
BRANCH   1  14
ATOM     14  S   UNL     1       0.057  -2.973   2.709  0.00  0.00    +0.101 S 
ATOM     15  O   UNL     1       1.094  -3.938   2.602  0.00  0.00    -0.146 OA
ATOM     16  O   UNL     1       0.022  -2.003   3.747  0.00  0.00    -0.146 OA
BRANCH  14  22
ATOM     17  C   UNL     1      -0.018   1.503   0.010  0.00  0.00    +0.044 C 
ATOM     18  C   UNL     1       0.002  -0.004   0.002  0.00  0.00    -0.049 A 
ATOM     19  C   UNL     1       0.006  -0.689  -1.199  0.00  0.00    +0.004 A 
ATOM     20  C   UNL     1       0.025  -2.071  -1.207  0.00  0.00    +0.005 A 
ATOM     21  C   UNL     1       0.040  -2.768  -0.013  0.00  0.00    -0.024 A 
ATOM     22  C   UNL     1       0.037  -2.084   1.188  0.00  0.00    +0.116 A 
ATOM     23  C   UNL     1       0.023  -0.702   1.195  0.00  0.00    +0.032 A 
ATOM     24  C   UNL     1       0.059  -4.275  -0.021  0.00  0.00    +0.046 C 
ENDBRANCH  14  22
ENDBRANCH   1  14
BRANCH   3  25
ATOM     25  N   UNL     1      -2.983  -6.223   2.755  0.00  0.00    -0.288 NA
ATOM     26  H   UNL     1      -2.274  -5.986   2.077  0.00  0.00    +0.124 HD
BRANCH  25  27
ATOM     27  C   UNL     1      -4.322  -6.178   2.152  0.00  0.00    +0.056 C 
ATOM     28  C   UNL     1      -5.240  -7.167   2.873  0.00  0.00    +0.019 C 
ATOM     29  C   UNL     1      -6.635  -7.120   2.245  0.00  0.00    +0.002 C 
ATOM     30  C   UNL     1      -6.541  -7.497   0.765  0.00  0.00    +0.000 C 
ATOM     31  C   UNL     1      -5.623  -6.507   0.044  0.00  0.00    +0.002 C 
ATOM     32  C   UNL     1      -4.229  -6.554   0.672  0.00  0.00    +0.019 C 
ENDBRANCH  25  27
ENDBRANCH   3  25
TORSDOF 4
