REMARK  Name = ZINC39609594
REMARK  13 active torsions:
REMARK  status: ('A' for Active; 'I' for Inactive)
REMARK    1  A    between atoms: C_1  and  C_2
REMARK    2  A    between atoms: C_2  and  O_3
REMARK    3  A    between atoms: O_3  and  C_4
REMARK    4  A    between atoms: C_8  and  C_10
REMARK    5  A    between atoms: C_10  and  C_11
REMARK    6  A    between atoms: C_11  and  N_12
REMARK    7  A    between atoms: C_13  and  C_15
REMARK    8  A    between atoms: C_26  and  C_28
REMARK    9  A    between atoms: C_28  and  C_30
REMARK   10  A    between atoms: C_28  and  O_33
REMARK   11  A    between atoms: C_30  and  C_31
REMARK   12  A    between atoms: C_30  and  C_32
REMARK   13  A    between atoms: O_33  and  C_34
REMARK                            x       y       z     vdW  Elec       q    Type
REMARK                         _______ _______ _______ _____ _____    ______ ____
ROOT
ATOM      1  C   UNL     1      -8.324  -6.669   2.684  0.00  0.00    +0.100 C 
ATOM      2  C   UNL     1      -9.124  -5.561   1.964  0.00  0.00    +0.121 C 
ATOM      3  N   UNL     1     -10.220  -5.221   2.901  0.00  0.00    -0.297 N 
ATOM      4  C   UNL     1      -9.586  -5.262   4.240  0.00  0.00    +0.115 C 
ATOM      5  C   UNL     1      -8.630  -6.470   4.178  0.00  0.00    -0.004 C 
ATOM      6  C   UNL     1      -9.309  -7.711   4.749  0.00  0.00    -0.010 C 
ATOM      7  C   UNL     1      -9.552  -7.510   6.247  0.00  0.00    -0.082 C 
ATOM      8  N   UNL     1      -8.271  -7.273   6.925  0.00  0.00    +0.379 N 
ATOM      9  C   UNL     1      -7.669  -6.027   6.435  0.00  0.00    -0.082 C 
ATOM     10  C   UNL     1      -7.347  -6.165   4.945  0.00  0.00    -0.010 C 
ATOM     11  C   UNL     1     -11.504  -4.938   2.602  0.00  0.00    +0.257 C 
ATOM     12  O   UNL     1     -12.265  -4.580   3.476  0.00  0.00    -0.272 OA
ATOM     13  H   UNL     1      -8.427  -7.202   7.919  0.00  0.00    -0.086 HD
ATOM     14  H   UNL     1      -7.646  -8.043   6.739  0.00  0.00    -0.086 HD
ENDROOT
BRANCH   1  16
ATOM     15  N   UNL     1      -6.018  -7.557   2.568  0.00  0.00    -0.315 N 
ATOM     16  C   UNL     1      -6.849  -6.505   2.424  0.00  0.00    +0.218 C 
ATOM     17  O   UNL     1      -6.409  -5.427   2.086  0.00  0.00    -0.275 OA
ATOM     18  H   UNL     1      -6.370  -8.419   2.839  0.00  0.00    +0.149 HD
BRANCH  15  19
ATOM     19  C   UNL     1      -4.584  -7.398   2.316  0.00  0.00    +0.109 C 
BRANCH  19  20
ATOM     20  C   UNL     1      -3.874  -8.732   2.549  0.00  0.00    +0.054 C 
BRANCH  20  25
ATOM     21  C   UNL     1      -0.534  -8.634   0.783  0.00  0.00    +0.121 A 
ATOM     22  C   UNL     1       0.313  -8.266   1.819  0.00  0.00    +0.045 A 
ATOM     23  C   UNL     1      -0.198  -8.051   3.084  0.00  0.00    +0.004 A 
ATOM     24  C   UNL     1      -1.552  -8.202   3.319  0.00  0.00    +0.004 A 
ATOM     25  C   UNL     1      -2.398  -8.568   2.289  0.00  0.00    -0.042 A 
ATOM     26  C   UNL     1      -1.893  -8.779   1.020  0.00  0.00    +0.049 A 
BRANCH  21  27
ATOM     27  O   UNL     1      -0.035  -8.845  -0.463  0.00  0.00    -0.492 OA
BRANCH  27  29
ATOM     28  C   UNL     1       1.748  -8.956  -2.091  0.00  0.00    +0.048 C 
ATOM     29  C   UNL     1       1.374  -8.678  -0.634  0.00  0.00    +0.225 C 
ENDBRANCH  27  29
ENDBRANCH  21  27
ENDBRANCH  20  25
ENDBRANCH  19  20
ENDBRANCH  15  19
ENDBRANCH   1  16
BRANCH  11  30
ATOM     30  C   UNL     1     -11.993  -5.066   1.183  0.00  0.00    +0.261 C 
BRANCH  30  31
ATOM     31  C   UNL     1     -12.477  -6.497   0.938  0.00  0.00    +0.033 C 
ATOM     32  C   UNL     1     -13.099  -6.593  -0.457  0.00  0.00    +0.011 C 
ATOM     33  C   UNL     1     -11.292  -7.459   1.035  0.00  0.00    +0.011 C 
ENDBRANCH  30  31
BRANCH  30  34
ATOM     34  O   UNL     1     -13.073  -4.155   0.967  0.00  0.00    -0.479 OA
BRANCH  34  35
ATOM     35  C   UNL     1     -13.160  -3.581  -0.262  0.00  0.00    +0.122 A 
ATOM     36  C   UNL     1     -14.191  -2.697  -0.544  0.00  0.00    +0.045 A 
ATOM     37  C   UNL     1     -14.277  -2.115  -1.794  0.00  0.00    +0.004 A 
ATOM     38  C   UNL     1     -13.336  -2.413  -2.763  0.00  0.00    +0.000 A 
ATOM     39  C   UNL     1     -12.308  -3.293  -2.484  0.00  0.00    +0.004 A 
ATOM     40  C   UNL     1     -12.214  -3.874  -1.234  0.00  0.00    +0.045 A 
ENDBRANCH  34  35
ENDBRANCH  30  34
ENDBRANCH  11  30
TORSDOF 10
