REMARK  Name = ZINC01201020
REMARK  13 active torsions:
REMARK  status: ('A' for Active; 'I' for Inactive)
REMARK    1  A    between atoms: C_1  and  C_2
REMARK    2  A    between atoms: C_2  and  C_3
REMARK    3  A    between atoms: C_2  and  C_4
REMARK    4  A    between atoms: C_2  and  C_5
REMARK    5  A    between atoms: C_12  and  N_17
REMARK    6  A    between atoms: C_13  and  C_14
REMARK    7  A    between atoms: C_18  and  C_20
REMARK    8  A    between atoms: C_22  and  O_30
REMARK    9  A    between atoms: C_23  and  O_28
REMARK   10  A    between atoms: C_24  and  O_26
REMARK   11  A    between atoms: O_26  and  C_27
REMARK   12  A    between atoms: O_28  and  C_29
REMARK   13  A    between atoms: O_30  and  C_31
REMARK                            x       y       z     vdW  Elec       q    Type
REMARK                         _______ _______ _______ _____ _____    ______ ____
ROOT
ATOM      1  C   UNL     1      -0.735   2.019   1.269  0.00  0.00    -0.000 C 
ATOM      2  C   UNL     1      -0.751   3.550   1.284  0.00  0.00    +0.009 C 
ATOM      3  C   UNL     1      -1.668   4.051   2.400  0.00  0.00    +0.037 C 
ATOM      4  C   UNL     1      -1.266   3.377   3.707  0.00  0.00    -0.023 A 
ATOM      5  C   UNL     1      -0.519   2.252   3.708  0.00  0.00    -0.004 A 
ATOM      6  S   UNL     1      -0.310   1.850   5.420  0.00  0.00    -0.077 S 
ATOM      7  C   UNL     1      -1.202   3.156   6.125  0.00  0.00    +0.085 A 
ATOM      8  C   UNL     1      -1.641   3.873   5.020  0.00  0.00    +0.068 A 
ATOM      9  C   UNL     1       0.010   1.518   2.515  0.00  0.00    +0.046 C 
ENDROOT
BRANCH   8  10
ATOM     10  C   UNL     1      -2.452   5.085   5.173  0.00  0.00    +0.244 C 
ATOM     11  O   UNL     1      -1.911   6.171   5.267  0.00  0.00    -0.270 OA
ATOM     12  N   UNL     1      -3.796   4.995   5.209  0.00  0.00    -0.325 N 
ATOM     13  H   UNL     1      -4.227   4.130   5.134  0.00  0.00    +0.145 HD
ATOM     14  H   UNL     1      -4.333   5.797   5.310  0.00  0.00    +0.145 HD
ENDBRANCH   8  10
BRANCH   1  16
ATOM     15  C   UNL     1       0.002  -0.004   0.002  0.00  0.00    +0.011 C 
ATOM     16  C   UNL     1      -0.019   1.526   0.010  0.00  0.00    -0.035 C 
ATOM     17  C   UNL     1       1.417   2.055  -0.000  0.00  0.00    +0.011 C 
ATOM     18  C   UNL     1      -0.759   2.033  -1.229  0.00  0.00    +0.011 C 
ENDBRANCH   1  16
BRANCH   7  19
ATOM     19  N   UNL     1      -1.425   3.422   7.467  0.00  0.00    -0.275 N 
ATOM     20  C   UNL     1      -0.913   2.605   8.409  0.00  0.00    +0.249 C 
ATOM     21  O   UNL     1      -0.257   1.635   8.082  0.00  0.00    -0.270 OA
ATOM     22  H   UNL     1      -1.948   4.196   7.728  0.00  0.00    +0.156 HD
BRANCH  20  23
ATOM     23  C   UNL     1      -1.150   2.887   9.838  0.00  0.00    +0.044 A 
ATOM     24  C   UNL     1      -1.899   4.005  10.216  0.00  0.00    +0.062 A 
ATOM     25  C   UNL     1      -2.124   4.264  11.555  0.00  0.00    +0.166 A 
ATOM     26  C   UNL     1      -1.595   3.419  12.527  0.00  0.00    +0.204 A 
ATOM     27  C   UNL     1      -0.843   2.308  12.153  0.00  0.00    +0.166 A 
ATOM     28  C   UNL     1      -0.620   2.041  10.816  0.00  0.00    +0.062 A 
BRANCH  27  29
ATOM     29  O   UNL     1      -0.328   1.485  13.105  0.00  0.00    -0.491 OA
ATOM     30  C   UNL     1       0.433   0.364  12.651  0.00  0.00    +0.277 C 
ENDBRANCH  27  29
BRANCH  26  31
ATOM     31  O   UNL     1      -1.812   3.679  13.843  0.00  0.00    -0.488 OA
ATOM     32  C   UNL     1      -0.857   4.509  14.507  0.00  0.00    +0.277 C 
ENDBRANCH  26  31
BRANCH  25  33
ATOM     33  O   UNL     1      -2.858   5.348  11.923  0.00  0.00    -0.491 OA
ATOM     34  C   UNL     1      -3.370   6.171  10.873  0.00  0.00    +0.277 C 
ENDBRANCH  25  33
ENDBRANCH  20  23
ENDBRANCH   7  19
TORSDOF 7
