REMARK  Name = ZINC35063272
REMARK  9 active torsions:
REMARK  status: ('A' for Active; 'I' for Inactive)
REMARK    1  A    between atoms: C_1  and  C_2
REMARK    2  A    between atoms: C_2  and  C_3
REMARK    3  A    between atoms: C_3  and  N_4
REMARK    4  A    between atoms: N_4  and  C_5
REMARK    5  A    between atoms: C_5  and  C_7
REMARK    6  A    between atoms: C_5  and  C_8
REMARK    7  A    between atoms: N_18  and  C_19
REMARK    8  A    between atoms: C_22  and  C_25
REMARK    9  A    between atoms: N_28  and  C_29
REMARK                            x       y       z     vdW  Elec       q    Type
REMARK                         _______ _______ _______ _____ _____    ______ ____
ROOT
ATOM      1  C   UNL     1       0.202  -2.130  -3.298  0.00  0.00    +0.138 A 
ATOM      2  N   UNL     1       0.086  -0.845  -3.440  0.00  0.00    -0.231 NA
ATOM      3  C   UNL     1      -0.213  -0.286  -4.639  0.00  0.00    +0.078 A 
ATOM      4  C   UNL     1      -0.338   1.097  -4.792  0.00  0.00    +0.028 A 
ATOM      5  C   UNL     1      -0.642   1.621  -6.028  0.00  0.00    +0.002 A 
ATOM      6  C   UNL     1      -0.827   0.792  -7.127  0.00  0.00    +0.001 A 
ATOM      7  C   UNL     1      -0.709  -0.575  -7.002  0.00  0.00    +0.015 A 
ATOM      8  C   UNL     1      -0.401  -1.126  -5.759  0.00  0.00    +0.065 A 
ATOM      9  C   UNL     1      -0.263  -2.576  -5.566  0.00  0.00    +0.266 A 
ATOM     10  O   UNL     1      -0.412  -3.355  -6.489  0.00  0.00    -0.267 OA
ATOM     11  N   UNL     1       0.043  -3.013  -4.321  0.00  0.00    -0.263 N 
ENDROOT
BRANCH  11  12
ATOM     12  C   UNL     1       0.192  -4.385  -4.084  0.00  0.00    +0.051 A 
ATOM     13  C   UNL     1      -0.873  -5.124  -3.586  0.00  0.00    +0.026 A 
ATOM     14  C   UNL     1      -0.723  -6.477  -3.353  0.00  0.00    +0.005 A 
ATOM     15  C   UNL     1       0.485  -7.096  -3.615  0.00  0.00    -0.050 A 
ATOM     16  C   UNL     1       1.547  -6.363  -4.111  0.00  0.00    +0.005 A 
ATOM     17  C   UNL     1       1.403  -5.010  -4.351  0.00  0.00    +0.026 A 
ATOM     18  C   UNL     1       0.645  -8.573  -3.360  0.00  0.00    +0.044 C 
ENDBRANCH  11  12
BRANCH   1  19
ATOM     19  C   UNL     1       0.536  -2.671  -1.932  0.00  0.00    +0.141 C 
ATOM     20  C   UNL     1      -0.480  -2.149  -0.914  0.00  0.00    +0.036 C 
BRANCH  19  21
ATOM     21  N   UNL     1       1.881  -2.234  -1.548  0.00  0.00    -0.276 N 
ATOM     22  C   UNL     1       2.838  -3.147  -1.289  0.00  0.00    +0.307 C 
ATOM     23  O   UNL     1       2.586  -4.333  -1.374  0.00  0.00    -0.252 OA
ATOM     24  N   UNL     1       4.075  -2.744  -0.936  0.00  0.00    -0.269 N 
ATOM     25  H   UNL     1       4.292  -1.798  -0.923  0.00  0.00    +0.156 HD
BRANCH  24  26
ATOM     26  C   UNL     1       5.046  -3.690  -0.590  0.00  0.00    +0.037 A 
ATOM     27  C   UNL     1       5.976  -3.401   0.401  0.00  0.00    +0.023 A 
ATOM     28  C   UNL     1       6.934  -4.336   0.741  0.00  0.00    +0.005 A 
ATOM     29  C   UNL     1       6.970  -5.559   0.097  0.00  0.00    +0.038 A 
ATOM     30  C   UNL     1       6.045  -5.850  -0.892  0.00  0.00    +0.125 A 
ATOM     31  C   UNL     1       5.079  -4.920  -1.232  0.00  0.00    +0.061 A 
ATOM     32  F   UNL     1       6.082  -7.046  -1.520  0.00  0.00    -0.205 F 
ENDBRANCH  24  26
BRANCH  21  33
ATOM     33  C   UNL     1       2.184  -0.804  -1.446  0.00  0.00    +0.110 C 
BRANCH  33  35
ATOM     34  C   UNL     1       2.216   1.170   0.084  0.00  0.00    +0.005 C 
ATOM     35  C   UNL     1       1.899  -0.323  -0.023  0.00  0.00    +0.016 C 
ENDBRANCH  33  35
ENDBRANCH  21  33
ENDBRANCH  19  21
ENDBRANCH   1  19
TORSDOF 6
