REMARK  Name = ZINC22650033
REMARK  9 active torsions:
REMARK  status: ('A' for Active; 'I' for Inactive)
REMARK    1  A    between atoms: C_1  and  C_2
REMARK    2  A    between atoms: C_6  and  C_7
REMARK    3  A    between atoms: N_12  and  C_15
REMARK    4  A    between atoms: C_15  and  C_16
REMARK    5  A    between atoms: C_20  and  O_23
REMARK    6  A    between atoms: O_23  and  C_24
REMARK    7  A    between atoms: C_24  and  C_25
REMARK    8  A    between atoms: C_27  and  C_32
REMARK    9  A    between atoms: C_29  and  C_31
REMARK                            x       y       z     vdW  Elec       q    Type
REMARK                         _______ _______ _______ _____ _____    ______ ____
ROOT
ATOM      1  C   UNL     1       4.167  -3.126   1.683  0.00  0.00    +0.123 A 
ATOM      2  C   UNL     1       3.352  -4.200   1.688  0.00  0.00    +0.097 A 
ATOM      3  C   UNL     1       2.132  -4.134   2.408  0.00  0.00    +0.227 A 
ATOM      4  O   UNL     1       1.368  -5.087   2.437  0.00  0.00    -0.284 OA
ATOM      5  C   UNL     1       1.824  -2.929   3.096  0.00  0.00    +0.202 A 
ATOM      6  C   UNL     1       2.699  -1.901   3.037  0.00  0.00    +0.244 A 
ATOM      7  O   UNL     1       3.841  -2.009   2.343  0.00  0.00    -0.463 OA
ENDROOT
BRANCH   1   8
ATOM      8  C   UNL     1       5.465  -3.184   0.921  0.00  0.00    +0.159 C 
BRANCH   8  14
ATOM      9  C   UNL     1       5.494  -3.112  -4.505  0.00  0.00    +0.254 C 
ATOM     10  O   UNL     1       6.500  -2.758  -5.090  0.00  0.00    -0.269 OA
ATOM     11  N   UNL     1       5.266  -2.696  -3.243  0.00  0.00    -0.295 N 
ATOM     12  C   UNL     1       6.263  -1.889  -2.523  0.00  0.00    +0.123 C 
ATOM     13  C   UNL     1       6.523  -2.540  -1.160  0.00  0.00    +0.104 C 
ATOM     14  N   UNL     1       5.246  -2.723  -0.457  0.00  0.00    -0.292 NA
ATOM     15  C   UNL     1       4.363  -3.643  -1.186  0.00  0.00    +0.104 C 
ATOM     16  C   UNL     1       4.015  -3.038  -2.550  0.00  0.00    +0.123 C 
BRANCH   9  22
ATOM     17  C   UNL     1       6.161  -5.615  -6.208  0.00  0.00    +0.045 C 
ATOM     18  C   UNL     1       4.763  -5.119  -5.943  0.00  0.00    -0.031 A 
ATOM     19  C   UNL     1       3.665  -5.767  -6.453  0.00  0.00    +0.011 A 
ATOM     20  C   UNL     1       2.425  -5.276  -6.191  0.00  0.00    +0.046 A 
ATOM     21  S   UNL     1       2.749  -3.885  -5.209  0.00  0.00    -0.092 S 
ATOM     22  C   UNL     1       4.529  -3.991  -5.172  0.00  0.00    +0.077 A 
ENDBRANCH   9  22
ENDBRANCH   8  14
ENDBRANCH   1   8
BRANCH   5  23
ATOM     23  O   UNL     1       0.664  -2.810   3.798  0.00  0.00    -0.481 OA
BRANCH  23  24
ATOM     24  C   UNL     1       0.431  -1.565   4.460  0.00  0.00    +0.265 C 
BRANCH  24  25
ATOM     25  C   UNL     1      -0.892  -1.619   5.180  0.00  0.00    -0.010 A 
ATOM     26  C   UNL     1      -2.047  -1.221   4.533  0.00  0.00    +0.010 A 
ATOM     27  C   UNL     1      -3.262  -1.275   5.192  0.00  0.00    -0.050 A 
ATOM     28  C   UNL     1      -3.319  -1.718   6.500  0.00  0.00    +0.006 A 
ATOM     29  C   UNL     1      -2.163  -2.111   7.148  0.00  0.00    -0.050 A 
ATOM     30  C   UNL     1      -0.950  -2.061   6.488  0.00  0.00    +0.010 A 
ATOM     31  C   UNL     1      -2.226  -2.594   8.574  0.00  0.00    +0.044 C 
ATOM     32  C   UNL     1      -4.522  -0.846   4.485  0.00  0.00    +0.044 C 
ENDBRANCH  24  25
ENDBRANCH  23  24
ENDBRANCH   5  23
TORSDOF 6
