REMARK  Name = ZINC09795141
REMARK  4 active torsions:
REMARK  status: ('A' for Active; 'I' for Inactive)
REMARK    1  A    between atoms: C_6  and  S_11
REMARK    2  A    between atoms: S_11  and  N_14
REMARK    3  A    between atoms: C_17  and  C_20
REMARK    4  A    between atoms: N_22  and  N_23
REMARK                            x       y       z     vdW  Elec       q    Type
REMARK                         _______ _______ _______ _____ _____    ______ ____
ROOT
ATOM      1  N   UNL     1      -0.897   1.885  -1.312  0.00  0.00    -0.177 NA
ATOM      2  C   UNL     1      -1.885   0.979  -1.914  0.00  0.00    +0.110 C 
ATOM      3  C   UNL     1      -1.586   0.837  -3.405  0.00  0.00    +0.030 C 
ATOM      4  C   UNL     1      -1.533   2.225  -4.047  0.00  0.00    +0.079 C 
ATOM      5  C   UNL     1      -0.412   3.044  -3.404  0.00  0.00    +0.030 C 
ATOM      6  C   UNL     1      -0.702   3.213  -1.909  0.00  0.00    +0.110 C 
ENDROOT
BRANCH   4   7
ATOM      7  C   UNL     1      -1.269   2.085  -5.524  0.00  0.00    +0.233 C 
ATOM      8  O   UNL     1      -0.281   2.590  -6.014  0.00  0.00    -0.274 OA
ATOM      9  N   UNL     1      -2.130   1.398  -6.301  0.00  0.00    -0.223 N 
ATOM     10  H   UNL     1      -2.920   0.993  -5.909  0.00  0.00    +0.174 HD
BRANCH   9  11
ATOM     11  N   UNL     1      -1.884   1.268  -7.674  0.00  0.00    -0.137 N 
ATOM     12  C   UNL     1      -2.553   1.944  -8.631  0.00  0.00    +0.263 C 
ATOM     13  O   UNL     1      -3.446   2.748  -8.474  0.00  0.00    -0.271 OA
ATOM     14  C   UNL     1      -1.951   1.489  -9.941  0.00  0.00    +0.114 C 
ATOM     15  C   UNL     1      -3.015   0.822 -10.807  0.00  0.00    +0.035 C 
ATOM     16  C   UNL     1      -2.380   0.335 -12.112  0.00  0.00    +0.003 C 
ATOM     17  C   UNL     1      -1.766   1.524 -12.854  0.00  0.00    +0.000 C 
ATOM     18  C   UNL     1      -0.686   2.169 -11.982  0.00  0.00    +0.003 C 
ATOM     19  C   UNL     1      -1.315   2.663 -10.677  0.00  0.00    +0.035 C 
ATOM     20  N   UNL     1      -0.926   0.515  -9.544  0.00  0.00    -0.284 N 
ATOM     21  C   UNL     1      -0.961   0.453  -8.199  0.00  0.00    +0.326 C 
ATOM     22  O   UNL     1      -0.236  -0.263  -7.537  0.00  0.00    -0.251 OA
ATOM     23  H   UNL     1      -0.341   0.015 -10.134  0.00  0.00    +0.151 HD
ENDBRANCH   9  11
ENDBRANCH   4   7
BRANCH   1  24
ATOM     24  S   UNL     1      -0.017   1.417   0.010  0.00  0.00    +0.061 S 
ATOM     25  O   UNL     1       0.002  -0.004   0.002  0.00  0.00    -0.153 OA
ATOM     26  O   UNL     1       1.172   2.195   0.003  0.00  0.00    -0.153 OA
BRANCH  24  32
ATOM     27  C   UNL     1      -3.965   2.221   5.375  0.00  0.00    +0.001 A 
ATOM     28  C   UNL     1      -4.181   0.962   4.817  0.00  0.00    +0.001 A 
ATOM     29  C   UNL     1      -3.495   0.558   3.713  0.00  0.00    +0.008 A 
ATOM     30  C   UNL     1      -2.556   1.421   3.123  0.00  0.00    -0.016 A 
ATOM     31  C   UNL     1      -1.829   1.038   1.983  0.00  0.00    +0.037 A 
ATOM     32  C   UNL     1      -0.927   1.900   1.439  0.00  0.00    +0.106 A 
ATOM     33  C   UNL     1      -0.707   3.157   2.000  0.00  0.00    +0.029 A 
ATOM     34  C   UNL     1      -1.397   3.564   3.101  0.00  0.00    +0.010 A 
ATOM     35  C   UNL     1      -2.337   2.701   3.690  0.00  0.00    -0.018 A 
ATOM     36  C   UNL     1      -3.063   3.083   4.831  0.00  0.00    +0.008 A 
ENDBRANCH  24  32
ENDBRANCH   1  24
TORSDOF 4
