REMARK  Name = ZINC38966547
REMARK  5 active torsions:
REMARK  status: ('A' for Active; 'I' for Inactive)
REMARK    1  A    between atoms: N_7  and  S_8
REMARK    2  A    between atoms: S_8  and  C_11
REMARK    3  A    between atoms: C_18  and  N_23
REMARK    4  A    between atoms: N_23  and  C_24
REMARK    5  A    between atoms: C_28  and  C_30
REMARK                            x       y       z     vdW  Elec       q    Type
REMARK                         _______ _______ _______ _____ _____    ______ ____
ROOT
ATOM      1  C   UNL     1      -0.273   1.097   0.323  0.00  0.00    +0.002 A 
ATOM      2  C   UNL     1       0.836   1.950   0.197  0.00  0.00    +0.002 A 
ATOM      3  C   UNL     1       2.098   1.491   0.051  0.00  0.00    +0.030 A 
ATOM      4  C   UNL     1       2.354   0.097   0.018  0.00  0.00    +0.089 A 
ATOM      5  N   UNL     1       3.586  -0.345  -0.125  0.00  0.00    -0.226 NA
ATOM      6  C   UNL     1       3.863  -1.659  -0.160  0.00  0.00    +0.192 C 
ATOM      7  N   UNL     1       5.088  -2.071  -0.301  0.00  0.00    -0.110 NA
ATOM      8  C   UNL     1       2.730  -2.651  -0.032  0.00  0.00    +0.237 C 
ATOM      9  N   UNL     1       1.366  -2.121   0.126  0.00  0.00    -0.359 N 
ATOM     10  C   UNL     1       1.201  -0.828   0.149  0.00  0.00    +0.063 A 
ATOM     11  C   UNL     1      -0.141  -0.247   0.305  0.00  0.00    +0.027 A 
ATOM     12  H   UNL     1       0.608  -2.720   0.212  0.00  0.00    +0.162 HD
ENDROOT
BRANCH   7  13
ATOM     13  S   UNL     1       6.320  -0.973  -0.440  0.00  0.00    +0.100 S 
ATOM     14  O   UNL     1       6.118  -0.288  -1.668  0.00  0.00    -0.146 OA
ATOM     15  O   UNL     1       6.401  -0.294   0.806  0.00  0.00    -0.146 OA
BRANCH  13  16
ATOM     16  C   UNL     1       7.816  -1.887  -0.613  0.00  0.00    +0.113 A 
ATOM     17  C   UNL     1       8.536  -2.254   0.509  0.00  0.00    +0.032 A 
ATOM     18  C   UNL     1       9.709  -2.972   0.374  0.00  0.00    +0.040 A 
ATOM     19  C   UNL     1      10.163  -3.324  -0.886  0.00  0.00    +0.124 A 
ATOM     20  C   UNL     1       9.442  -2.956  -2.009  0.00  0.00    +0.040 A 
ATOM     21  C   UNL     1       8.266  -2.243  -1.871  0.00  0.00    +0.032 A 
ATOM     22  F   UNL     1      11.310  -4.025  -1.019  0.00  0.00    -0.205 F 
ENDBRANCH  13  16
ENDBRANCH   7  13
BRANCH   8  23
ATOM     23  N   UNL     1       2.743  -3.501  -1.225  0.00  0.00    -0.318 N 
ATOM     24  H   UNL     1       2.870  -3.104  -2.101  0.00  0.00    +0.148 HD
BRANCH  23  25
ATOM     25  C   UNL     1       2.571  -4.882  -1.102  0.00  0.00    +0.030 A 
ATOM     26  C   UNL     1       2.741  -5.706  -2.207  0.00  0.00    +0.024 A 
ATOM     27  C   UNL     1       2.571  -7.071  -2.082  0.00  0.00    +0.022 A 
ATOM     28  C   UNL     1       2.232  -7.618  -0.857  0.00  0.00    +0.053 A 
ATOM     29  C   UNL     1       2.062  -6.799   0.246  0.00  0.00    +0.075 A 
ATOM     30  C   UNL     1       2.236  -5.434   0.128  0.00  0.00    +0.036 A 
ATOM     31 CL   UNL     1       2.019  -9.334  -0.703  0.00  0.00    -0.083 Cl
BRANCH  29  32
ATOM     32  C   UNL     1       1.693  -7.399   1.579  0.00  0.00    +0.419 C 
ATOM     33  F   UNL     1       1.578  -6.381   2.532  0.00  0.00    -0.166 F 
ATOM     34  F   UNL     1       0.471  -8.071   1.465  0.00  0.00    -0.166 F 
ATOM     35  F   UNL     1       2.686  -8.300   1.976  0.00  0.00    -0.166 F 
ENDBRANCH  29  32
ENDBRANCH  23  25
ENDBRANCH   8  23
TORSDOF 5
