REMARK  Name = ZINC08818276
REMARK  6 active torsions:
REMARK  status: ('A' for Active; 'I' for Inactive)
REMARK    1  A    between atoms: C_1  and  O_2
REMARK    2  A    between atoms: O_2  and  C_3
REMARK    3  A    between atoms: C_3  and  C_5
REMARK    4  A    between atoms: C_5  and  N_49
REMARK    5  A    between atoms: C_6  and  C_25
REMARK    6  A    between atoms: C_15  and  C_17
REMARK                            x       y       z     vdW  Elec       q    Type
REMARK                         _______ _______ _______ _____ _____    ______ ____
ROOT
ATOM      1  C   UNL     1       2.431  -0.162   0.575  0.00  0.00    -0.001 C 
ATOM      2  C   UNL     1       2.522   1.335   0.438  0.00  0.00    -0.035 A 
ATOM      3  C   UNL     1       3.747   1.960   0.583  0.00  0.00    +0.019 A 
ATOM      4  C   UNL     1       3.845   3.334   0.458  0.00  0.00    +0.018 A 
ATOM      5  C   UNL     1       2.719   4.091   0.187  0.00  0.00    +0.017 A 
ATOM      6  C   UNL     1       1.492   3.474   0.042  0.00  0.00    +0.024 A 
ATOM      7  C   UNL     1       1.392   2.095   0.169  0.00  0.00    +0.028 A 
ATOM      8  N   UNL     1       0.148   1.468   0.025  0.00  0.00    -0.353 N 
ATOM      9  C   UNL     1       0.120   0.005  -0.123  0.00  0.00    +0.050 C 
ATOM     10 BR   UNL     1       5.524   4.181   0.657  0.00  0.00    -0.050 Br
ATOM     11  H   UNL     1      -0.673   1.986   0.018  0.00  0.00    +0.145 HD
ATOM     12  N   UNL     1       1.044  -0.557   0.889  0.00  0.00    +0.409 N 
ATOM     13  H   UNL     1       0.793  -0.187   1.813  0.00  0.00    -0.076 HD
ENDROOT
BRANCH   9  14
ATOM     14  C   UNL     1      -1.274  -0.507   0.134  0.00  0.00    -0.026 A 
ATOM     15  C   UNL     1      -1.632  -0.930   1.400  0.00  0.00    +0.005 A 
ATOM     16  C   UNL     1      -2.912  -1.395   1.637  0.00  0.00    +0.000 A 
ATOM     17  C   UNL     1      -3.832  -1.447   0.606  0.00  0.00    +0.001 A 
ATOM     18  C   UNL     1      -3.473  -1.029  -0.661  0.00  0.00    +0.020 A 
ATOM     19  C   UNL     1      -2.193  -0.558  -0.898  0.00  0.00    +0.044 A 
ATOM     20 CL   UNL     1      -1.742  -0.033  -2.490  0.00  0.00    -0.083 Cl
ENDBRANCH   9  14
BRANCH   1  21
ATOM     21  C   UNL     1       3.329  -0.612   1.699  0.00  0.00    -0.057 A 
ATOM     22  C   UNL     1       2.900  -0.509   3.009  0.00  0.00    +0.002 A 
ATOM     23  C   UNL     1       3.721  -0.925   4.040  0.00  0.00    +0.000 A 
ATOM     24  C   UNL     1       4.975  -1.436   3.761  0.00  0.00    +0.000 A 
ATOM     25  C   UNL     1       5.406  -1.534   2.451  0.00  0.00    +0.000 A 
ATOM     26  C   UNL     1       4.583  -1.121   1.420  0.00  0.00    +0.002 A 
ENDBRANCH   1  21
BRANCH  12  27
ATOM     27  C   UNL     1       0.931  -2.031   0.914  0.00  0.00    +0.048 C 
BRANCH  27  28
ATOM     28  C   UNL     1       1.214  -2.604  -0.451  0.00  0.00    +0.290 C 
ATOM     29  O   UNL     1       1.573  -1.879  -1.348  0.00  0.00    -0.253 OA
BRANCH  28  31
ATOM     30  C   UNL     1       1.240  -4.386  -2.034  0.00  0.00    +0.280 C 
ATOM     31  O   UNL     1       1.068  -3.921  -0.669  0.00  0.00    -0.469 OA
ENDBRANCH  28  31
ENDBRANCH  27  28
ENDBRANCH  12  27
TORSDOF 5
