REMARK  Name = ZINC36876025
REMARK  7 active torsions:
REMARK  status: ('A' for Active; 'I' for Inactive)
REMARK    1  A    between atoms: C_1  and  C_2
REMARK    2  A    between atoms: C_2  and  C_3
REMARK    3  A    between atoms: C_3  and  C_26
REMARK    4  A    between atoms: N_6  and  C_10
REMARK    5  A    between atoms: C_10  and  C_11
REMARK    6  A    between atoms: N_13  and  C_14
REMARK    7  A    between atoms: C_19  and  N_20
REMARK                            x       y       z     vdW  Elec       q    Type
REMARK                         _______ _______ _______ _____ _____    ______ ____
ROOT
ATOM      1  C   UNL     1       0.739  -0.507   1.238  0.00  0.00    +0.138 C 
ATOM      2  C   UNL     1       2.124   0.105   1.313  0.00  0.00    +0.251 C 
ATOM      3  O   UNL     1       3.019  -0.008   0.504  0.00  0.00    -0.272 OA
ATOM      4  N   UNL     1       2.153   0.801   2.466  0.00  0.00    -0.215 N 
ATOM      5  C   UNL     1       0.990   0.715   3.124  0.00  0.00    +0.310 C 
ATOM      6  O   UNL     1       0.775   1.259   4.189  0.00  0.00    -0.252 OA
ATOM      7  N   UNL     1       0.087  -0.041   2.474  0.00  0.00    -0.281 N 
ATOM      8  H   UNL     1      -0.817  -0.240   2.763  0.00  0.00    +0.152 HD
ENDROOT
BRANCH   1   9
ATOM      9  C   UNL     1       0.822  -2.012   1.218  0.00  0.00    -0.015 A 
ATOM     10  C   UNL     1       0.860  -2.685   0.011  0.00  0.00    +0.007 A 
ATOM     11  C   UNL     1       0.936  -4.065  -0.009  0.00  0.00    +0.020 A 
ATOM     12  C   UNL     1       0.973  -4.773   1.180  0.00  0.00    +0.041 A 
ATOM     13  C   UNL     1       0.934  -4.098   2.387  0.00  0.00    +0.020 A 
ATOM     14  C   UNL     1       0.864  -2.718   2.405  0.00  0.00    +0.007 A 
ATOM     15 CL   UNL     1       1.067  -6.506   1.156  0.00  0.00    -0.084 Cl
ENDBRANCH   1   9
BRANCH   1  17
ATOM     16  C   UNL     1      -0.033   1.536   0.025  0.00  0.00    +0.007 C 
ATOM     17  C   UNL     1      -0.010   0.006   0.007  0.00  0.00    +0.037 C 
ENDBRANCH   1  17
BRANCH   4  18
ATOM     18  C   UNL     1       3.313   1.558   2.942  0.00  0.00    +0.214 C 
BRANCH  18  19
ATOM     19  C   UNL     1       3.240   2.971   2.421  0.00  0.00    +0.235 C 
ATOM     20  O   UNL     1       2.309   3.311   1.721  0.00  0.00    -0.274 OA
ATOM     21  N   UNL     1       4.207   3.855   2.732  0.00  0.00    -0.282 N 
ATOM     22  H   UNL     1       4.908   3.608   3.356  0.00  0.00    +0.155 HD
BRANCH  21  23
ATOM     23  C   UNL     1       4.201   5.131   2.157  0.00  0.00    +0.061 A 
ATOM     24  C   UNL     1       3.576   5.340   0.936  0.00  0.00    +0.045 A 
ATOM     25  C   UNL     1       3.571   6.602   0.370  0.00  0.00    +0.043 A 
ATOM     26  C   UNL     1       4.188   7.658   1.018  0.00  0.00    +0.022 A 
ATOM     27  C   UNL     1       4.813   7.457   2.234  0.00  0.00    +0.031 A 
ATOM     28  C   UNL     1       4.818   6.196   2.812  0.00  0.00    +0.088 A 
ATOM     29 CL   UNL     1       2.789   6.862  -1.158  0.00  0.00    -0.083 Cl
BRANCH  28  30
ATOM     30  N   UNL     1       5.446   5.992   4.049  0.00  0.00    -0.218 N 
ATOM     31  C   UNL     1       5.993   6.934   4.842  0.00  0.00    +0.225 A 
ATOM     32  N   UNL     1       6.476   6.339   5.904  0.00  0.00    -0.222 NA
ATOM     33  C   UNL     1       6.258   5.027   5.825  0.00  0.00    +0.245 A 
ATOM     34  N   UNL     1       5.625   4.767   4.711  0.00  0.00    -0.153 NA
ENDBRANCH  28  30
ENDBRANCH  21  23
ENDBRANCH  18  19
ENDBRANCH   4  18
TORSDOF 6
