REMARK  Name = ZINC63137674
REMARK  10 active torsions:
REMARK  status: ('A' for Active; 'I' for Inactive)
REMARK    1  A    between atoms: C_1  and  O_2
REMARK    2  A    between atoms: O_2  and  C_3
REMARK    3  A    between atoms: C_7  and  C_9
REMARK    4  A    between atoms: N_28  and  C_31
REMARK    5  A    between atoms: C_31  and  C_32
REMARK    6  A    between atoms: C_32  and  C_33
REMARK    7  A    between atoms: C_36  and  O_41
REMARK    8  A    between atoms: C_37  and  O_39
REMARK    9  A    between atoms: O_39  and  C_40
REMARK   10  A    between atoms: O_41  and  C_42
REMARK                            x       y       z     vdW  Elec       q    Type
REMARK                         _______ _______ _______ _____ _____    ______ ____
ROOT
ATOM      1  C   UNL     1       1.389  -4.130   2.211  0.00  0.00    +0.134 C 
ATOM      2  C   UNL     1       2.721  -4.613   1.633  0.00  0.00    +0.131 C 
ATOM      3  C   UNL     1       2.835  -6.094   1.969  0.00  0.00    -0.034 C 
ATOM      4  C   UNL     1       3.021  -6.728   0.818  0.00  0.00    -0.001 A 
ATOM      5  C   UNL     1       3.268  -8.145   0.508  0.00  0.00    +0.010 A 
ATOM      6  C   UNL     1       3.404  -8.456  -0.808  0.00  0.00    +0.001 A 
ATOM      7  C   UNL     1       3.318  -7.511  -1.835  0.00  0.00    +0.002 A 
ATOM      8  C   UNL     1       3.098  -6.186  -1.641  0.00  0.00    +0.026 A 
ATOM      9  C   UNL     1       2.945  -5.736  -0.298  0.00  0.00    +0.043 A 
ATOM     10  N   UNL     1       2.751  -4.518   0.172  0.00  0.00    -0.375 N 
ATOM     11  C   UNL     1       2.665  -6.619   3.374  0.00  0.00    +0.065 C 
ATOM     12  C   UNL     1       1.359  -6.009   3.916  0.00  0.00    +0.167 C 
ATOM     13  N   UNL     1       1.318  -4.581   3.619  0.00  0.00    -0.279 N 
ATOM     14  C   UNL     1       1.221  -3.647   4.572  0.00  0.00    +0.234 C 
ATOM     15  O   UNL     1       1.215  -2.485   4.224  0.00  0.00    -0.274 OA
ATOM     16  C   UNL     1       1.119  -3.933   6.034  0.00  0.00    +0.203 C 
ATOM     17  N   UNL     1       1.128  -5.359   6.316  0.00  0.00    -0.291 N 
ATOM     18  C   UNL     1       1.238  -6.296   5.376  0.00  0.00    +0.237 C 
ATOM     19  O   UNL     1       1.235  -7.456   5.729  0.00  0.00    -0.274 OA
ATOM     20  H   UNL     1       2.641  -3.705  -0.346  0.00  0.00    +0.160 HD
ENDROOT
BRANCH   1  25
ATOM     21  C   UNL     1       0.046  -0.611   1.908  0.00  0.00    +0.120 A 
ATOM     22  C   UNL     1       1.205   0.139   2.046  0.00  0.00    +0.045 A 
ATOM     23  C   UNL     1       2.417  -0.496   2.237  0.00  0.00    +0.004 A 
ATOM     24  C   UNL     1       2.475  -1.877   2.291  0.00  0.00    +0.006 A 
ATOM     25  C   UNL     1       1.321  -2.625   2.153  0.00  0.00    -0.021 A 
ATOM     26  C   UNL     1       0.106  -1.995   1.967  0.00  0.00    +0.051 A 
BRANCH  21  28
ATOM     27  C   UNL     1      -1.135   1.439   1.669  0.00  0.00    +0.277 C 
ATOM     28  O   UNL     1      -1.148   0.011   1.720  0.00  0.00    -0.495 OA
ENDBRANCH  21  28
ENDBRANCH   1  25
BRANCH  17  29
ATOM     29  C   UNL     1       1.014  -5.788   7.712  0.00  0.00    +0.113 C 
BRANCH  29  30
ATOM     30  C   UNL     1      -0.462  -5.973   8.070  0.00  0.00    +0.054 C 
BRANCH  30  31
ATOM     31  C   UNL     1      -0.579  -6.415   9.506  0.00  0.00    -0.042 A 
ATOM     32  C   UNL     1      -0.568  -7.762   9.816  0.00  0.00    +0.007 A 
ATOM     33  C   UNL     1      -0.675  -8.172  11.132  0.00  0.00    +0.049 A 
ATOM     34  C   UNL     1      -0.794  -7.233  12.143  0.00  0.00    +0.161 A 
ATOM     35  C   UNL     1      -0.804  -5.877  11.831  0.00  0.00    +0.162 A 
ATOM     36  C   UNL     1      -0.692  -5.472  10.511  0.00  0.00    +0.053 A 
BRANCH  35  37
ATOM     37  O   UNL     1      -0.920  -4.951  12.820  0.00  0.00    -0.491 OA
ATOM     38  C   UNL     1      -0.924  -3.577  12.426  0.00  0.00    +0.277 C 
ENDBRANCH  35  37
BRANCH  34  39
ATOM     39  O   UNL     1      -0.900  -7.635  13.438  0.00  0.00    -0.491 OA
ATOM     40  C   UNL     1      -0.882  -9.043  13.684  0.00  0.00    +0.277 C 
ENDBRANCH  34  39
ENDBRANCH  30  31
ENDBRANCH  29  30
ENDBRANCH  17  29
TORSDOF 7
