REMARK  Name = ZINC39706818
REMARK  7 active torsions:
REMARK  status: ('A' for Active; 'I' for Inactive)
REMARK    1  A    between atoms: C_1  and  C_2
REMARK    2  A    between atoms: C_2  and  O_3
REMARK    3  A    between atoms: O_3  and  C_4
REMARK    4  A    between atoms: C_4  and  C_6
REMARK    5  A    between atoms: C_7  and  C_36
REMARK    6  A    between atoms: C_14  and  C_15
REMARK    7  A    between atoms: C_25  and  C_27
REMARK                            x       y       z     vdW  Elec       q    Type
REMARK                         _______ _______ _______ _____ _____    ______ ____
ROOT
ATOM      1  C   UNL     1       1.233  -2.360  -2.584  0.00  0.00    +0.085 C 
ATOM      2  C   UNL     1       1.625  -3.668  -2.607  0.00  0.00    +0.053 C 
ATOM      3  N   UNL     1       2.420  -4.118  -3.571  0.00  0.00    -0.228 NA
ATOM      4  C   UNL     1       2.890  -3.393  -4.551  0.00  0.00    +0.178 A 
ATOM      5  N   UNL     1       2.619  -2.054  -4.716  0.00  0.00    -0.275 N 
ATOM      6  C   UNL     1       3.158  -1.411  -5.761  0.00  0.00    +0.268 A 
ATOM      7  O   UNL     1       2.948  -0.229  -5.948  0.00  0.00    -0.266 OA
ATOM      8  C   UNL     1       4.017  -2.189  -6.678  0.00  0.00    +0.080 A 
ATOM      9  C   UNL     1       4.686  -1.778  -7.815  0.00  0.00    +0.026 C 
ATOM     10  S   UNL     1       3.955  -3.804  -5.920  0.00  0.00    -0.046 S 
ATOM     11  C   UNL     1       1.726  -1.451  -3.687  0.00  0.00    +0.162 C 
ATOM     12  C   UNL     1       1.151  -4.608  -1.529  0.00  0.00    +0.066 C 
ENDROOT
BRANCH   9  13
ATOM     13  C   UNL     1       5.452  -2.691  -8.543  0.00  0.00    -0.018 C 
ATOM     14  C   UNL     1       6.189  -2.440  -9.700  0.00  0.00    +0.003 A 
ATOM     15  C   UNL     1       6.393  -1.274 -10.468  0.00  0.00    +0.010 A 
ATOM     16  C   UNL     1       7.178  -1.324 -11.573  0.00  0.00    +0.001 A 
ATOM     17  C   UNL     1       7.798  -2.511 -11.980  0.00  0.00    +0.002 A 
ATOM     18  C   UNL     1       7.647  -3.668 -11.293  0.00  0.00    +0.026 A 
ATOM     19  C   UNL     1       6.839  -3.694 -10.123  0.00  0.00    +0.043 A 
ATOM     20  N   UNL     1       6.539  -4.670  -9.295  0.00  0.00    -0.380 N 
ATOM     21  C   UNL     1       5.663  -4.157  -8.237  0.00  0.00    +0.149 C 
ATOM     22  H   UNL     1       6.851  -5.585  -9.371  0.00  0.00    +0.160 HD
ENDBRANCH   9  13
BRANCH  11  23
ATOM     23  C   UNL     1       2.470  -0.308  -3.047  0.00  0.00    -0.016 A 
ATOM     24  C   UNL     1       3.778  -0.481  -2.632  0.00  0.00    +0.010 A 
ATOM     25  C   UNL     1       4.465   0.565  -2.045  0.00  0.00    +0.050 A 
ATOM     26  C   UNL     1       3.844   1.791  -1.870  0.00  0.00    +0.166 A 
ATOM     27  C   UNL     1       2.526   1.966  -2.287  0.00  0.00    +0.167 A 
ATOM     28  C   UNL     1       1.846   0.915  -2.880  0.00  0.00    +0.055 A 
ATOM     29  O   UNL     1       2.147   3.247  -2.007  0.00  0.00    -0.453 OA
ATOM     30  C   UNL     1       3.104   3.730  -1.047  0.00  0.00    +0.466 C 
ATOM     31  O   UNL     1       4.289   2.962  -1.328  0.00  0.00    -0.453 OA
ENDBRANCH  11  23
BRANCH   1  32
ATOM     32  C   UNL     1       0.391  -1.874  -1.568  0.00  0.00    +0.339 C 
ATOM     33  O   UNL     1      -0.090  -2.644  -0.756  0.00  0.00    -0.245 OA
BRANCH  32  34
ATOM     34  O   UNL     1       0.116  -0.554  -1.492  0.00  0.00    -0.462 OA
BRANCH  34  36
ATOM     35  C   UNL     1      -0.941   1.385  -0.511  0.00  0.00    +0.048 C 
ATOM     36  C   UNL     1      -0.747  -0.131  -0.435  0.00  0.00    +0.229 C 
ENDBRANCH  34  36
ENDBRANCH  32  34
ENDBRANCH   1  32
TORSDOF 5
