REMARK  Name = ZINC02858269
REMARK  10 active torsions:
REMARK  status: ('A' for Active; 'I' for Inactive)
REMARK    1  A    between atoms: C_1  and  C_2
REMARK    2  A    between atoms: C_5  and  C_20
REMARK    3  A    between atoms: C_6  and  O_8
REMARK    4  A    between atoms: O_8  and  C_9
REMARK    5  A    between atoms: C_9  and  C_10
REMARK    6  A    between atoms: C_10  and  S_11
REMARK    7  A    between atoms: S_11  and  C_12
REMARK    8  A    between atoms: C_16  and  N_18
REMARK    9  A    between atoms: C_20  and  C_21
REMARK   10  A    between atoms: C_20  and  C_22
REMARK                            x       y       z     vdW  Elec       q    Type
REMARK                         _______ _______ _______ _____ _____    ______ ____
ROOT
ATOM      1  C   UNL     1       2.805   4.171  -0.003  0.00  0.00    +0.118 C 
ENDROOT
BRANCH   1   2
ATOM      2  C   UNL     1       2.993   5.689   0.003  0.00  0.00    +0.240 C 
BRANCH   2   3
ATOM      3  O   UNL     1       4.388   5.997  -0.008  0.00  0.00    -0.491 OA
BRANCH   3   9
ATOM      4  C   UNL     1       3.021  10.682   0.027  0.00  0.00    +0.044 C 
ATOM      5  C   UNL     1       4.093   9.623   0.012  0.00  0.00    -0.047 A 
ATOM      6  C   UNL     1       5.426   9.990   0.002  0.00  0.00    +0.004 A 
ATOM      7  C   UNL     1       6.412   9.021  -0.012  0.00  0.00    +0.008 A 
ATOM      8  C   UNL     1       6.067   7.683  -0.015  0.00  0.00    -0.003 A 
ATOM      9  C   UNL     1       4.730   7.312  -0.005  0.00  0.00    +0.124 A 
ATOM     10  C   UNL     1       3.743   8.287   0.004  0.00  0.00    +0.049 A 
BRANCH   8  11
ATOM     11  C   UNL     1       7.142   6.627  -0.030  0.00  0.00    +0.016 C 
ATOM     12  C   UNL     1       8.000   6.790  -1.287  0.00  0.00    +0.012 C 
ATOM     13  C   UNL     1       8.023   6.778   1.212  0.00  0.00    +0.012 C 
ENDBRANCH   8  11
ENDBRANCH   3   9
ENDBRANCH   2   3
ENDBRANCH   1   2
BRANCH   1  14
ATOM     14  S   UNL     1       1.038   3.781   0.012  0.00  0.00    -0.083 S 
BRANCH  14  15
ATOM     15  C   UNL     1       1.113   2.021   0.002  0.00  0.00    +0.192 A 
ATOM     16  N   UNL     1      -0.016   1.327   0.009  0.00  0.00    -0.207 NA
ATOM     17  C   UNL     1       0.002  -0.004   0.002  0.00  0.00    +0.122 A 
ATOM     18  C   UNL     1       1.227  -0.665  -0.013  0.00  0.00    +0.086 A 
ATOM     19  C   UNL     1       2.391   0.098  -0.020  0.00  0.00    +0.122 A 
ATOM     20  N   UNL     1       2.296   1.425  -0.012  0.00  0.00    -0.207 NA
ATOM     21  N   UNL     1      -1.183  -0.723   0.010  0.00  0.00    -0.343 N 
ATOM     22  H   UNL     1      -2.034  -0.255   0.021  0.00  0.00    +0.144 HD
ATOM     23  H   UNL     1      -1.163  -1.692   0.004  0.00  0.00    +0.144 HD
BRANCH  19  24
ATOM     24  N   UNL     1       3.634  -0.518  -0.035  0.00  0.00    -0.343 N 
ATOM     25  H   UNL     1       3.695  -1.486  -0.040  0.00  0.00    +0.144 HD
ATOM     26  H   UNL     1       4.441   0.020  -0.040  0.00  0.00    +0.144 HD
ENDBRANCH  19  24
ENDBRANCH  14  15
ENDBRANCH   1  14
TORSDOF 7
