REMARK  Name = ZINC13064916
REMARK  16 active torsions:
REMARK  status: ('A' for Active; 'I' for Inactive)
REMARK    1  A    between atoms: C_1  and  C_2
REMARK    2  A    between atoms: C_2  and  C_3
REMARK    3  A    between atoms: C_3  and  C_5
REMARK    4  A    between atoms: C_3  and  N_71
REMARK    5  A    between atoms: N_9  and  C_10
REMARK    6  A    between atoms: C_10  and  C_11
REMARK    7  A    between atoms: C_11  and  O_13
REMARK    8  A    between atoms: O_13  and  C_14
REMARK    9  A    between atoms: C_14  and  C_15
REMARK   10  A    between atoms: C_16  and  C_17
REMARK   11  A    between atoms: C_16  and  N_71
REMARK   12  A    between atoms: C_17  and  C_18
REMARK   13  A    between atoms: C_24  and  C_25
REMARK   14  A    between atoms: C_24  and  N_71
REMARK   15  A    between atoms: C_28  and  C_38
REMARK   16  A    between atoms: C_30  and  C_37
REMARK                            x       y       z     vdW  Elec       q    Type
REMARK                         _______ _______ _______ _____ _____    ______ ____
ROOT
ATOM      1  N   UNL     1      -1.797  -0.549  -0.294  0.00  0.00    +0.389 N 
ATOM      2  H   UNL     1      -1.695  -0.338  -1.294  0.00  0.00    -0.080 HD
ENDROOT
BRANCH   1   3
ATOM      3  C   UNL     1      -1.877  -2.014  -0.118  0.00  0.00    +0.003 C 
BRANCH   3   4
ATOM      4  C   UNL     1      -2.196  -2.358   1.314  0.00  0.00    +0.139 A 
ATOM      5  N   UNL     1      -3.016  -1.716   2.108  0.00  0.00    -0.115 NA
ATOM      6  N   UNL     1      -3.018  -2.316   3.248  0.00  0.00    -0.023 NA
ATOM      7  N   UNL     1      -2.220  -3.325   3.201  0.00  0.00    -0.043 NA
ATOM      8  N   UNL     1      -1.698  -3.388   2.023  0.00  0.00    -0.220 N 
BRANCH   8   9
ATOM      9  C   UNL     1      -0.740  -4.389   1.548  0.00  0.00    +0.267 C 
BRANCH   9  10
ATOM     10  C   UNL     1       0.663  -3.912   1.822  0.00  0.00    +0.329 C 
ATOM     11  O   UNL     1       0.845  -2.845   2.359  0.00  0.00    -0.249 OA
BRANCH  10  12
ATOM     12  O   UNL     1       1.712  -4.673   1.469  0.00  0.00    -0.464 OA
BRANCH  12  13
ATOM     13  C   UNL     1       3.034  -4.150   1.764  0.00  0.00    +0.229 C 
ATOM     14  C   UNL     1       4.093  -5.148   1.293  0.00  0.00    +0.048 C 
ENDBRANCH  12  13
ENDBRANCH  10  12
ENDBRANCH   9  10
ENDBRANCH   8   9
ENDBRANCH   3   4
BRANCH   3  16
ATOM     15  C   UNL     1      -2.699  -2.136  -2.475  0.00  0.00    +0.002 C 
ATOM     16  C   UNL     1      -2.975  -2.562  -1.032  0.00  0.00    -0.011 C 
ENDBRANCH   3  16
ENDBRANCH   1   3
BRANCH   1  17
ATOM     17  C   UNL     1      -0.625  -0.016   0.431  0.00  0.00    -0.073 C 
BRANCH  17  18
ATOM     18  C   UNL     1       0.626  -0.256  -0.417  0.00  0.00    +0.016 C 
BRANCH  18  19
ATOM     19  C   UNL     1       1.807   0.424   0.227  0.00  0.00    -0.049 A 
ATOM     20  C   UNL     1       2.021   1.775   0.026  0.00  0.00    +0.003 A 
ATOM     21  C   UNL     1       3.101   2.400   0.621  0.00  0.00    +0.000 A 
ATOM     22  C   UNL     1       3.974   1.671   1.407  0.00  0.00    +0.000 A 
ATOM     23  C   UNL     1       3.764   0.319   1.603  0.00  0.00    +0.000 A 
ATOM     24  C   UNL     1       2.680  -0.304   1.013  0.00  0.00    +0.003 A 
ENDBRANCH  18  19
ENDBRANCH  17  18
ENDBRANCH   1  17
BRANCH   1  25
ATOM     25  C   UNL     1      -3.034   0.088   0.207  0.00  0.00    -0.037 C 
BRANCH  25  26
ATOM     26  C   UNL     1      -3.163   1.451  -0.422  0.00  0.00    +0.001 A 
ATOM     27  C   UNL     1      -3.876   1.603  -1.566  0.00  0.00    +0.017 A 
ATOM     28  C   UNL     1      -3.982   2.941  -2.151  0.00  0.00    +0.002 A 
ATOM     29  C   UNL     1      -4.704   3.159  -3.329  0.00  0.00    -0.041 A 
ATOM     30  C   UNL     1      -4.785   4.420  -3.850  0.00  0.00    +0.007 A 
ATOM     31  C   UNL     1      -4.156   5.486  -3.220  0.00  0.00    -0.048 A 
ATOM     32  C   UNL     1      -3.439   5.293  -2.059  0.00  0.00    +0.029 A 
ATOM     33  C   UNL     1      -3.344   4.019  -1.510  0.00  0.00    +0.050 A 
ATOM     34  N   UNL     1      -2.635   3.798  -0.348  0.00  0.00    -0.322 N 
ATOM     35  H   UNL     1      -2.195   4.542   0.092  0.00  0.00    +0.169 HD
ATOM     36  C   UNL     1      -2.547   2.567   0.185  0.00  0.00    +0.251 A 
ATOM     37  O   UNL     1      -1.915   2.409   1.215  0.00  0.00    -0.268 OA
ATOM     38  C   UNL     1      -4.259   6.867  -3.813  0.00  0.00    +0.044 C 
ATOM     39  C   UNL     1      -5.389   2.009  -4.021  0.00  0.00    +0.044 C 
ENDBRANCH  25  26
ENDBRANCH   1  25
TORSDOF 12
