REMARK  Name = ZINC13831094
REMARK  4 active torsions:
REMARK  status: ('A' for Active; 'I' for Inactive)
REMARK    1  A    between atoms: C_6  and  C_7
REMARK    2  A    between atoms: C_10  and  C_24
REMARK    3  A    between atoms: C_13  and  C_15
REMARK    4  A    between atoms: C_29  and  O_30
REMARK                            x       y       z     vdW  Elec       q    Type
REMARK                         _______ _______ _______ _____ _____    ______ ____
ROOT
ATOM      1  C   UNL     1      -1.293  -0.775   0.010  0.00  0.00    +0.081 C 
ATOM      2  N   UNL     1      -1.097  -2.055  -0.677  0.00  0.00    +0.401 N 
ATOM      3  C   UNL     1      -2.399  -2.729  -0.814  0.00  0.00    -0.028 C 
ATOM      4  C   UNL     1      -3.250  -1.932  -1.807  0.00  0.00    +0.044 C 
ATOM      5  C   UNL     1      -3.199  -0.472  -1.450  0.00  0.00    +0.040 C 
ATOM      6  N   UNL     1      -2.325   0.015  -0.650  0.00  0.00    -0.299 NA
ATOM      7  H   UNL     1      -0.704  -1.891  -1.592  0.00  0.00    -0.081 HD
ATOM      8  H   UNL     1      -0.471  -2.636  -0.139  0.00  0.00    -0.081 HD
ENDROOT
BRANCH   5   9
ATOM      9  C   UNL     1      -4.197   0.436  -2.044  0.00  0.00    -0.001 A 
ATOM     10  C   UNL     1      -5.167  -0.064  -2.916  0.00  0.00    +0.013 A 
ATOM     11  C   UNL     1      -6.099   0.787  -3.471  0.00  0.00    +0.050 A 
ATOM     12  C   UNL     1      -6.077   2.141  -3.167  0.00  0.00    +0.166 A 
ATOM     13  C   UNL     1      -5.110   2.647  -2.297  0.00  0.00    +0.167 A 
ATOM     14  C   UNL     1      -4.177   1.798  -1.733  0.00  0.00    +0.059 A 
ATOM     15  O   UNL     1      -5.304   3.992  -2.165  0.00  0.00    -0.453 OA
ATOM     16  C   UNL     1      -6.138   4.370  -3.276  0.00  0.00    +0.466 C 
ATOM     17  O   UNL     1      -6.873   3.170  -3.577  0.00  0.00    -0.453 OA
ENDBRANCH   5   9
BRANCH   1  23
ATOM     18  C   UNL     1      -0.017   1.378   0.010  0.00  0.00    +0.006 A 
ATOM     19  C   UNL     1       1.170   2.086   0.002  0.00  0.00    +0.040 A 
ATOM     20  C   UNL     1       2.379   1.411  -0.013  0.00  0.00    +0.137 A 
ATOM     21  C   UNL     1       2.397   0.026  -0.021  0.00  0.00    +0.053 A 
ATOM     22  C   UNL     1       1.208  -0.680  -0.013  0.00  0.00    +0.022 A 
ATOM     23  C   UNL     1       0.002  -0.004   0.002  0.00  0.00    -0.039 A 
ATOM     24 BR   UNL     1       4.046  -0.899  -0.042  0.00  0.00    -0.047 Br
ATOM     25  F   UNL     1       3.539   2.103  -0.021  0.00  0.00    -0.204 F 
ENDBRANCH   1  23
BRANCH   3  26
ATOM     26  C   UNL     1      -2.195  -4.131  -1.327  0.00  0.00    -0.018 A 
ATOM     27  C   UNL     1      -1.019  -4.467  -1.970  0.00  0.00    +0.025 A 
ATOM     28  C   UNL     1      -0.831  -5.754  -2.442  0.00  0.00    +0.041 A 
ATOM     29  C   UNL     1      -1.820  -6.706  -2.272  0.00  0.00    +0.023 A 
ATOM     30  C   UNL     1      -2.997  -6.374  -1.630  0.00  0.00    +0.047 A 
ATOM     31  C   UNL     1      -3.185  -5.086  -1.151  0.00  0.00    +0.119 A 
ATOM     32 CL   UNL     1       0.648  -6.174  -3.249  0.00  0.00    -0.084 Cl
BRANCH  31  33
ATOM     33  O   UNL     1      -4.340  -4.758  -0.514  0.00  0.00    -0.507 OA
ATOM     34  H   UNL     1      -5.035  -4.432  -1.103  0.00  0.00    +0.292 HD
ENDBRANCH  31  33
ENDBRANCH   3  26
TORSDOF 4
