REMARK  Name = ZINC38976025
REMARK  6 active torsions:
REMARK  status: ('A' for Active; 'I' for Inactive)
REMARK    1  A    between atoms: C_1  and  C_2
REMARK    2  A    between atoms: N_4  and  C_5
REMARK    3  A    between atoms: C_8  and  N_11
REMARK    4  A    between atoms: N_11  and  C_12
REMARK    5  A    between atoms: N_15  and  S_16
REMARK    6  A    between atoms: S_16  and  C_19
REMARK                            x       y       z     vdW  Elec       q    Type
REMARK                         _______ _______ _______ _____ _____    ______ ____
ROOT
ATOM      1  C   UNL     1       0.645  -6.879  -2.711  0.00  0.00    +0.235 C 
ATOM      2  C   UNL     1      -0.272  -8.079  -2.773  0.00  0.00    +0.170 C 
ATOM      3  N   UNL     1      -1.558  -7.934  -2.644  0.00  0.00    -0.111 NA
ATOM      4  N   UNL     1       0.260  -9.297  -2.962  0.00  0.00    -0.338 N 
ATOM      5  C   UNL     1       1.559  -9.470  -3.095  0.00  0.00    +0.064 A 
ATOM      6  C   UNL     1       2.087 -10.771  -3.293  0.00  0.00    +0.028 A 
ATOM      7  C   UNL     1       3.418 -10.954  -3.429  0.00  0.00    +0.002 A 
ATOM      8  C   UNL     1       4.339  -9.895  -3.384  0.00  0.00    +0.002 A 
ATOM      9  C   UNL     1       3.943  -8.616  -3.199  0.00  0.00    +0.027 A 
ATOM     10  C   UNL     1       2.509  -8.332  -3.043  0.00  0.00    +0.061 A 
ATOM     11  N   UNL     1       2.090  -7.111  -2.863  0.00  0.00    -0.359 N 
ATOM     12  H   UNL     1       2.717  -6.372  -2.831  0.00  0.00    +0.162 HD
ATOM     13  H   UNL     1      -0.326 -10.069  -3.002  0.00  0.00    +0.167 HD
ENDROOT
BRANCH   3  14
ATOM     14  S   UNL     1      -2.552  -9.257  -2.713  0.00  0.00    +0.107 S 
ATOM     15  O   UNL     1      -2.464  -9.762  -4.039  0.00  0.00    -0.146 OA
ATOM     16  O   UNL     1      -2.251 -10.051  -1.574  0.00  0.00    -0.146 OA
BRANCH  14  17
ATOM     17  C   UNL     1      -4.203  -8.680  -2.503  0.00  0.00    +0.150 A 
ATOM     18  C   UNL     1      -5.095  -8.283  -3.443  0.00  0.00    +0.037 A 
ATOM     19  C   UNL     1      -6.350  -7.865  -3.042  0.00  0.00    +0.010 A 
ATOM     20  C   UNL     1      -6.652  -7.864  -1.721  0.00  0.00    +0.047 A 
ATOM     21  S   UNL     1      -5.138  -8.473  -0.996  0.00  0.00    -0.076 S 
ENDBRANCH  14  17
ENDBRANCH   3  14
BRANCH   1  22
ATOM     22  N   UNL     1       0.432  -6.219  -1.421  0.00  0.00    -0.318 N 
ATOM     23  H   UNL     1       0.474  -6.734  -0.600  0.00  0.00    +0.148 HD
BRANCH  22  27
ATOM     24  C   UNL     1      -0.356  -2.128  -1.278  0.00  0.00    +0.033 A 
ATOM     25  C   UNL     1       0.012  -2.723  -2.478  0.00  0.00    +0.025 A 
ATOM     26  C   UNL     1       0.273  -4.078  -2.525  0.00  0.00    +0.025 A 
ATOM     27  C   UNL     1       0.168  -4.846  -1.373  0.00  0.00    +0.029 A 
ATOM     28  C   UNL     1      -0.200  -4.251  -0.173  0.00  0.00    +0.025 A 
ATOM     29  C   UNL     1      -0.456  -2.895  -0.125  0.00  0.00    +0.025 A 
BRANCH  24  33
ATOM     30  C   UNL     1      -0.419   1.467  -0.157  0.00  0.00    +0.109 C 
ATOM     31  C   UNL     1      -0.228  -0.028  -0.164  0.00  0.00    +0.214 C 
ATOM     32  O   UNL     1       0.280  -0.579   0.790  0.00  0.00    -0.276 OA
ATOM     33  N   UNL     1      -0.621  -0.753  -1.230  0.00  0.00    -0.286 N 
ATOM     34  H   UNL     1      -1.087  -0.322  -1.964  0.00  0.00    +0.155 HD
ENDBRANCH  24  33
ENDBRANCH  22  27
ENDBRANCH   1  22
TORSDOF 5
