REMARK  Name = ZINC38600882
REMARK  7 active torsions:
REMARK  status: ('A' for Active; 'I' for Inactive)
REMARK    1  A    between atoms: C_1  and  C_2
REMARK    2  A    between atoms: C_2  and  O_3
REMARK    3  A    between atoms: O_3  and  C_4
REMARK    4  A    between atoms: C_7  and  N_10
REMARK    5  A    between atoms: C_14  and  C_15
REMARK    6  A    between atoms: C_18  and  S_20
REMARK    7  A    between atoms: S_20  and  C_21
REMARK                            x       y       z     vdW  Elec       q    Type
REMARK                         _______ _______ _______ _____ _____    ______ ____
ROOT
ATOM      1  N   UNL     1      -2.107  -6.080  -1.264  0.00  0.00    -0.188 N 
ATOM      2  C   UNL     1      -3.292  -6.593  -0.867  0.00  0.00    +0.264 C 
ATOM      3  O   UNL     1      -4.330  -5.979  -1.035  0.00  0.00    -0.269 OA
ATOM      4  C   UNL     1      -3.290  -7.915  -0.226  0.00  0.00    +0.105 C 
ATOM      5  C   UNL     1      -4.481  -8.512   0.213  0.00  0.00    +0.064 C 
ATOM      6  C   UNL     1      -2.039  -8.566  -0.066  0.00  0.00    +0.277 C 
ATOM      7  O   UNL     1      -1.970  -9.784   0.515  0.00  0.00    -0.268 OA
ATOM      8  N   UNL     1      -0.940  -7.966  -0.495  0.00  0.00    -0.123 NA
ATOM      9  C   UNL     1      -0.970  -6.771  -1.078  0.00  0.00    +0.340 C 
ATOM     10  O   UNL     1       0.080  -6.278  -1.454  0.00  0.00    -0.250 OA
ENDROOT
BRANCH   1  14
ATOM     11  C   UNL     1      -1.982  -2.336  -3.097  0.00  0.00    +0.121 A 
ATOM     12  C   UNL     1      -1.477  -3.447  -3.756  0.00  0.00    +0.047 A 
ATOM     13  C   UNL     1      -1.518  -4.687  -3.149  0.00  0.00    +0.027 A 
ATOM     14  C   UNL     1      -2.065  -4.821  -1.880  0.00  0.00    +0.046 A 
ATOM     15  C   UNL     1      -2.570  -3.708  -1.221  0.00  0.00    +0.027 A 
ATOM     16  C   UNL     1      -2.524  -2.468  -1.827  0.00  0.00    +0.047 A 
BRANCH  11  17
ATOM     17  O   UNL     1      -1.942  -1.115  -3.695  0.00  0.00    -0.492 OA
BRANCH  17  19
ATOM     18  C   UNL     1      -1.413   0.391  -5.509  0.00  0.00    +0.048 C 
ATOM     19  C   UNL     1      -1.371  -1.052  -5.003  0.00  0.00    +0.225 C 
ENDBRANCH  17  19
ENDBRANCH  11  17
ENDBRANCH   1  14
BRANCH   5  20
ATOM     20  C   UNL     1      -5.665  -7.781   0.217  0.00  0.00    +0.130 A 
ATOM     21  C   UNL     1      -6.923  -8.256  -0.158  0.00  0.00    +0.050 A 
ATOM     22  C   UNL     1      -7.811  -7.202  -0.000  0.00  0.00    +0.057 A 
ATOM     23  C   UNL     1      -7.083  -6.119   0.462  0.00  0.00    +0.165 A 
ATOM     24  O   UNL     1      -5.799  -6.487   0.591  0.00  0.00    -0.449 OA
BRANCH  23  25
ATOM     25  S   UNL     1      -7.735  -4.524   0.826  0.00  0.00    -0.046 S 
BRANCH  25  26
ATOM     26  C   UNL     1      -8.359  -4.681   2.522  0.00  0.00    +0.240 C 
ATOM     27  N   UNL     1      -7.243  -5.002   3.453  0.00  0.00    -0.275 NA
ATOM     28  C   UNL     1      -7.261  -6.471   3.427  0.00  0.00    +0.128 C 
ATOM     29  C   UNL     1      -6.625  -7.043   4.665  0.00  0.00    -0.002 C 
ATOM     30  C   UNL     1      -7.212  -8.123   5.202  0.00  0.00    -0.002 C 
ATOM     31  C   UNL     1      -8.410  -8.711   4.614  0.00  0.00    +0.002 C 
ATOM     32  C   UNL     1      -9.137  -8.101   3.654  0.00  0.00    +0.025 C 
ATOM     33  C   UNL     1      -8.711  -6.833   3.155  0.00  0.00    +0.060 C 
ATOM     34  N   UNL     1      -9.295  -5.813   2.616  0.00  0.00    -0.256 NA
ATOM     35  H   UNL     1      -6.366  -4.645   3.103  0.00  0.00    +0.126 HD
ENDBRANCH  25  26
ENDBRANCH  23  25
ENDBRANCH   5  20
TORSDOF 6
