REMARK  Name = ZINC35363925
REMARK  6 active torsions:
REMARK  status: ('A' for Active; 'I' for Inactive)
REMARK    1  A    between atoms: C_1  and  C_2
REMARK    2  A    between atoms: C_2  and  C_3
REMARK    3  A    between atoms: C_3  and  C_5
REMARK    4  A    between atoms: C_3  and  N_6
REMARK    5  A    between atoms: C_11  and  C_28
REMARK    6  A    between atoms: C_28  and  C_29
REMARK                            x       y       z     vdW  Elec       q    Type
REMARK                         _______ _______ _______ _____ _____    ______ ____
ROOT
ATOM      1  N   UNL     1      -2.105  -0.148  -1.230  0.00  0.00    -0.239 N 
ATOM      2  C   UNL     1      -1.670  -0.530  -2.437  0.00  0.00    +0.227 C 
ATOM      3  O   UNL     1      -0.697  -1.224  -2.643  0.00  0.00    -0.275 OA
ATOM      4  C   UNL     1      -2.580   0.037  -3.502  0.00  0.00    +0.107 C 
ATOM      5  C   UNL     1      -3.347  -1.115  -4.185  0.00  0.00    +0.072 C 
ATOM      6  N   UNL     1      -4.551  -1.327  -3.339  0.00  0.00    -0.295 NA
ATOM      7  C   UNL     1      -4.958   0.033  -2.942  0.00  0.00    +0.136 C 
ATOM      8  C   UNL     1      -3.647   0.818  -2.684  0.00  0.00    +0.122 C 
ATOM      9  C   UNL     1      -3.208   0.610  -1.252  0.00  0.00    +0.228 C 
ATOM     10  O   UNL     1      -3.767   1.061  -0.276  0.00  0.00    -0.275 OA
ATOM     11  C   UNL     1      -5.788   0.693  -4.005  0.00  0.00    +0.003 A 
ATOM     12  C   UNL     1      -5.562   1.006  -5.327  0.00  0.00    +0.008 A 
ATOM     13  C   UNL     1      -6.549   1.629  -6.070  0.00  0.00    +0.000 A 
ATOM     14  C   UNL     1      -7.763   1.937  -5.481  0.00  0.00    +0.002 A 
ATOM     15  C   UNL     1      -7.994   1.626  -4.158  0.00  0.00    +0.023 A 
ATOM     16  C   UNL     1      -7.005   0.998  -3.403  0.00  0.00    +0.039 A 
ATOM     17  N   UNL     1      -7.000   0.587  -2.068  0.00  0.00    -0.283 N 
ATOM     18  C   UNL     1      -5.833   0.011  -1.719  0.00  0.00    +0.243 C 
ATOM     19  O   UNL     1      -5.546  -0.440  -0.630  0.00  0.00    -0.273 OA
ATOM     20  H   UNL     1      -5.283  -1.786  -3.860  0.00  0.00    +0.124 HD
ATOM     21  H   UNL     1      -7.748   0.704  -1.462  0.00  0.00    +0.155 HD
ENDROOT
BRANCH   1  22
ATOM     22  C   UNL     1      -1.433  -0.534   0.013  0.00  0.00    +0.081 C 
ATOM     23  C   UNL     1      -1.413  -2.059   0.130  0.00  0.00    +0.028 C 
BRANCH  22  25
ATOM     24  C   UNL     1      -0.019   1.526   0.010  0.00  0.00    +0.006 C 
ATOM     25  C   UNL     1       0.002  -0.004   0.002  0.00  0.00    +0.019 C 
ENDBRANCH  22  25
ENDBRANCH   1  22
BRANCH   5  26
ATOM     26  C   UNL     1      -2.487  -2.380  -4.219  0.00  0.00    +0.056 C 
BRANCH  26  27
ATOM     27  C   UNL     1      -3.204  -3.454  -4.996  0.00  0.00    -0.021 A 
ATOM     28  C   UNL     1      -3.985  -4.420  -4.489  0.00  0.00    +0.087 A 
ATOM     29  N   UNL     1      -4.463  -5.211  -5.498  0.00  0.00    -0.360 N 
ATOM     30  H   UNL     1      -5.049  -5.975  -5.377  0.00  0.00    +0.165 HD
ATOM     31  C   UNL     1      -3.990  -4.761  -6.710  0.00  0.00    +0.047 A 
ATOM     32  C   UNL     1      -3.185  -3.637  -6.450  0.00  0.00    +0.003 A 
ATOM     33  C   UNL     1      -2.570  -2.961  -7.505  0.00  0.00    +0.010 A 
ATOM     34  C   UNL     1      -2.755  -3.394  -8.788  0.00  0.00    +0.001 A 
ATOM     35  C   UNL     1      -3.551  -4.501  -9.050  0.00  0.00    +0.002 A 
ATOM     36  C   UNL     1      -4.161  -5.188  -8.023  0.00  0.00    +0.026 A 
ENDBRANCH  26  27
ENDBRANCH   5  26
TORSDOF 4
