REMARK  Name = ZINC15861783
REMARK  4 active torsions:
REMARK  status: ('A' for Active; 'I' for Inactive)
REMARK    1  A    between atoms: C_3  and  N_9
REMARK    2  A    between atoms: C_6  and  C_7
REMARK    3  A    between atoms: N_11  and  C_12
REMARK    4  A    between atoms: C_22  and  N_32
REMARK                            x       y       z     vdW  Elec       q    Type
REMARK                         _______ _______ _______ _____ _____    ______ ____
ROOT
ATOM      1  N   UNL     1       3.766  -2.404  -3.706  0.00  0.00    -0.254 N 
ATOM      2  C   UNL     1       2.561  -2.045  -3.158  0.00  0.00    +0.098 C 
ATOM      3  N   UNL     1       1.821  -1.061  -3.548  0.00  0.00    -0.369 N 
ATOM      4  C   UNL     1       2.239  -2.996  -2.025  0.00  0.00    +0.131 C 
ATOM      5  C   UNL     1       3.443  -3.951  -2.001  0.00  0.00    +0.038 C 
ATOM      6  C   UNL     1       4.335  -3.462  -3.114  0.00  0.00    +0.069 C 
ATOM      7  S   UNL     1       5.738  -4.109  -3.526  0.00  0.00    -0.039 S 
ATOM      8  C   UNL     1       2.985  -5.381  -2.270  0.00  0.00    +0.015 C 
ATOM      9  C   UNL     1       2.047  -5.837  -1.149  0.00  0.00    +0.001 C 
ATOM     10  C   UNL     1       2.782  -5.762   0.191  0.00  0.00    +0.000 C 
ATOM     11  C   UNL     1       3.218  -4.320   0.457  0.00  0.00    +0.001 C 
ATOM     12  C   UNL     1       4.160  -3.859  -0.658  0.00  0.00    +0.015 C 
ATOM     13  H   UNL     1       1.884  -0.703  -4.586  0.00  0.00    +0.161 HD
ENDROOT
BRANCH   3  14
ATOM     14  C   UNL     1       0.897  -0.422  -2.608  0.00  0.00    +0.040 C 
ATOM     15  C   UNL     1       0.289   0.824  -3.257  0.00  0.00    +0.031 C 
ATOM     16  C   UNL     1      -0.676   1.491  -2.275  0.00  0.00    -0.008 C 
ATOM     17  C   UNL     1       0.083   1.893  -1.008  0.00  0.00    +0.007 C 
ATOM     18  C   UNL     1       0.690   0.648  -0.360  0.00  0.00    -0.008 C 
ATOM     19  C   UNL     1       1.655  -0.019  -1.342  0.00  0.00    +0.031 C 
ATOM     20  C   UNL     1      -0.426  -0.333   0.004  0.00  0.00    +0.007 C 
ATOM     21  C   UNL     1      -1.185  -0.736  -1.262  0.00  0.00    -0.008 C 
ATOM     22  C   UNL     1      -1.792   0.510  -1.910  0.00  0.00    +0.007 C 
ATOM     23  C   UNL     1      -0.219  -1.403  -2.244  0.00  0.00    +0.031 C 
ENDBRANCH   3  14
BRANCH   1  26
ATOM     24  C   UNL     1       4.618  -1.437  -7.145  0.00  0.00    +0.021 A 
ATOM     25  C   UNL     1       4.047  -2.103  -6.084  0.00  0.00    +0.025 A 
ATOM     26  C   UNL     1       4.348  -1.726  -4.780  0.00  0.00    +0.040 A 
ATOM     27  C   UNL     1       5.224  -0.671  -4.542  0.00  0.00    +0.025 A 
ATOM     28  C   UNL     1       5.803  -0.004  -5.598  0.00  0.00    +0.021 A 
ATOM     29  C   UNL     1       5.502  -0.380  -6.910  0.00  0.00    +0.052 A 
BRANCH  29  30
ATOM     30  C   UNL     1       6.098   0.315  -8.011  0.00  0.00    +0.099 C 
ATOM     31  N   UNL     1       6.572   0.867  -8.884  0.00  0.00    -0.191 NA
ENDBRANCH  29  30
ENDBRANCH   1  26
BRANCH   4  32
ATOM     32  N   UNL     1       0.998  -3.731  -2.304  0.00  0.00    -0.292 NA
ATOM     33  C   UNL     1       0.240  -3.972  -1.070  0.00  0.00    +0.085 C 
ATOM     34  C   UNL     1      -1.109  -4.607  -1.414  0.00  0.00    +0.015 C 
ATOM     35  C   UNL     1      -0.873  -5.926  -2.156  0.00  0.00    +0.002 C 
ATOM     36  C   UNL     1      -0.040  -5.653  -3.412  0.00  0.00    +0.015 C 
ATOM     37  C   UNL     1       1.278  -4.988  -3.010  0.00  0.00    +0.085 C 
ENDBRANCH   4  32
TORSDOF 4
