REMARK  Name = ZINC01279993
REMARK  11 active torsions:
REMARK  status: ('A' for Active; 'I' for Inactive)
REMARK    1  A    between atoms: C_1  and  C_2
REMARK    2  A    between atoms: N_5  and  C_8
REMARK    3  A    between atoms: C_8  and  C_9
REMARK    4  A    between atoms: C_10  and  C_14
REMARK    5  A    between atoms: C_14  and  C_15
REMARK    6  A    between atoms: C_15  and  C_16
REMARK    7  A    between atoms: C_24  and  C_34
REMARK    8  A    between atoms: C_28  and  C_29
REMARK    9  A    between atoms: C_28  and  C_30
REMARK   10  A    between atoms: C_30  and  O_32
REMARK   11  A    between atoms: O_32  and  C_33
REMARK                            x       y       z     vdW  Elec       q    Type
REMARK                         _______ _______ _______ _____ _____    ______ ____
ROOT
ATOM      1  C   UNL     1      -4.387  -5.168   3.986  0.00  0.00    +0.021 C 
ATOM      2  C   UNL     1      -4.646  -4.925   5.457  0.00  0.00    -0.073 C 
ATOM      3  C   UNL     1      -4.898  -3.715   5.897  0.00  0.00    +0.008 C 
ATOM      4  C   UNL     1      -4.602  -6.096   6.410  0.00  0.00    +0.031 C 
ATOM      5  C   UNL     1      -5.480  -7.226   5.854  0.00  0.00    +0.009 C 
ATOM      6  C   UNL     1      -5.050  -7.539   4.420  0.00  0.00    +0.012 C 
ATOM      7  C   UNL     1      -5.269  -6.337   3.517  0.00  0.00    -0.022 C 
ATOM      8  C   UNL     1      -4.930  -6.675   2.066  0.00  0.00    +0.007 C 
ATOM      9  C   UNL     1      -5.777  -7.864   1.605  0.00  0.00    +0.002 C 
ATOM     10  C   UNL     1      -5.414  -9.083   2.446  0.00  0.00    +0.018 C 
ATOM     11  C   UNL     1      -5.665  -8.838   3.932  0.00  0.00    +0.068 C 
ATOM     12  C   UNL     1      -7.162  -8.924   4.226  0.00  0.00    +0.023 C 
ATOM     13  C   UNL     1      -6.724  -5.843   3.576  0.00  0.00    +0.012 C 
ENDROOT
BRANCH  11  14
ATOM     14  C   UNL     1      -4.994  -9.986   4.678  0.00  0.00    +0.313 C 
ATOM     15  O   UNL     1      -4.133  -9.755   5.493  0.00  0.00    -0.250 OA
BRANCH  14  16
ATOM     16  O   UNL     1      -5.360 -11.253   4.428  0.00  0.00    -0.468 OA
ATOM     17  C   UNL     1      -4.689 -12.279   5.163  0.00  0.00    +0.280 C 
ENDBRANCH  14  16
ENDBRANCH  11  14
BRANCH   1  18
ATOM     18  C   UNL     1      -2.905  -5.447   3.763  0.00  0.00    +0.013 C 
BRANCH  18  19
ATOM     19  C   UNL     1      -2.090  -4.207   4.134  0.00  0.00    +0.039 C 
BRANCH  19  21
ATOM     20  C   UNL     1       0.048  -4.359   2.755  0.00  0.00    +0.092 A 
ATOM     21  C   UNL     1      -0.625  -4.483   3.913  0.00  0.00    -0.008 A 
ATOM     22  C   UNL     1       0.305  -4.922   4.883  0.00  0.00    +0.045 A 
ATOM     23  C   UNL     1       1.492  -5.040   4.260  0.00  0.00    +0.195 A 
ATOM     24  O   UNL     1       1.329  -4.703   2.970  0.00  0.00    -0.469 OA
BRANCH  20  25
ATOM     25  C   UNL     1      -0.536  -3.914   1.439  0.00  0.00    -0.003 C 
BRANCH  25  30
ATOM     26  C   UNL     1       0.451   1.510  -0.018  0.00  0.00    +0.007 C 
ATOM     27  C   UNL     1       0.401  -0.019  -0.012  0.00  0.00    -0.018 C 
ATOM     28  C   UNL     1      -1.058  -0.483   0.011  0.00  0.00    -0.016 C 
ATOM     29  C   UNL     1      -1.101  -2.011   0.096  0.00  0.00    -0.078 C 
ATOM     30  N   UNL     1      -0.425  -2.454   1.322  0.00  0.00    +0.384 N 
ATOM     31  C   UNL     1       0.992  -2.075   1.274  0.00  0.00    -0.078 C 
ATOM     32  C   UNL     1       1.115  -0.551   1.234  0.00  0.00    -0.016 C 
ATOM     33  H   UNL     1      -0.862  -2.021   2.121  0.00  0.00    -0.081 HD
ENDBRANCH  25  30
ENDBRANCH  20  25
ENDBRANCH  19  21
ENDBRANCH  18  19
ENDBRANCH   1  18
TORSDOF 7
