REMARK  Name = ZINC08868854
REMARK  10 active torsions:
REMARK  status: ('A' for Active; 'I' for Inactive)
REMARK    1  A    between atoms: C_1  and  C_2
REMARK    2  A    between atoms: C_2  and  N_62
REMARK    3  A    between atoms: C_8  and  N_15
REMARK    4  A    between atoms: C_9  and  C_10
REMARK    5  A    between atoms: C_10  and  O_12
REMARK    6  A    between atoms: O_12  and  C_13
REMARK    7  A    between atoms: C_13  and  C_14
REMARK    8  A    between atoms: C_16  and  C_18
REMARK    9  A    between atoms: N_23  and  S_24
REMARK   10  A    between atoms: S_24  and  C_27
REMARK                            x       y       z     vdW  Elec       q    Type
REMARK                         _______ _______ _______ _____ _____    ______ ____
ROOT
ATOM      1  N   UNL     1      -1.072  -0.880   0.007  0.00  0.00    -0.278 N 
ATOM      2  C   UNL     1      -2.332  -0.401   0.022  0.00  0.00    +0.236 C 
ATOM      3  O   UNL     1      -2.526   0.796   0.031  0.00  0.00    -0.274 OA
ATOM      4  H   UNL     1      -0.917  -1.837   0.001  0.00  0.00    +0.155 HD
ENDROOT
BRANCH   1  10
ATOM      5  C   UNL     1       4.403   2.013  -0.473  0.00  0.00    -0.074 C 
ATOM      6  C   UNL     1       3.806   0.672  -0.035  0.00  0.00    +0.018 C 
ATOM      7  C   UNL     1       2.288   0.812  -0.016  0.00  0.00    -0.025 A 
ATOM      8  C   UNL     1       1.720   2.038  -0.003  0.00  0.00    -0.021 A 
ATOM      9  S   UNL     1      -0.021   1.729   0.011  0.00  0.00    -0.079 S 
ATOM     10  C   UNL     1       0.002  -0.004   0.002  0.00  0.00    +0.086 A 
ATOM     11  C   UNL     1       1.359  -0.303  -0.013  0.00  0.00    +0.091 A 
ATOM     12  C   UNL     1       2.439   3.351  -0.001  0.00  0.00    -0.035 C 
ATOM     13  N   UNL     1       3.852   3.094   0.370  0.00  0.00    +0.383 N 
ATOM     14  H   UNL     1       3.891   2.803   1.354  0.00  0.00    -0.081 HD
BRANCH  13  16
ATOM     15  C   UNL     1       4.205   5.353   1.244  0.00  0.00    -0.017 C 
ATOM     16  C   UNL     1       4.652   4.326   0.201  0.00  0.00    -0.082 C 
ENDBRANCH  13  16
BRANCH  11  17
ATOM     17  C   UNL     1       1.833  -1.688  -0.024  0.00  0.00    +0.342 C 
ATOM     18  O   UNL     1       2.020  -2.259  -1.083  0.00  0.00    -0.245 OA
BRANCH  17  19
ATOM     19  O   UNL     1       2.062  -2.332   1.138  0.00  0.00    -0.461 OA
BRANCH  19  20
ATOM     20  C   UNL     1       2.531  -3.704   1.051  0.00  0.00    +0.229 C 
ATOM     21  C   UNL     1       2.734  -4.264   2.460  0.00  0.00    +0.048 C 
ENDBRANCH  19  20
ENDBRANCH  17  19
ENDBRANCH  11  17
ENDBRANCH   1  10
BRANCH   2  22
ATOM     22  C   UNL     1      -3.500  -1.353   0.029  0.00  0.00    +0.166 C 
ATOM     23  C   UNL     1      -3.460  -2.225   1.301  0.00  0.00    +0.031 C 
ATOM     24  C   UNL     1      -4.441  -1.485   2.255  0.00  0.00    +0.019 C 
ATOM     25  C   UNL     1      -5.515  -0.974   1.263  0.00  0.00    +0.110 C 
ATOM     26  N   UNL     1      -4.761  -0.597   0.053  0.00  0.00    -0.165 NA
BRANCH  26  27
ATOM     27  S   UNL     1      -5.253   0.496  -1.089  0.00  0.00    +0.062 S 
ATOM     28  O   UNL     1      -6.175   1.367  -0.448  0.00  0.00    -0.153 OA
ATOM     29  O   UNL     1      -4.077   0.971  -1.730  0.00  0.00    -0.153 OA
BRANCH  27  30
ATOM     30  C   UNL     1      -6.164  -0.395  -2.306  0.00  0.00    +0.106 A 
ATOM     31  C   UNL     1      -5.514  -0.930  -3.402  0.00  0.00    +0.031 A 
ATOM     32  C   UNL     1      -6.227  -1.634  -4.354  0.00  0.00    +0.040 A 
ATOM     33  C   UNL     1      -7.595  -1.793  -4.215  0.00  0.00    +0.124 A 
ATOM     34  C   UNL     1      -8.246  -1.252  -3.119  0.00  0.00    +0.040 A 
ATOM     35  C   UNL     1      -7.530  -0.554  -2.166  0.00  0.00    +0.031 A 
ATOM     36  F   UNL     1      -8.294  -2.476  -5.148  0.00  0.00    -0.205 F 
ENDBRANCH  27  30
ENDBRANCH  26  27
ENDBRANCH   2  22
TORSDOF 8
