REMARK  Name = ZINC15320390
REMARK  5 active torsions:
REMARK  status: ('A' for Active; 'I' for Inactive)
REMARK    1  A    between atoms: C_1  and  C_2
REMARK    2  A    between atoms: C_2  and  C_3
REMARK    3  A    between atoms: N_11  and  C_14
REMARK    4  A    between atoms: N_28  and  C_31
REMARK    5  A    between atoms: C_31  and  C_32
REMARK                            x       y       z     vdW  Elec       q    Type
REMARK                         _______ _______ _______ _____ _____    ______ ____
ROOT
ATOM      1  C   UNL     1       0.400  -0.680   1.247  0.00  0.00    +0.067 C 
ATOM      2  C   UNL     1       0.651  -2.198   1.362  0.00  0.00    +0.107 C 
ATOM      3  C   UNL     1       2.144  -2.325   1.778  0.00  0.00    +0.123 C 
ATOM      4  C   UNL     1       2.779  -3.010   0.590  0.00  0.00    +0.233 C 
ATOM      5  O   UNL     1       3.950  -3.311   0.498  0.00  0.00    -0.274 OA
ATOM      6  N   UNL     1       1.849  -3.234  -0.345  0.00  0.00    -0.210 N 
ATOM      7  C   UNL     1       0.604  -2.818  -0.016  0.00  0.00    +0.232 C 
ATOM      8  O   UNL     1      -0.389  -2.919  -0.705  0.00  0.00    -0.274 OA
ATOM      9  C   UNL     1       2.639  -0.877   1.882  0.00  0.00    +0.136 C 
ATOM     10  N   UNL     1       1.742  -0.084   1.010  0.00  0.00    -0.295 NA
ATOM     11  C   UNL     1       2.628  -0.393   3.304  0.00  0.00    +0.004 A 
ATOM     12  C   UNL     1       1.638  -0.257   4.251  0.00  0.00    +0.008 A 
ATOM     13  C   UNL     1       1.945   0.232   5.509  0.00  0.00    +0.000 A 
ATOM     14  C   UNL     1       3.248   0.584   5.810  0.00  0.00    +0.002 A 
ATOM     15  C   UNL     1       4.243   0.451   4.864  0.00  0.00    +0.024 A 
ATOM     16  C   UNL     1       3.942  -0.040   3.596  0.00  0.00    +0.042 A 
ATOM     17  N   UNL     1       4.760  -0.262   2.485  0.00  0.00    -0.260 N 
ATOM     18  C   UNL     1       4.071  -0.752   1.437  0.00  0.00    +0.246 C 
ATOM     19  O   UNL     1       4.518  -1.038   0.346  0.00  0.00    -0.273 OA
ATOM     20  H   UNL     1       2.005  -0.162   0.039  0.00  0.00    +0.123 HD
ENDROOT
BRANCH   6  21
ATOM     21  C   UNL     1       2.136  -3.856  -1.568  0.00  0.00    +0.044 A 
ATOM     22  C   UNL     1       2.055  -3.134  -2.752  0.00  0.00    +0.024 A 
ATOM     23  C   UNL     1       2.339  -3.750  -3.955  0.00  0.00    +0.002 A 
ATOM     24  C   UNL     1       2.704  -5.083  -3.982  0.00  0.00    +0.000 A 
ATOM     25  C   UNL     1       2.787  -5.804  -2.805  0.00  0.00    +0.002 A 
ATOM     26  C   UNL     1       2.509  -5.193  -1.598  0.00  0.00    +0.024 A 
ENDBRANCH   6  21
BRANCH   1  28
ATOM     27  C   UNL     1      -0.836   1.116   0.026  0.00  0.00    +0.005 C 
ATOM     28  C   UNL     1      -0.530  -0.383   0.069  0.00  0.00    +0.016 C 
ENDBRANCH   1  28
BRANCH  17  29
ATOM     29  C   UNL     1       6.199   0.007   2.463  0.00  0.00    +0.210 C 
BRANCH  29  30
ATOM     30  C   UNL     1       6.948  -1.224   2.907  0.00  0.00    +0.238 C 
ATOM     31  O   UNL     1       6.338  -2.227   3.211  0.00  0.00    -0.274 OA
ATOM     32  N   UNL     1       8.294  -1.209   2.965  0.00  0.00    -0.270 N 
ATOM     33  C   UNL     1       9.129  -2.342   3.374  0.00  0.00    +0.118 C 
ATOM     34  C   UNL     1      10.576  -1.832   3.275  0.00  0.00    +0.056 C 
ATOM     35  C   UNL     1      10.445  -0.402   2.802  0.00  0.00    -0.024 A 
ATOM     36  C   UNL     1       9.099  -0.113   2.639  0.00  0.00    +0.040 A 
ATOM     37  C   UNL     1       8.727   1.158   2.199  0.00  0.00    +0.024 A 
ATOM     38  C   UNL     1       9.688   2.109   1.929  0.00  0.00    +0.002 A 
ATOM     39  C   UNL     1      11.028   1.810   2.091  0.00  0.00    +0.000 A 
ATOM     40  C   UNL     1      11.404   0.555   2.534  0.00  0.00    +0.005 A 
ENDBRANCH  29  30
ENDBRANCH  17  29
TORSDOF 4
