REMARK  Name = ZINC39483471
REMARK  6 active torsions:
REMARK  status: ('A' for Active; 'I' for Inactive)
REMARK    1  A    between atoms: C_1  and  C_2
REMARK    2  A    between atoms: C_2  and  C_3
REMARK    3  A    between atoms: C_2  and  S_4
REMARK    4  A    between atoms: S_4  and  C_7
REMARK    5  A    between atoms: C_9  and  C_14
REMARK    6  A    between atoms: C_29  and  C_30
REMARK                            x       y       z     vdW  Elec       q    Type
REMARK                         _______ _______ _______ _____ _____    ______ ____
ROOT
ATOM      1  C   UNL     1      -4.328   3.064  -2.549  0.00  0.00    +0.015 C 
ATOM      2  C   UNL     1      -4.799   3.604  -3.690  0.00  0.00    -0.004 C 
ATOM      3  C   UNL     1      -4.739   2.824  -4.971  0.00  0.00    +0.040 C 
ATOM      4  C   UNL     1      -5.921   3.172  -5.860  0.00  0.00    +0.026 C 
ATOM      5  C   UNL     1      -6.100   4.663  -6.032  0.00  0.00    +0.127 C 
ATOM      6  N   UNL     1      -6.041   5.418  -4.788  0.00  0.00    -0.293 N 
ATOM      7  C   UNL     1      -5.378   4.954  -3.680  0.00  0.00    +0.140 A 
ATOM      8  N   UNL     1      -5.233   5.680  -2.589  0.00  0.00    -0.228 NA
ATOM      9  C   UNL     1      -5.764   6.904  -2.465  0.00  0.00    +0.086 A 
ATOM     10  C   UNL     1      -6.529   7.432  -3.531  0.00  0.00    +0.066 A 
ATOM     11  C   UNL     1      -6.667   6.623  -4.744  0.00  0.00    +0.262 A 
ATOM     12  O   UNL     1      -7.337   7.015  -5.682  0.00  0.00    -0.267 OA
ATOM     13  C   UNL     1      -7.110   8.693  -3.415  0.00  0.00    +0.015 A 
ATOM     14  C   UNL     1      -6.928   9.430  -2.263  0.00  0.00    +0.001 A 
ATOM     15  C   UNL     1      -6.172   8.931  -1.215  0.00  0.00    +0.010 A 
ATOM     16  C   UNL     1      -5.584   7.676  -1.300  0.00  0.00    +0.008 A 
ENDROOT
BRANCH   1  19
ATOM     17  C   UNL     1      -3.027  -0.313  -1.558  0.00  0.00    +0.092 A 
ATOM     18  C   UNL     1      -3.708   0.886  -1.518  0.00  0.00    +0.035 A 
ATOM     19  C   UNL     1      -3.603   1.783  -2.585  0.00  0.00    -0.020 A 
ATOM     20  C   UNL     1      -2.806   1.458  -3.687  0.00  0.00    +0.046 A 
ATOM     21  C   UNL     1      -2.130   0.254  -3.714  0.00  0.00    +0.126 A 
ATOM     22  C   UNL     1      -2.236  -0.627  -2.648  0.00  0.00    +0.065 A 
ATOM     23  F   UNL     1      -1.359  -0.063  -4.777  0.00  0.00    -0.205 F 
BRANCH  17  24
ATOM     24  S   UNL     1      -3.159  -1.444  -0.213  0.00  0.00    -0.001 S 
ATOM     25  O   UNL     1      -2.897  -2.718  -0.785  0.00  0.00    -0.169 OA
ATOM     26  O   UNL     1      -4.420  -1.159   0.377  0.00  0.00    -0.169 OA
BRANCH  24  28
ATOM     27  C   UNL     1      -2.017   0.467   1.376  0.00  0.00    +0.032 C 
ATOM     28  C   UNL     1      -1.820  -0.980   0.919  0.00  0.00    +0.130 C 
ATOM     29  C   UNL     1      -1.839  -1.906   2.137  0.00  0.00    +0.032 C 
ENDBRANCH  24  28
ENDBRANCH  17  24
ENDBRANCH   1  19
BRANCH  16  30
ATOM     30  C   UNL     1      -4.775   7.152  -0.175  0.00  0.00    -0.016 A 
ATOM     31  C   UNL     1      -5.014   5.871   0.323  0.00  0.00    +0.008 A 
ATOM     32  C   UNL     1      -4.257   5.389   1.371  0.00  0.00    +0.001 A 
ATOM     33  C   UNL     1      -3.263   6.173   1.928  0.00  0.00    +0.000 A 
ATOM     34  C   UNL     1      -3.022   7.444   1.440  0.00  0.00    +0.001 A 
ATOM     35  C   UNL     1      -3.768   7.935   0.388  0.00  0.00    +0.008 A 
ENDBRANCH  16  30
TORSDOF 4
