REMARK  Name = ZINC39599644
REMARK  10 active torsions:
REMARK  status: ('A' for Active; 'I' for Inactive)
REMARK    1  A    between atoms: C_1  and  O_2
REMARK    2  A    between atoms: O_2  and  C_3
REMARK    3  A    between atoms: C_6  and  C_11
REMARK    4  A    between atoms: C_7  and  O_9
REMARK    5  A    between atoms: O_9  and  C_10
REMARK    6  A    between atoms: C_15  and  C_24
REMARK    7  A    between atoms: N_26  and  C_27
REMARK    8  A    between atoms: C_27  and  C_28
REMARK    9  A    between atoms: C_31  and  O_34
REMARK   10  A    between atoms: O_34  and  C_35
REMARK                            x       y       z     vdW  Elec       q    Type
REMARK                         _______ _______ _______ _____ _____    ______ ____
ROOT
ATOM      1  C   UNL     1       2.601  -2.742   4.520  0.00  0.00    +0.250 C 
ATOM      2  O   UNL     1       2.610  -3.942   4.717  0.00  0.00    -0.270 OA
ATOM      3  N   UNL     1       3.242  -1.914   5.370  0.00  0.00    -0.296 N 
ATOM      4  C   UNL     1       3.255  -0.433   5.358  0.00  0.00    +0.121 C 
ATOM      5  C   UNL     1       3.186  -0.030   6.848  0.00  0.00    +0.100 C 
ATOM      6  C   UNL     1       3.739  -1.247   7.609  0.00  0.00    -0.004 C 
ATOM      7  C   UNL     1       4.088  -2.281   6.530  0.00  0.00    +0.115 C 
ATOM      8  C   UNL     1       2.677  -1.811   8.548  0.00  0.00    -0.010 C 
ATOM      9  C   UNL     1       3.268  -2.983   9.335  0.00  0.00    -0.082 C 
ATOM     10  N   UNL     1       4.433  -2.523  10.101  0.00  0.00    +0.379 N 
ATOM     11  C   UNL     1       5.487  -2.068   9.187  0.00  0.00    -0.082 C 
ATOM     12  C   UNL     1       4.988  -0.857   8.393  0.00  0.00    -0.010 C 
ATOM     13  H   UNL     1       4.158  -1.760  10.702  0.00  0.00    -0.086 HD
ATOM     14  H   UNL     1       4.784  -3.282  10.666  0.00  0.00    -0.086 HD
ENDROOT
BRANCH   1  18
ATOM     15  C   UNL     1       0.550  -1.157   1.155  0.00  0.00    +0.124 A 
ATOM     16  C   UNL     1       1.720  -0.552   1.606  0.00  0.00    +0.046 A 
ATOM     17  C   UNL     1       2.387  -1.062   2.696  0.00  0.00    +0.020 A 
ATOM     18  C   UNL     1       1.889  -2.192   3.353  0.00  0.00    +0.079 A 
ATOM     19  C   UNL     1       0.710  -2.800   2.897  0.00  0.00    +0.136 A 
ATOM     20  C   UNL     1       0.045  -2.274   1.803  0.00  0.00    +0.092 A 
BRANCH  15  22
ATOM     21  C   UNL     1       0.472   0.505  -0.542  0.00  0.00    +0.277 C 
ATOM     22  O   UNL     1      -0.102  -0.647   0.079  0.00  0.00    -0.495 OA
ENDBRANCH  15  22
BRANCH  19  23
ATOM     23  O   UNL     1       0.221  -3.896   3.529  0.00  0.00    -0.494 OA
ATOM     24  C   UNL     1      -0.984  -4.461   3.008  0.00  0.00    +0.277 C 
ENDBRANCH  19  23
ENDBRANCH   1  18
BRANCH   5  25
ATOM     25  C   UNL     1       1.759   0.241   7.253  0.00  0.00    +0.218 C 
ATOM     26  O   UNL     1       0.851  -0.347   6.704  0.00  0.00    -0.275 OA
ATOM     27  N   UNL     1       1.493   1.135   8.225  0.00  0.00    -0.311 N 
ATOM     28  H   UNL     1       2.219   1.605   8.664  0.00  0.00    +0.149 HD
BRANCH  27  29
ATOM     29  C   UNL     1       0.107   1.399   8.619  0.00  0.00    +0.139 C 
BRANCH  29  30
ATOM     30  C   UNL     1       0.083   2.431   9.717  0.00  0.00    -0.030 A 
ATOM     31  C   UNL     1       0.146   2.033  11.039  0.00  0.00    +0.009 A 
ATOM     32  C   UNL     1       0.124   2.977  12.047  0.00  0.00    +0.046 A 
ATOM     33  C   UNL     1       0.040   4.325  11.732  0.00  0.00    +0.130 A 
ATOM     34  C   UNL     1      -0.022   4.722  10.404  0.00  0.00    +0.046 A 
ATOM     35  C   UNL     1       0.005   3.774   9.399  0.00  0.00    +0.009 A 
BRANCH  33  36
ATOM     36  O   UNL     1       0.018   5.256  12.722  0.00  0.00    -0.406 OA
BRANCH  36  37
ATOM     37  C   UNL     1      -0.070   6.625  12.323  0.00  0.00    +0.575 C 
ATOM     38  F   UNL     1      -1.247   6.824  11.594  0.00  0.00    -0.133 F 
ATOM     39  F   UNL     1      -0.081   7.442  13.459  0.00  0.00    -0.133 F 
ATOM     40  F   UNL     1       1.033   6.951  11.526  0.00  0.00    -0.133 F 
ENDBRANCH  36  37
ENDBRANCH  33  36
ENDBRANCH  29  30
ENDBRANCH  27  29
ENDBRANCH   5  25
TORSDOF 8
