REMARK  Name = ZINC01798640
REMARK  7 active torsions:
REMARK  status: ('A' for Active; 'I' for Inactive)
REMARK    1  A    between atoms: C_4  and  C_7
REMARK    2  A    between atoms: C_7  and  C_8
REMARK    3  A    between atoms: C_8  and  N_9
REMARK    4  A    between atoms: N_17  and  N_18
REMARK    5  A    between atoms: C_19  and  C_21
REMARK    6  A    between atoms: C_24  and  C_25
REMARK    7  A    between atoms: C_24  and  C_31
REMARK                            x       y       z     vdW  Elec       q    Type
REMARK                         _______ _______ _______ _____ _____    ______ ____
ROOT
ATOM      1  N   UNL     1       8.851  -2.455  -3.407  0.00  0.00    -0.265 N 
ATOM      2  C   UNL     1       8.304  -3.612  -2.861  0.00  0.00    +0.046 A 
ATOM      3  C   UNL     1       7.636  -4.682  -3.446  0.00  0.00    +0.024 A 
ATOM      4  C   UNL     1       7.184  -5.727  -2.664  0.00  0.00    +0.002 A 
ATOM      5  C   UNL     1       7.390  -5.723  -1.295  0.00  0.00    +0.001 A 
ATOM      6  C   UNL     1       8.052  -4.669  -0.697  0.00  0.00    +0.012 A 
ATOM      7  C   UNL     1       8.510  -3.612  -1.476  0.00  0.00    +0.028 A 
ATOM      8  C   UNL     1       9.236  -2.360  -1.160  0.00  0.00    +0.153 C 
ATOM      9  N   UNL     1       9.638  -1.945   0.016  0.00  0.00    -0.175 NA
ATOM     10  C   UNL     1       9.416  -1.685  -2.462  0.00  0.00    +0.271 C 
ATOM     11  O   UNL     1       9.974  -0.619  -2.645  0.00  0.00    -0.268 OA
ENDROOT
BRANCH   9  12
ATOM     12  N   UNL     1      10.317  -0.726   0.135  0.00  0.00    -0.206 N 
ATOM     13  C   UNL     1      10.730  -0.299   1.345  0.00  0.00    +0.236 C 
ATOM     14  O   UNL     1      10.513  -0.970   2.331  0.00  0.00    -0.274 OA
ATOM     15  H   UNL     1      10.490  -0.189  -0.654  0.00  0.00    +0.177 HD
BRANCH  13  16
ATOM     16  C   UNL     1      11.460   1.013   1.472  0.00  0.00    +0.093 C 
ATOM     17  C   UNL     1      12.239   1.266   2.765  0.00  0.00    +0.031 C 
ATOM     18  C   UNL     1      12.990   0.974   1.463  0.00  0.00    +0.033 C 
BRANCH  18  19
ATOM     19  C   UNL     1      13.712   2.121   0.804  0.00  0.00    -0.036 A 
ATOM     20  C   UNL     1      12.996   3.091   0.128  0.00  0.00    +0.004 A 
ATOM     21  C   UNL     1      13.658   4.143  -0.476  0.00  0.00    +0.000 A 
ATOM     22  C   UNL     1      15.036   4.225  -0.404  0.00  0.00    +0.000 A 
ATOM     23  C   UNL     1      15.752   3.255   0.273  0.00  0.00    +0.000 A 
ATOM     24  C   UNL     1      15.089   2.205   0.881  0.00  0.00    +0.004 A 
ENDBRANCH  18  19
BRANCH  18  25
ATOM     25  C   UNL     1      13.650  -0.374   1.328  0.00  0.00    -0.036 A 
ATOM     26  C   UNL     1      13.424  -1.145   0.203  0.00  0.00    +0.004 A 
ATOM     27  C   UNL     1      14.030  -2.381   0.079  0.00  0.00    +0.000 A 
ATOM     28  C   UNL     1      14.862  -2.847   1.080  0.00  0.00    +0.000 A 
ATOM     29  C   UNL     1      15.089  -2.076   2.205  0.00  0.00    +0.000 A 
ATOM     30  C   UNL     1      14.486  -0.837   2.327  0.00  0.00    +0.004 A 
ENDBRANCH  18  25
ENDBRANCH  13  16
ENDBRANCH   9  12
BRANCH   1  31
ATOM     31  C   UNL     1       8.819  -2.121  -4.833  0.00  0.00    +0.118 C 
BRANCH  31  32
ATOM     32  C   UNL     1      10.062  -2.693  -5.518  0.00  0.00    +0.054 C 
BRANCH  32  36
ATOM     33  C   UNL     1       9.973  -1.721  -9.677  0.00  0.00    +0.000 A 
ATOM     34  C   UNL     1      10.578  -0.861  -8.779  0.00  0.00    +0.000 A 
ATOM     35  C   UNL     1      10.607  -1.176  -7.433  0.00  0.00    +0.004 A 
ATOM     36  C   UNL     1      10.030  -2.350  -6.985  0.00  0.00    -0.046 A 
ATOM     37  C   UNL     1       9.424  -3.209  -7.883  0.00  0.00    +0.004 A 
ATOM     38  C   UNL     1       9.397  -2.895  -9.229  0.00  0.00    +0.000 A 
ENDBRANCH  32  36
ENDBRANCH  31  32
ENDBRANCH   1  31
TORSDOF 7
