REMARK  Name = ZINC19530082
REMARK  9 active torsions:
REMARK  status: ('A' for Active; 'I' for Inactive)
REMARK    1  A    between atoms: C_1  and  C_2
REMARK    2  A    between atoms: C_5  and  N_23
REMARK    3  A    between atoms: C_6  and  N_9
REMARK    4  A    between atoms: C_7  and  C_8
REMARK    5  A    between atoms: C_10  and  C_12
REMARK    6  A    between atoms: C_12  and  N_13
REMARK    7  A    between atoms: N_13  and  C_14
REMARK    8  A    between atoms: N_13  and  C_15
REMARK    9  A    between atoms: C_15  and  C_16
REMARK                            x       y       z     vdW  Elec       q    Type
REMARK                         _______ _______ _______ _____ _____    ______ ____
ROOT
ATOM      1  N   UNL     1      -1.351   2.037  -0.002  0.00  0.00    -0.285 N 
ATOM      2  C   UNL     1      -1.448   3.322   0.392  0.00  0.00    +0.201 C 
ATOM      3  O   UNL     1      -0.507   3.864   0.931  0.00  0.00    -0.278 OA
ATOM      4  H   UNL     1      -2.221   1.529  -0.444  0.00  0.00    +0.155 HD
ENDROOT
BRANCH   1  10
ATOM      5  C   UNL     1       3.539   1.903  -0.497  0.00  0.00    +0.044 C 
ATOM      6  C   UNL     1       2.243   1.260  -0.076  0.00  0.00    -0.046 A 
ATOM      7  C   UNL     1       2.247  -0.011   0.469  0.00  0.00    +0.006 A 
ATOM      8  C   UNL     1       1.060  -0.604   0.857  0.00  0.00    +0.035 A 
ATOM      9  C   UNL     1      -0.135   0.071   0.701  0.00  0.00    +0.148 A 
ATOM     10  C   UNL     1      -0.143   1.347   0.153  0.00  0.00    +0.067 A 
ATOM     11  C   UNL     1       1.052   1.940  -0.235  0.00  0.00    -0.024 A 
ATOM     12  C   UNL     1       1.048   3.325  -0.830  0.00  0.00    +0.046 C 
BRANCH   9  13
ATOM     13  N   UNL     1      -1.406  -0.564   1.117  0.00  0.00    +0.058 N 
ATOM     14  O   UNL     1      -1.391  -1.645   1.677  0.00  0.00    -0.126 OA
ATOM     15  O   UNL     1      -2.466  -0.006   0.898  0.00  0.00    -0.126 OA
ENDBRANCH   9  13
ENDBRANCH   1  10
BRANCH   2  16
ATOM     16  C   UNL     1      -2.727   4.086   0.161  0.00  0.00    +0.019 C 
BRANCH  16  17
ATOM     17  N   UNL     1      -2.536   5.489   0.551  0.00  0.00    +0.386 N 
ATOM     18  C   UNL     1      -1.710   6.202  -0.432  0.00  0.00    -0.095 C 
ATOM     19  H   UNL     1      -2.003   5.503   1.514  0.00  0.00    -0.081 HD
BRANCH  17  20
ATOM     20  C   UNL     1      -3.828   6.163   0.741  0.00  0.00    -0.042 C 
BRANCH  20  21
ATOM     21  C   UNL     1      -3.599   7.530   1.332  0.00  0.00    -0.050 A 
ATOM     22  C   UNL     1      -3.636   7.706   2.703  0.00  0.00    +0.003 A 
ATOM     23  C   UNL     1      -3.422   8.959   3.245  0.00  0.00    +0.000 A 
ATOM     24  C   UNL     1      -3.181  10.039   2.416  0.00  0.00    +0.001 A 
ATOM     25  C   UNL     1      -3.150   9.866   1.046  0.00  0.00    +0.015 A 
ATOM     26  C   UNL     1      -3.359   8.610   0.503  0.00  0.00    +0.019 A 
ATOM     27 BR   UNL     1      -3.316   8.372  -1.373  0.00  0.00    -0.050 Br
ENDBRANCH  20  21
ENDBRANCH  17  20
ENDBRANCH  16  17
ENDBRANCH   2  16
TORSDOF 6
