REMARK  Name = ZINC22516017
REMARK  12 active torsions:
REMARK  status: ('A' for Active; 'I' for Inactive)
REMARK    1  A    between atoms: C_1  and  C_2
REMARK    2  A    between atoms: C_2  and  C_3
REMARK    3  A    between atoms: C_2  and  C_4
REMARK    4  A    between atoms: C_4  and  C_5
REMARK    5  A    between atoms: C_5  and  C_7
REMARK    6  A    between atoms: C_5  and  N_26
REMARK    7  A    between atoms: N_9  and  C_10
REMARK    8  A    between atoms: C_10  and  C_11
REMARK    9  A    between atoms: C_11  and  C_13
REMARK   10  A    between atoms: C_11  and  N_21
REMARK   11  A    between atoms: C_16  and  O_19
REMARK   12  A    between atoms: O_19  and  C_20
REMARK                            x       y       z     vdW  Elec       q    Type
REMARK                         _______ _______ _______ _____ _____    ______ ____
ROOT
ATOM      1  C   UNL     1      -0.196   1.147   4.461  0.00  0.00    +0.234 C 
ATOM      2  O   UNL     1      -0.931   0.662   3.628  0.00  0.00    -0.274 OA
ATOM      3  N   UNL     1      -0.266   0.737   5.743  0.00  0.00    -0.315 N 
ATOM      4  H   UNL     1       0.401   1.178   6.499  0.00  0.00    +0.149 HD
ENDROOT
BRANCH   1   5
ATOM      5  C   UNL     1       0.796   2.210   4.063  0.00  0.00    +0.170 C 
BRANCH   5   6
ATOM      6  N   UNL     1       0.676   2.478   2.628  0.00  0.00    -0.230 N 
ATOM      7  C   UNL     1       1.692   2.307   1.761  0.00  0.00    +0.227 C 
ATOM      8  O   UNL     1       2.739   1.738   1.983  0.00  0.00    -0.275 OA
ATOM      9  C   UNL     1       1.276   2.968   0.436  0.00  0.00    +0.091 C 
ATOM     10  C   UNL     1       1.706   4.430   0.577  0.00  0.00    +0.040 C 
ATOM     11  C   UNL     1       0.779   5.385  -0.091  0.00  0.00    -0.030 C 
ATOM     12  C   UNL     1      -0.431   5.112  -0.451  0.00  0.00    -0.030 C 
ATOM     13  C   UNL     1      -1.051   3.769  -0.274  0.00  0.00    +0.040 C 
ATOM     14  C   UNL     1      -0.250   2.833   0.569  0.00  0.00    +0.091 C 
ATOM     15  C   UNL     1      -0.466   2.919   2.053  0.00  0.00    +0.227 C 
ATOM     16  O   UNL     1      -1.464   3.306   2.622  0.00  0.00    -0.275 OA
ENDBRANCH   5   6
BRANCH   5  17
ATOM     17  C   UNL     1       0.511   3.493   4.847  0.00  0.00    +0.035 C 
BRANCH  17  19
ATOM     18  C   UNL     1       1.239   5.853   5.221  0.00  0.00    +0.007 C 
ATOM     19  C   UNL     1       1.591   4.531   4.537  0.00  0.00    -0.015 C 
ATOM     20  C   UNL     1       2.942   4.032   5.055  0.00  0.00    +0.007 C 
ENDBRANCH  17  19
ENDBRANCH   5  17
ENDBRANCH   1   5
BRANCH   3  21
ATOM     21  C   UNL     1      -1.230  -0.296   6.130  0.00  0.00    +0.093 C 
BRANCH  21  22
ATOM     22  C   UNL     1      -1.221  -0.458   7.651  0.00  0.00    -0.020 C 
BRANCH  22  23
ATOM     23  C   UNL     1      -2.152  -1.577   8.042  0.00  0.00    -0.059 A 
ATOM     24  C   UNL     1      -3.521  -1.386   7.989  0.00  0.00    +0.005 A 
ATOM     25  C   UNL     1      -4.376  -2.412   8.342  0.00  0.00    +0.046 A 
ATOM     26  C   UNL     1      -3.861  -3.630   8.761  0.00  0.00    +0.120 A 
ATOM     27  C   UNL     1      -2.488  -3.817   8.819  0.00  0.00    +0.046 A 
ATOM     28  C   UNL     1      -1.637  -2.790   8.459  0.00  0.00    +0.005 A 
BRANCH  26  29
ATOM     29  O   UNL     1      -4.701  -4.638   9.115  0.00  0.00    -0.495 OA
ATOM     30  C   UNL     1      -6.103  -4.375   9.031  0.00  0.00    +0.277 C 
ENDBRANCH  26  29
ENDBRANCH  22  23
BRANCH  22  31
ATOM     31  N   UNL     1      -1.667   0.793   8.279  0.00  0.00    +0.385 N 
ATOM     32  C   UNL     1      -1.949   0.592   9.724  0.00  0.00    -0.078 C 
ATOM     33  C   UNL     1      -1.877   2.027  10.302  0.00  0.00    -0.020 C 
ATOM     34  C   UNL     1      -0.720   2.666   9.500  0.00  0.00    -0.020 C 
ATOM     35  C   UNL     1      -0.609   1.825   8.214  0.00  0.00    -0.078 C 
ATOM     36  H   UNL     1      -2.566   1.101   7.726  0.00  0.00    -0.081 HD
ENDBRANCH  22  31
ENDBRANCH  21  22
ENDBRANCH   3  21
TORSDOF 9
