REMARK  Name = ZINC60044323
REMARK  9 active torsions:
REMARK  status: ('A' for Active; 'I' for Inactive)
REMARK    1  A    between atoms: C_4  and  C_7
REMARK    2  A    between atoms: C_7  and  N_8
REMARK    3  A    between atoms: N_8  and  C_9
REMARK    4  A    between atoms: N_8  and  C_14
REMARK    5  A    between atoms: C_9  and  C_10
REMARK    6  A    between atoms: C_14  and  C_15
REMARK    7  A    between atoms: N_17  and  C_18
REMARK    8  A    between atoms: C_22  and  S_24
REMARK    9  A    between atoms: S_24  and  N_27
REMARK                            x       y       z     vdW  Elec       q    Type
REMARK                         _______ _______ _______ _____ _____    ______ ____
ROOT
ATOM      1  C   UNL     1       5.867  -1.960   2.786  0.00  0.00    +0.201 C 
ATOM      2  O   UNL     1       5.067  -1.834   3.689  0.00  0.00    -0.278 OA
ATOM      3  N   UNL     1       7.120  -2.380   3.050  0.00  0.00    -0.287 N 
ATOM      4  H   UNL     1       7.779  -2.420   2.339  0.00  0.00    +0.155 HD
ENDROOT
BRANCH   3   5
ATOM      5  C   UNL     1       7.472  -2.757   4.351  0.00  0.00    +0.035 A 
ATOM      6  C   UNL     1       8.370  -3.797   4.555  0.00  0.00    +0.023 A 
ATOM      7  C   UNL     1       8.715  -4.168   5.840  0.00  0.00    +0.004 A 
ATOM      8  C   UNL     1       8.167  -3.505   6.923  0.00  0.00    +0.029 A 
ATOM      9  C   UNL     1       7.273  -2.470   6.723  0.00  0.00    +0.114 A 
ATOM     10  C   UNL     1       6.929  -2.090   5.440  0.00  0.00    +0.052 A 
BRANCH   9  11
ATOM     11  S   UNL     1       6.577  -1.628   8.106  0.00  0.00    +0.100 S 
ATOM     12  O   UNL     1       5.353  -1.060   7.662  0.00  0.00    -0.146 OA
ATOM     13  O   UNL     1       6.646  -2.527   9.205  0.00  0.00    -0.146 OA
BRANCH  11  14
ATOM     14  N   UNL     1       7.583  -0.363   8.466  0.00  0.00    -0.118 NA
ATOM     15  C   UNL     1       7.303   0.426   9.452  0.00  0.00    +0.117 C 
ATOM     16  C   UNL     1       8.225   1.597   9.782  0.00  0.00    +0.073 C 
ATOM     17  C   UNL     1       7.484   2.867   9.425  0.00  0.00    +0.008 C 
ATOM     18  C   UNL     1       6.621   3.410  10.566  0.00  0.00    +0.002 C 
ATOM     19  C   UNL     1       5.840   2.318  11.298  0.00  0.00    +0.019 C 
ATOM     20  C   UNL     1       5.221   1.299  10.366  0.00  0.00    +0.102 C 
ATOM     21  N   UNL     1       6.216   0.224  10.171  0.00  0.00    -0.331 N 
ATOM     22  H   UNL     1       6.066  -0.642  10.581  0.00  0.00    +0.147 HD
ENDBRANCH  11  14
ENDBRANCH   9  11
ENDBRANCH   3   5
BRANCH   1  23
ATOM     23  C   UNL     1       5.460  -1.647   1.369  0.00  0.00    +0.019 C 
BRANCH  23  24
ATOM     24  N   UNL     1       4.018  -1.373   1.323  0.00  0.00    +0.388 N 
ATOM     25  H   UNL     1       3.731  -0.936   2.186  0.00  0.00    -0.081 HD
BRANCH  24  26
ATOM     26  C   UNL     1       3.726  -0.475   0.198  0.00  0.00    -0.042 C 
BRANCH  26  30
ATOM     27  C   UNL     1      -0.407   0.602   0.268  0.00  0.00    +0.000 A 
ATOM     28  C   UNL     1       0.520   1.373   0.945  0.00  0.00    +0.000 A 
ATOM     29  C   UNL     1       1.857   1.024   0.923  0.00  0.00    +0.002 A 
ATOM     30  C   UNL     1       2.268  -0.095   0.223  0.00  0.00    -0.064 A 
ATOM     31  C   UNL     1       1.341  -0.866  -0.453  0.00  0.00    +0.002 A 
ATOM     32  C   UNL     1       0.004  -0.517  -0.432  0.00  0.00    +0.000 A 
ENDBRANCH  26  30
ENDBRANCH  24  26
BRANCH  24  33
ATOM     33  C   UNL     1       3.285  -2.634   1.146  0.00  0.00    -0.074 C 
BRANCH  33  34
ATOM     34  C   UNL     1       3.461  -3.505   2.391  0.00  0.00    -0.028 C 
ATOM     35  C   UNL     1       4.686  -4.433   2.326  0.00  0.00    +0.002 C 
ATOM     36  C   UNL     1       3.806  -5.511   2.982  0.00  0.00    +0.000 C 
ATOM     37  C   UNL     1       2.595  -4.776   2.381  0.00  0.00    +0.002 C 
ENDBRANCH  33  34
ENDBRANCH  24  33
ENDBRANCH  23  24
ENDBRANCH   1  23
TORSDOF 9
