REMARK  Name = ZINC65374290
REMARK  3 active torsions:
REMARK  status: ('A' for Active; 'I' for Inactive)
REMARK    1  A    between atoms: C_1  and  C_2
REMARK    2  A    between atoms: C_7  and  O_8
REMARK    3  A    between atoms: C_13  and  C_15
REMARK                            x       y       z     vdW  Elec       q    Type
REMARK                         _______ _______ _______ _____ _____    ______ ____
ROOT
ATOM      1  C   UNL     1      -0.018   1.503   0.010  0.00  0.00    +0.047 C 
ATOM      2  C   UNL     1       0.002  -0.004   0.002  0.00  0.00    -0.009 A 
ATOM      3  C   UNL     1       0.006  -0.688  -1.199  0.00  0.00    +0.013 A 
ATOM      4  C   UNL     1       0.025  -2.068  -1.210  0.00  0.00    -0.018 A 
ATOM      5  C   UNL     1       0.040  -2.774  -0.014  0.00  0.00    +0.041 A 
ATOM      6  C   UNL     1       0.036  -2.090   1.193  0.00  0.00    +0.069 A 
ATOM      7  C   UNL     1       0.023  -0.703   1.200  0.00  0.00    +0.122 A 
ATOM      8  N   UNL     1       0.059  -4.172  -0.028  0.00  0.00    -0.285 N 
ATOM      9  C   UNL     1       0.432  -4.838  -1.137  0.00  0.00    +0.218 C 
ATOM     10  O   UNL     1       0.429  -6.051  -1.137  0.00  0.00    -0.275 OA
ATOM     11  C   UNL     1       0.851  -4.095  -2.376  0.00  0.00    +0.109 C 
ATOM     12  C   UNL     1       0.029  -2.814  -2.520  0.00  0.00    +0.062 C 
ATOM     13  H   UNL     1      -0.197  -4.665   0.767  0.00  0.00    +0.155 HD
ENDROOT
BRANCH  12  14
ATOM     14  C   UNL     1      -1.386  -3.167  -2.901  0.00  0.00    -0.011 A 
ATOM     15  C   UNL     1      -2.134  -3.941  -2.079  0.00  0.00    +0.006 A 
ATOM     16  C   UNL     1      -3.446  -4.288  -2.400  0.00  0.00    +0.003 A 
ATOM     17  C   UNL     1      -4.030  -3.865  -3.546  0.00  0.00    +0.030 A 
ATOM     18  C   UNL     1      -3.305  -3.050  -4.456  0.00  0.00    +0.100 A 
ATOM     19  C   UNL     1      -1.935  -2.683  -4.119  0.00  0.00    +0.104 A 
ATOM     20  N   UNL     1      -1.356  -1.912  -5.041  0.00  0.00    -0.190 NA
ATOM     21  S   UNL     1      -2.465  -1.698  -6.186  0.00  0.00    +0.116 S 
ATOM     22  N   UNL     1      -3.712  -2.544  -5.622  0.00  0.00    -0.191 NA
ENDBRANCH  12  14
BRANCH   7  23
ATOM     23  O   UNL     1       0.024  -0.030   2.381  0.00  0.00    -0.506 OA
ATOM     24  H   UNL     1      -0.858   0.153   2.730  0.00  0.00    +0.292 HD
ENDBRANCH   7  23
TORSDOF 2
