REMARK  Name = ZINC08236895
REMARK  7 active torsions:
REMARK  status: ('A' for Active; 'I' for Inactive)
REMARK    1  A    between atoms: C_1  and  C_2
REMARK    2  A    between atoms: C_5  and  C_20
REMARK    3  A    between atoms: C_6  and  C_7
REMARK    4  A    between atoms: C_6  and  C_8
REMARK    5  A    between atoms: N_12  and  N_13
REMARK    6  A    between atoms: N_13  and  C_14
REMARK    7  A    between atoms: N_22  and  C_23
REMARK                            x       y       z     vdW  Elec       q    Type
REMARK                         _______ _______ _______ _____ _____    ______ ____
ROOT
ATOM      1  C   UNL     1      -0.034   1.526   0.019  0.00  0.00    +0.018 C 
ATOM      2  C   UNL     1      -0.011  -0.004   0.009  0.00  0.00    +0.022 C 
ATOM      3  C   UNL     1       0.718  -0.673  -1.198  0.00  0.00    +0.015 C 
ATOM      4  C   UNL     1       0.991  -2.119  -0.718  0.00  0.00    +0.026 C 
ATOM      5  C   UNL     1       0.397  -2.159   0.725  0.00  0.00    +0.117 C 
ATOM      6  C   UNL     1       0.723  -0.701   1.211  0.00  0.00    -0.003 C 
ATOM      7  C   UNL     1       0.082  -0.362   2.558  0.00  0.00    +0.013 C 
ATOM      8  C   UNL     1       2.228  -0.429   1.208  0.00  0.00    +0.013 C 
ATOM      9  C   UNL     1      -1.118  -2.041   0.512  0.00  0.00    +0.195 C 
ATOM     10  O   UNL     1      -1.944  -2.915   0.688  0.00  0.00    -0.290 OA
ATOM     11  C   UNL     1      -1.377  -0.701   0.085  0.00  0.00    +0.109 C 
ATOM     12  N   UNL     1      -2.538  -0.174  -0.205  0.00  0.00    -0.183 NA
ENDROOT
BRANCH   5  13
ATOM     13  C   UNL     1       0.874  -3.283   1.608  0.00  0.00    +0.232 C 
ATOM     14  O   UNL     1       1.461  -3.036   2.640  0.00  0.00    -0.274 OA
ATOM     15  N   UNL     1       0.648  -4.563   1.251  0.00  0.00    -0.285 N 
ATOM     16  H   UNL     1       0.120  -4.760   0.461  0.00  0.00    +0.155 HD
BRANCH  15  17
ATOM     17  C   UNL     1       1.174  -5.607   2.019  0.00  0.00    +0.033 A 
ATOM     18  C   UNL     1       1.611  -6.772   1.404  0.00  0.00    +0.023 A 
ATOM     19  C   UNL     1       2.129  -7.801   2.165  0.00  0.00    +0.002 A 
ATOM     20  C   UNL     1       2.213  -7.672   3.539  0.00  0.00    +0.000 A 
ATOM     21  C   UNL     1       1.779  -6.513   4.155  0.00  0.00    +0.002 A 
ATOM     22  C   UNL     1       1.265  -5.478   3.399  0.00  0.00    +0.023 A 
ENDBRANCH  15  17
ENDBRANCH   5  13
BRANCH  12  23
ATOM     23  N   UNL     1      -3.612  -0.880  -0.096  0.00  0.00    -0.237 N 
ATOM     24  H   UNL     1      -3.558  -1.801   0.203  0.00  0.00    +0.174 HD
BRANCH  23  25
ATOM     25  C   UNL     1      -4.851  -0.318  -0.406  0.00  0.00    +0.048 A 
ATOM     26  C   UNL     1      -4.929   1.000  -0.839  0.00  0.00    +0.025 A 
ATOM     27  C   UNL     1      -6.157   1.553  -1.145  0.00  0.00    +0.002 A 
ATOM     28  C   UNL     1      -7.308   0.796  -1.021  0.00  0.00    +0.000 A 
ATOM     29  C   UNL     1      -7.234  -0.516  -0.590  0.00  0.00    +0.002 A 
ATOM     30  C   UNL     1      -6.009  -1.077  -0.288  0.00  0.00    +0.025 A 
ENDBRANCH  23  25
ENDBRANCH  12  23
TORSDOF 4
