REMARK  Name = ZINC63385621
REMARK  6 active torsions:
REMARK  status: ('A' for Active; 'I' for Inactive)
REMARK    1  A    between atoms: C_5  and  C_7
REMARK    2  A    between atoms: C_7  and  N_8
REMARK    3  A    between atoms: C_9  and  C_11
REMARK    4  A    between atoms: N_22  and  C_24
REMARK    5  A    between atoms: C_24  and  C_25
REMARK    6  A    between atoms: C_25  and  C_26
REMARK                            x       y       z     vdW  Elec       q    Type
REMARK                         _______ _______ _______ _____ _____    ______ ____
ROOT
ATOM      1  C   UNL     1       1.819  -4.511   2.961  0.00  0.00    +0.122 C 
ATOM      2  C   UNL     1       0.706  -4.020   3.966  0.00  0.00    +0.155 C 
ATOM      3  C   UNL     1      -0.562  -4.098   3.107  0.00  0.00    +0.004 C 
ATOM      4  C   UNL     1      -0.807  -5.394   2.976  0.00  0.00    +0.008 C 
ATOM      5  C   UNL     1       0.258  -6.100   3.794  0.00  0.00    +0.116 C 
ATOM      6  C   UNL     1       1.649  -6.008   3.035  0.00  0.00    +0.127 C 
ATOM      7  C   UNL     1       1.381  -6.927   1.915  0.00  0.00    +0.223 C 
ATOM      8  O   UNL     1       1.791  -6.820   0.779  0.00  0.00    -0.275 OA
ATOM      9  N   UNL     1       0.577  -7.929   2.403  0.00  0.00    -0.298 N 
ATOM     10  C   UNL     1       0.121  -7.591   3.763  0.00  0.00    +0.147 C 
ATOM     11  O   UNL     1       0.550  -5.200   4.860  0.00  0.00    -0.359 OA
ENDROOT
BRANCH   1  13
ATOM     12  N   UNL     1       2.241  -2.949   1.091  0.00  0.00    -0.311 N 
ATOM     13  C   UNL     1       1.552  -4.005   1.567  0.00  0.00    +0.220 C 
ATOM     14  O   UNL     1       0.717  -4.546   0.875  0.00  0.00    -0.275 OA
ATOM     15  H   UNL     1       2.909  -2.515   1.644  0.00  0.00    +0.149 HD
BRANCH  12  16
ATOM     16  C   UNL     1       1.980  -2.456  -0.264  0.00  0.00    +0.141 C 
BRANCH  16  21
ATOM     17  C   UNL     1       3.200   1.089  -0.713  0.00  0.00    +0.000 A 
ATOM     18  C   UNL     1       4.518   0.884  -1.078  0.00  0.00    +0.001 A 
ATOM     19  C   UNL     1       5.015  -0.401  -1.179  0.00  0.00    +0.020 A 
ATOM     20  C   UNL     1       4.194  -1.483  -0.916  0.00  0.00    +0.046 A 
ATOM     21  C   UNL     1       2.876  -1.278  -0.551  0.00  0.00    -0.012 A 
ATOM     22  C   UNL     1       2.379   0.008  -0.450  0.00  0.00    +0.006 A 
ATOM     23 CL   UNL     1       4.818  -3.098  -1.044  0.00  0.00    -0.083 Cl
ENDBRANCH  16  21
ENDBRANCH  12  16
ENDBRANCH   1  13
BRANCH   9  24
ATOM     24  C   UNL     1       0.192  -9.136   1.668  0.00  0.00    +0.112 C 
BRANCH  24  25
ATOM     25  C   UNL     1       1.220 -10.240   1.925  0.00  0.00    +0.052 C 
BRANCH  25  26
ATOM     26  C   UNL     1       0.824 -11.481   1.168  0.00  0.00    -0.040 C 
ATOM     27  C   UNL     1       1.261 -11.864  -0.053  0.00  0.00    -0.001 A 
ATOM     28  C   UNL     1       2.200 -11.261  -1.007  0.00  0.00    +0.010 A 
ATOM     29  C   UNL     1       2.442 -11.893  -2.178  0.00  0.00    +0.001 A 
ATOM     30  C   UNL     1       1.820 -13.107  -2.503  0.00  0.00    +0.002 A 
ATOM     31  C   UNL     1       0.946 -13.722  -1.678  0.00  0.00    +0.026 A 
ATOM     32  C   UNL     1       0.618 -13.146  -0.420  0.00  0.00    +0.043 A 
ATOM     33  N   UNL     1      -0.186 -13.541   0.538  0.00  0.00    -0.380 N 
ATOM     34  C   UNL     1      -0.139 -12.556   1.624  0.00  0.00    +0.144 C 
ATOM     35  H   UNL     1      -0.719 -14.351   0.531  0.00  0.00    +0.160 HD
ENDBRANCH  25  26
ENDBRANCH  24  25
ENDBRANCH   9  24
TORSDOF 6
