REMARK  Name = ZINC39678282
REMARK  8 active torsions:
REMARK  status: ('A' for Active; 'I' for Inactive)
REMARK    1  A    between atoms: C_1  and  C_2
REMARK    2  A    between atoms: C_2  and  C_4
REMARK    3  A    between atoms: C_2  and  O_33
REMARK    4  A    between atoms: C_8  and  C_17
REMARK    5  A    between atoms: N_19  and  C_20
REMARK    6  A    between atoms: C_20  and  C_21
REMARK    7  A    between atoms: C_26  and  N_27
REMARK    8  A    between atoms: O_33  and  C_34
REMARK                            x       y       z     vdW  Elec       q    Type
REMARK                         _______ _______ _______ _____ _____    ______ ____
ROOT
ATOM      1  C   UNL     1       1.223  -0.728  -1.833  0.00  0.00    +0.256 C 
ATOM      2  O   UNL     1       2.377  -0.961  -1.540  0.00  0.00    -0.272 OA
ATOM      3  N   UNL     1       0.892  -0.464  -3.112  0.00  0.00    -0.297 N 
ATOM      4  C   UNL     1      -0.461  -0.233  -3.671  0.00  0.00    +0.121 C 
ATOM      5  C   UNL     1      -0.269   0.903  -4.701  0.00  0.00    +0.100 C 
ATOM      6  C   UNL     1       1.216   0.827  -5.097  0.00  0.00    -0.004 C 
ATOM      7  C   UNL     1       1.800  -0.333  -4.277  0.00  0.00    +0.115 C 
ATOM      8  C   UNL     1       1.350   0.541  -6.589  0.00  0.00    -0.010 C 
ATOM      9  C   UNL     1       2.833   0.527  -6.970  0.00  0.00    -0.082 C 
ATOM     10  N   UNL     1       3.436   1.825  -6.644  0.00  0.00    +0.379 N 
ATOM     11  C   UNL     1       3.385   2.051  -5.194  0.00  0.00    -0.082 C 
ATOM     12  C   UNL     1       1.925   2.129  -4.739  0.00  0.00    -0.010 C 
ATOM     13  H   UNL     1       4.397   1.835  -6.951  0.00  0.00    -0.086 HD
ATOM     14  H   UNL     1       2.928   2.558  -7.115  0.00  0.00    -0.086 HD
ENDROOT
BRANCH   5  15
ATOM     15  C   UNL     1      -1.147   0.675  -5.904  0.00  0.00    +0.218 C 
ATOM     16  O   UNL     1      -1.266  -0.440  -6.365  0.00  0.00    -0.275 OA
ATOM     17  N   UNL     1      -1.801   1.711  -6.467  0.00  0.00    -0.311 N 
ATOM     18  H   UNL     1      -1.706   2.603  -6.098  0.00  0.00    +0.149 HD
BRANCH  17  19
ATOM     19  C   UNL     1      -2.655   1.489  -7.636  0.00  0.00    +0.141 C 
BRANCH  19  20
ATOM     20  C   UNL     1      -3.265   2.797  -8.068  0.00  0.00    -0.009 A 
ATOM     21  C   UNL     1      -4.562   3.108  -7.707  0.00  0.00    +0.007 A 
ATOM     22  C   UNL     1      -5.123   4.308  -8.103  0.00  0.00    +0.000 A 
ATOM     23  C   UNL     1      -4.388   5.202  -8.861  0.00  0.00    +0.002 A 
ATOM     24  C   UNL     1      -3.091   4.898  -9.225  0.00  0.00    +0.023 A 
ATOM     25  C   UNL     1      -2.523   3.695  -8.824  0.00  0.00    +0.034 A 
BRANCH  25  26
ATOM     26  N   UNL     1      -1.210   3.386  -9.186  0.00  0.00    -0.330 N 
ATOM     27  C   UNL     1      -0.926   2.681 -10.443  0.00  0.00    +0.105 C 
ATOM     28  C   UNL     1       0.099   3.491 -11.243  0.00  0.00    +0.019 C 
ATOM     29  C   UNL     1       1.332   3.747 -10.373  0.00  0.00    +0.003 C 
ATOM     30  C   UNL     1       0.929   4.560  -9.141  0.00  0.00    +0.019 C 
ATOM     31  C   UNL     1      -0.085   3.767  -8.320  0.00  0.00    +0.105 C 
ENDBRANCH  25  26
ENDBRANCH  19  20
ENDBRANCH  17  19
ENDBRANCH   5  15
BRANCH   1  33
ATOM     32  C   UNL     1      -0.359   0.690  -0.554  0.00  0.00    +0.062 C 
ATOM     33  C   UNL     1       0.159  -0.734  -0.765  0.00  0.00    +0.256 C 
BRANCH  33  34
ATOM     34  O   UNL     1       0.714  -1.225   0.457  0.00  0.00    -0.480 OA
BRANCH  34  35
ATOM     35  C   UNL     1      -0.147  -1.800   1.338  0.00  0.00    +0.122 A 
ATOM     36  C   UNL     1      -1.510  -1.794   1.082  0.00  0.00    +0.045 A 
ATOM     37  C   UNL     1      -2.383  -2.379   1.979  0.00  0.00    +0.004 A 
ATOM     38  C   UNL     1      -1.899  -2.970   3.131  0.00  0.00    +0.000 A 
ATOM     39  C   UNL     1      -0.540  -2.977   3.389  0.00  0.00    +0.004 A 
ATOM     40  C   UNL     1       0.337  -2.398   2.492  0.00  0.00    +0.045 A 
ENDBRANCH  34  35
ENDBRANCH  33  34
ENDBRANCH   1  33
TORSDOF 7
