REMARK  Name = ZINC20069713
REMARK  11 active torsions:
REMARK  status: ('A' for Active; 'I' for Inactive)
REMARK    1  A    between atoms: C_1  and  C_2
REMARK    2  A    between atoms: C_5  and  N_8
REMARK    3  A    between atoms: C_14  and  C_16
REMARK    4  A    between atoms: C_14  and  C_17
REMARK    5  A    between atoms: C_18  and  C_21
REMARK    6  A    between atoms: C_18  and  N_25
REMARK    7  A    between atoms: C_26  and  C_28
REMARK    8  A    between atoms: C_31  and  O_36
REMARK    9  A    between atoms: C_32  and  O_34
REMARK   10  A    between atoms: O_34  and  C_35
REMARK   11  A    between atoms: O_36  and  C_37
REMARK                            x       y       z     vdW  Elec       q    Type
REMARK                         _______ _______ _______ _____ _____    ______ ____
ROOT
ATOM      1  N   UNL     1       0.057  -4.171  -0.021  0.00  0.00    -0.241 N 
ATOM      2  C   UNL     1      -0.047  -4.922  -1.150  0.00  0.00    +0.028 C 
ATOM      3  C   UNL     1      -0.001  -6.251  -0.865  0.00  0.00    +0.054 C 
ATOM      4  C   UNL     1      -0.089  -7.258  -1.839  0.00  0.00    +0.164 C 
ATOM      5  O   UNL     1      -0.021  -8.432  -1.535  0.00  0.00    -0.292 OA
ATOM      6  C   UNL     1      -0.272  -6.832  -3.279  0.00  0.00    +0.086 C 
ATOM      7  C   UNL     1       0.413  -5.484  -3.510  0.00  0.00    -0.023 C 
ATOM      8  C   UNL     1      -0.175  -4.422  -2.574  0.00  0.00    +0.058 C 
ATOM      9  C   UNL     1       1.912  -5.624  -3.238  0.00  0.00    +0.011 C 
ATOM     10  C   UNL     1       0.200  -5.050  -4.961  0.00  0.00    +0.011 C 
ATOM     11  C   UNL     1       0.147  -6.370   0.627  0.00  0.00    +0.237 C 
ATOM     12  C   UNL     1       0.174  -4.925   1.090  0.00  0.00    +0.261 C 
ATOM     13  O   UNL     1       0.280  -4.528   2.231  0.00  0.00    -0.272 OA
ENDROOT
BRANCH   1  18
ATOM     14  C   UNL     1      -0.017   1.503   0.013  0.00  0.00    +0.044 C 
ATOM     15  C   UNL     1       0.003  -0.004   0.003  0.00  0.00    -0.050 A 
ATOM     16  C   UNL     1      -1.134  -0.707  -0.351  0.00  0.00    +0.005 A 
ATOM     17  C   UNL     1      -1.117  -2.088  -0.366  0.00  0.00    +0.024 A 
ATOM     18  C   UNL     1       0.039  -2.771  -0.013  0.00  0.00    +0.041 A 
ATOM     19  C   UNL     1       1.178  -2.062   0.347  0.00  0.00    +0.024 A 
ATOM     20  C   UNL     1       1.157  -0.681   0.354  0.00  0.00    +0.005 A 
ENDBRANCH   1  18
BRANCH  11  21
ATOM     21  C   UNL     1       1.456  -7.077   0.985  0.00  0.00    +0.424 C 
ATOM     22  F   UNL     1       1.620  -7.079   2.374  0.00  0.00    -0.167 F 
ATOM     23  F   UNL     1       1.417  -8.395   0.518  0.00  0.00    -0.167 F 
ATOM     24  F   UNL     1       2.527  -6.403   0.389  0.00  0.00    -0.167 F 
ENDBRANCH  11  21
BRANCH  11  25
ATOM     25  N   UNL     1      -0.996  -7.078   1.208  0.00  0.00    -0.287 N 
ATOM     26  C   UNL     1      -1.100  -7.207   2.546  0.00  0.00    +0.245 C 
ATOM     27  O   UNL     1      -0.244  -6.735   3.270  0.00  0.00    -0.270 OA
ATOM     28  H   UNL     1      -1.770  -7.505   0.553  0.00  0.00    +0.151 HD
BRANCH  26  29
ATOM     29  C   UNL     1      -2.252  -7.920   3.132  0.00  0.00    +0.040 A 
ATOM     30  C   UNL     1      -3.238  -8.457   2.302  0.00  0.00    +0.017 A 
ATOM     31  C   UNL     1      -4.311  -9.127   2.850  0.00  0.00    +0.050 A 
ATOM     32  C   UNL     1      -4.419  -9.260   4.228  0.00  0.00    +0.162 A 
ATOM     33  C   UNL     1      -3.440  -8.722   5.062  0.00  0.00    +0.162 A 
ATOM     34  C   UNL     1      -2.360  -8.054   4.519  0.00  0.00    +0.062 A 
BRANCH  33  35
ATOM     35  O   UNL     1      -3.549  -8.854   6.412  0.00  0.00    -0.491 OA
ATOM     36  C   UNL     1      -2.511  -8.278   7.206  0.00  0.00    +0.277 C 
ENDBRANCH  33  35
BRANCH  32  37
ATOM     37  O   UNL     1      -5.480  -9.916   4.764  0.00  0.00    -0.491 OA
ATOM     38  C   UNL     1      -6.446 -10.443   3.851  0.00  0.00    +0.277 C 
ENDBRANCH  32  37
ENDBRANCH  26  29
ENDBRANCH  11  25
TORSDOF 6
