REMARK  Name = ZINC09329055
REMARK  15 active torsions:
REMARK  status: ('A' for Active; 'I' for Inactive)
REMARK    1  A    between atoms: C_1  and  C_2
REMARK    2  A    between atoms: C_2  and  C_3
REMARK    3  A    between atoms: C_3  and  C_4
REMARK    4  A    between atoms: C_4  and  C_5
REMARK    5  A    between atoms: C_5  and  O_6
REMARK    6  A    between atoms: O_6  and  C_7
REMARK    7  A    between atoms: C_11  and  C_13
REMARK    8  A    between atoms: C_16  and  C_17
REMARK    9  A    between atoms: C_16  and  O_28
REMARK   10  A    between atoms: C_24  and  C_27
REMARK   11  A    between atoms: N_33  and  C_34
REMARK   12  A    between atoms: C_34  and  C_35
REMARK   13  A    between atoms: C_35  and  N_72
REMARK   14  A    between atoms: C_36  and  N_72
REMARK   15  A    between atoms: C_37  and  N_72
REMARK                            x       y       z     vdW  Elec       q    Type
REMARK                         _______ _______ _______ _____ _____    ______ ____
ROOT
ATOM      1  C   UNL     1      -0.540   1.566   5.930  0.00  0.00    +0.144 C 
ATOM      2  C   UNL     1       0.207   2.747   6.505  0.00  0.00    +0.071 C 
ATOM      3  C   UNL     1       0.143   4.059   6.076  0.00  0.00    +0.133 C 
ATOM      4  C   UNL     1       0.981   2.241   7.561  0.00  0.00    +0.249 C 
ATOM      5  O   UNL     1       1.726   2.888   8.275  0.00  0.00    -0.282 OA
ATOM      6  C   UNL     1       0.733   0.777   7.659  0.00  0.00    +0.288 C 
ATOM      7  O   UNL     1       1.248   0.037   8.472  0.00  0.00    -0.266 OA
ATOM      8  N   UNL     1      -0.144   0.394   6.716  0.00  0.00    -0.285 N 
ENDROOT
BRANCH   3   9
ATOM      9  C   UNL     1       0.825   5.116   6.839  0.00  0.00    +0.017 A 
ATOM     10  C   UNL     1       0.614   5.240   8.218  0.00  0.00    +0.015 A 
ATOM     11  C   UNL     1       1.259   6.222   8.929  0.00  0.00    +0.046 A 
ATOM     12  C   UNL     1       2.120   7.113   8.286  0.00  0.00    +0.124 A 
ATOM     13  C   UNL     1       2.316   6.994   6.912  0.00  0.00    -0.002 A 
ATOM     14  C   UNL     1       1.685   6.012   6.191  0.00  0.00    +0.019 A 
ATOM     15  C   UNL     1       3.270   8.101   6.503  0.00  0.00    +0.083 C 
ATOM     16  C   UNL     1       3.225   9.033   7.736  0.00  0.00    +0.175 C 
ATOM     17  O   UNL     1       2.850   8.140   8.798  0.00  0.00    -0.488 OA
ATOM     18  C   UNL     1       2.171  10.126   7.551  0.00  0.00    +0.052 C 
ENDBRANCH   3   9
BRANCH   1  23
ATOM     19  C   UNL     1      -0.665   1.613   2.153  0.00  0.00    +0.121 A 
ATOM     20  C   UNL     1       0.537   1.001   1.831  0.00  0.00    +0.045 A 
ATOM     21  C   UNL     1       1.389   0.583   2.836  0.00  0.00    +0.004 A 
ATOM     22  C   UNL     1       1.039   0.765   4.161  0.00  0.00    +0.006 A 
ATOM     23  C   UNL     1      -0.162   1.370   4.484  0.00  0.00    -0.019 A 
ATOM     24  C   UNL     1      -1.014   1.794   3.483  0.00  0.00    +0.051 A 
BRANCH  19  25
ATOM     25  O   UNL     1      -1.503   2.029   1.167  0.00  0.00    -0.492 OA
BRANCH  25  26
ATOM     26  C   UNL     1      -1.078   1.810  -0.180  0.00  0.00    +0.229 C 
BRANCH  26  27
ATOM     27  C   UNL     1      -2.143   2.340  -1.143  0.00  0.00    +0.041 C 
BRANCH  27  28
ATOM     28  C   UNL     1      -1.688   2.106  -2.584  0.00  0.00    +0.003 C 
BRANCH  28  30
ATOM     29  C   UNL     1      -2.298   2.401  -4.989  0.00  0.00    +0.004 C 
ATOM     30  C   UNL     1      -2.752   2.636  -3.547  0.00  0.00    -0.003 C 
ENDBRANCH  28  30
ENDBRANCH  27  28
ENDBRANCH  26  27
ENDBRANCH  25  26
ENDBRANCH  19  25
ENDBRANCH   1  23
BRANCH   3  31
ATOM     31  O   UNL     1      -0.545   4.370   4.957  0.00  0.00    -0.506 OA
ATOM     32  H   UNL     1      -0.488   5.356   4.794  0.00  0.00    +0.292 HD
ENDBRANCH   3  31
BRANCH   8  33
ATOM     33  C   UNL     1      -0.627  -0.973   6.507  0.00  0.00    +0.090 C 
BRANCH  33  34
ATOM     34  C   UNL     1       0.295  -1.694   5.521  0.00  0.00    -0.060 C 
BRANCH  34  37
ATOM     35  C   UNL     1      -1.493  -3.066   4.635  0.00  0.00    -0.097 C 
ATOM     36  C   UNL     1       0.793  -3.861   4.562  0.00  0.00    -0.097 C 
ATOM     37  N   UNL     1      -0.192  -3.077   5.337  0.00  0.00    +0.377 N 
ATOM     38  H   UNL     1      -0.314  -3.513   6.259  0.00  0.00    -0.083 HD
ENDBRANCH  34  37
ENDBRANCH  33  34
ENDBRANCH   8  33
TORSDOF 11
