REMARK  Name = ZINC38604051
REMARK  8 active torsions:
REMARK  status: ('A' for Active; 'I' for Inactive)
REMARK    1  A    between atoms: C_1  and  C_2
REMARK    2  A    between atoms: C_7  and  N_8
REMARK    3  A    between atoms: N_11  and  C_14
REMARK    4  A    between atoms: C_14  and  C_15
REMARK    5  A    between atoms: N_17  and  C_18
REMARK    6  A    between atoms: C_26  and  C_28
REMARK    7  A    between atoms: C_28  and  O_30
REMARK    8  A    between atoms: O_30  and  C_31
REMARK                            x       y       z     vdW  Elec       q    Type
REMARK                         _______ _______ _______ _____ _____    ______ ____
ROOT
ATOM      1  C   UNL     1       1.100   0.844   7.515  0.00  0.00    +0.231 C 
ATOM      2  O   UNL     1       1.566   1.742   6.847  0.00  0.00    -0.274 OA
ATOM      3  N   UNL     1       1.541   0.640   8.772  0.00  0.00    -0.285 N 
ATOM      4  H   UNL     1       1.115  -0.026   9.333  0.00  0.00    +0.155 HD
ENDROOT
BRANCH   3   5
ATOM      5  C   UNL     1       2.585   1.371   9.254  0.00  0.00    +0.053 C 
ATOM      6  C   UNL     1       3.067   1.384  10.551  0.00  0.00    +0.019 A 
ATOM      7  C   UNL     1       2.671   0.698  11.724  0.00  0.00    +0.026 A 
ATOM      8  C   UNL     1       3.339   0.909  12.885  0.00  0.00    +0.019 A 
ATOM      9  C   UNL     1       4.420   1.794  12.958  0.00  0.00    +0.017 A 
ATOM     10  C   UNL     1       4.854   2.484  11.876  0.00  0.00    +0.027 A 
ATOM     11  C   UNL     1       4.205   2.316  10.624  0.00  0.00    +0.045 A 
ATOM     12  N   UNL     1       4.430   2.861   9.446  0.00  0.00    -0.367 N 
ATOM     13  C   UNL     1       3.462   2.331   8.481  0.00  0.00    +0.234 C 
ATOM     14 BR   UNL     1       2.797  -0.014  14.444  0.00  0.00    -0.050 Br
ATOM     15  H   UNL     1       5.127   3.506   9.248  0.00  0.00    +0.161 HD
BRANCH  13  16
ATOM     16  C   UNL     1       4.176   1.603   7.371  0.00  0.00    +0.335 C 
ATOM     17  O   UNL     1       5.249   1.087   7.579  0.00  0.00    -0.248 OA
BRANCH  16  18
ATOM     18  O   UNL     1       3.620   1.527   6.152  0.00  0.00    -0.466 OA
ATOM     19  C   UNL     1       4.352   0.822   5.147  0.00  0.00    +0.280 C 
ENDBRANCH  16  18
ENDBRANCH  13  16
ENDBRANCH   3   5
BRANCH   1  20
ATOM     20  C   UNL     1       0.027  -0.045   6.940  0.00  0.00    +0.180 C 
BRANCH  20  24
ATOM     21  N   UNL     1      -0.688   0.241   2.814  0.00  0.00    -0.327 N 
ATOM     22  C   UNL     1      -1.860   0.296   3.700  0.00  0.00    +0.120 C 
ATOM     23  C   UNL     1      -1.473  -0.302   5.057  0.00  0.00    +0.104 C 
ATOM     24  N   UNL     1      -0.277   0.380   5.566  0.00  0.00    -0.291 NA
ATOM     25  C   UNL     1       0.877   0.165   4.682  0.00  0.00    +0.104 C 
ATOM     26  C   UNL     1       0.588   0.777   3.312  0.00  0.00    +0.120 C 
BRANCH  21  33
ATOM     27  C   UNL     1      -1.362   1.965   0.654  0.00  0.00    +0.045 C 
ATOM     28  C   UNL     1      -1.108   0.493   0.451  0.00  0.00    -0.029 A 
ATOM     29  C   UNL     1      -1.194  -0.055  -0.814  0.00  0.00    +0.006 A 
ATOM     30  C   UNL     1      -0.962  -1.404  -1.002  0.00  0.00    +0.020 A 
ATOM     31  C   UNL     1      -0.642  -2.211   0.076  0.00  0.00    +0.043 A 
ATOM     32  C   UNL     1      -0.554  -1.669   1.344  0.00  0.00    +0.043 A 
ATOM     33  C   UNL     1      -0.781  -0.312   1.534  0.00  0.00    +0.034 A 
ATOM     34 CL   UNL     1      -0.350  -3.906  -0.165  0.00  0.00    -0.083 Cl
ENDBRANCH  21  33
ENDBRANCH  20  24
ENDBRANCH   1  20
TORSDOF 6
