REMARK  Name = ZINC63362939
REMARK  11 active torsions:
REMARK  status: ('A' for Active; 'I' for Inactive)
REMARK    1  A    between atoms: C_1  and  C_2
REMARK    2  A    between atoms: C_2  and  C_4
REMARK    3  A    between atoms: C_2  and  N_12
REMARK    4  A    between atoms: C_4  and  C_5
REMARK    5  A    between atoms: C_5  and  C_6
REMARK    6  A    between atoms: C_13  and  C_15
REMARK    7  A    between atoms: C_15  and  C_17
REMARK    8  A    between atoms: C_15  and  N_18
REMARK    9  A    between atoms: C_21  and  C_39
REMARK   10  A    between atoms: C_27  and  O_32
REMARK   11  A    between atoms: O_32  and  C_33
REMARK                            x       y       z     vdW  Elec       q    Type
REMARK                         _______ _______ _______ _____ _____    ______ ____
ROOT
ATOM      1  N   UNL     1      -3.978  -1.213  -2.505  0.00  0.00    -0.212 N 
ATOM      2  C   UNL     1      -5.058  -0.530  -2.934  0.00  0.00    +0.249 C 
ATOM      3  O   UNL     1      -5.777   0.191  -2.276  0.00  0.00    -0.273 OA
ATOM      4  C   UNL     1      -5.187  -0.848  -4.408  0.00  0.00    +0.136 C 
ATOM      5  C   UNL     1      -6.520  -1.555  -4.680  0.00  0.00    +0.139 C 
ATOM      6  C   UNL     1      -6.349  -2.306  -5.996  0.00  0.00    -0.034 C 
ATOM      7  C   UNL     1      -7.301  -1.859  -6.807  0.00  0.00    +0.003 A 
ATOM      8  C   UNL     1      -7.681  -2.241  -8.176  0.00  0.00    +0.055 A 
ATOM      9  C   UNL     1      -8.720  -1.559  -8.733  0.00  0.00    +0.121 A 
ATOM     10  C   UNL     1      -9.428  -0.539  -8.082  0.00  0.00    +0.047 A 
ATOM     11  C   UNL     1      -9.166  -0.112  -6.820  0.00  0.00    +0.029 A 
ATOM     12  C   UNL     1      -8.063  -0.777  -6.111  0.00  0.00    +0.043 A 
ATOM     13  N   UNL     1      -7.601  -0.591  -4.899  0.00  0.00    -0.375 N 
ATOM     14  C   UNL     1      -5.236  -3.294  -6.246  0.00  0.00    +0.052 C 
ATOM     15  C   UNL     1      -3.913  -2.592  -5.878  0.00  0.00    +0.115 C 
ATOM     16  N   UNL     1      -4.118  -1.847  -4.633  0.00  0.00    -0.269 N 
ATOM     17  C   UNL     1      -3.428  -1.938  -3.489  0.00  0.00    +0.313 C 
ATOM     18  O   UNL     1      -2.419  -2.603  -3.357  0.00  0.00    -0.252 OA
ATOM     19  C   UNL     1      -5.003   0.396  -5.280  0.00  0.00    +0.044 C 
ATOM     20  H   UNL     1      -7.913   0.067  -4.258  0.00  0.00    +0.160 HD
ENDROOT
BRANCH   1  21
ATOM     21  C   UNL     1      -3.465  -1.164  -1.134  0.00  0.00    +0.168 C 
ATOM     22  C   UNL     1      -3.485  -2.571  -0.532  0.00  0.00    +0.038 C 
BRANCH  21  24
ATOM     23  N   UNL     1      -1.372  -0.511   0.012  0.00  0.00    -0.311 N 
ATOM     24  C   UNL     1      -2.051  -0.643  -1.145  0.00  0.00    +0.234 C 
ATOM     25  O   UNL     1      -1.524  -0.341  -2.194  0.00  0.00    -0.274 OA
ATOM     26  H   UNL     1      -1.794  -0.752   0.852  0.00  0.00    +0.149 HD
BRANCH  23  28
ATOM     27  C   UNL     1      -0.019   1.526   0.010  0.00  0.00    +0.028 C 
ATOM     28  C   UNL     1       0.002  -0.004   0.002  0.00  0.00    +0.070 C 
BRANCH  28  29
ATOM     29  C   UNL     1       0.742  -0.511   1.242  0.00  0.00    +0.026 C 
BRANCH  29  30
ATOM     30  C   UNL     1       0.872  -2.034   1.171  0.00  0.00    +0.037 C 
BRANCH  30  31
ATOM     31  C   UNL     1       1.601  -2.533   2.392  0.00  0.00    -0.047 A 
ATOM     32  C   UNL     1       2.979  -2.641   2.378  0.00  0.00    +0.003 A 
ATOM     33  C   UNL     1       3.647  -3.099   3.498  0.00  0.00    +0.000 A 
ATOM     34  C   UNL     1       2.938  -3.448   4.632  0.00  0.00    +0.000 A 
ATOM     35  C   UNL     1       1.560  -3.340   4.646  0.00  0.00    +0.000 A 
ATOM     36  C   UNL     1       0.892  -2.878   3.527  0.00  0.00    +0.003 A 
ENDBRANCH  30  31
ENDBRANCH  29  30
ENDBRANCH  28  29
ENDBRANCH  23  28
ENDBRANCH  21  24
ENDBRANCH   1  21
BRANCH   9  37
ATOM     37  O   UNL     1      -9.095  -1.889  -9.998  0.00  0.00    -0.495 OA
ATOM     38  C   UNL     1     -10.187  -1.161 -10.562  0.00  0.00    +0.277 C 
ENDBRANCH   9  37
TORSDOF 7
