REMARK  Name = ZINC10914914
REMARK  7 active torsions:
REMARK  status: ('A' for Active; 'I' for Inactive)
REMARK    1  A    between atoms: C_7  and  C_13
REMARK    2  A    between atoms: C_13  and  C_14
REMARK    3  A    between atoms: C_14  and  O_16
REMARK    4  A    between atoms: O_16  and  C_17
REMARK    5  A    between atoms: C_17  and  C_18
REMARK    6  A    between atoms: C_21  and  C_33
REMARK    7  A    between atoms: C_24  and  C_26
REMARK                            x       y       z     vdW  Elec       q    Type
REMARK                         _______ _______ _______ _____ _____    ______ ____
ROOT
ATOM      1  C   UNL     1       0.002  -0.004   0.002  0.00  0.00    +0.273 C 
ATOM      2  O   UNL     1      -0.506  -0.623   0.913  0.00  0.00    -0.270 OA
ATOM      3  N   UNL     1       0.585  -0.664  -1.018  0.00  0.00    -0.179 N 
ATOM      4  C   UNL     1       0.680  -2.127  -1.147  0.00  0.00    +0.173 C 
ATOM      5  C   UNL     1       1.428  -2.324  -2.481  0.00  0.00    +0.090 C 
ATOM      6  C   UNL     1       1.688  -0.915  -2.965  0.00  0.00    +0.069 C 
ATOM      7  N   UNL     1       1.201  -0.074  -2.119  0.00  0.00    -0.181 NA
ENDROOT
BRANCH   6   8
ATOM      8  C   UNL     1       2.389  -0.559  -4.212  0.00  0.00    -0.002 A 
ATOM      9  C   UNL     1       2.880  -1.562  -5.051  0.00  0.00    +0.011 A 
ATOM     10  C   UNL     1       3.529  -1.223  -6.220  0.00  0.00    +0.020 A 
ATOM     11  C   UNL     1       3.706   0.109  -6.555  0.00  0.00    +0.041 A 
ATOM     12  C   UNL     1       3.226   1.108  -5.725  0.00  0.00    +0.020 A 
ATOM     13  C   UNL     1       2.570   0.782  -4.557  0.00  0.00    +0.011 A 
ATOM     14 CL   UNL     1       4.531   0.528  -8.024  0.00  0.00    -0.084 Cl
ENDBRANCH   6   8
BRANCH   4  15
ATOM     15  C   UNL     1       1.468  -2.711  -0.003  0.00  0.00    +0.128 A 
ATOM     16  C   UNL     1       1.198  -3.867   0.630  0.00  0.00    +0.046 A 
ATOM     17  C   UNL     1       2.184  -4.026   1.630  0.00  0.00    +0.041 A 
ATOM     18  C   UNL     1       2.998  -2.959   1.549  0.00  0.00    +0.195 A 
ATOM     19  O   UNL     1       2.563  -2.168   0.554  0.00  0.00    -0.466 OA
ENDBRANCH   4  15
BRANCH   1  20
ATOM     20  C   UNL     1      -0.018   1.503   0.010  0.00  0.00    +0.329 C 
BRANCH  20  21
ATOM     21  O   UNL     1      -0.698   1.971   1.205  0.00  0.00    -0.455 OA
BRANCH  21  22
ATOM     22  C   UNL     1      -0.802   3.300   1.365  0.00  0.00    +0.313 C 
ATOM     23  O   UNL     1      -0.341   4.046   0.535  0.00  0.00    -0.250 OA
BRANCH  22  24
ATOM     24  C   UNL     1      -1.495   3.860   2.581  0.00  0.00    +0.178 C 
BRANCH  24  31
ATOM     25  C   UNL     1      -3.263   6.315   5.668  0.00  0.00    +0.001 A 
ATOM     26  C   UNL     1      -3.231   7.701   5.586  0.00  0.00    +0.001 A 
ATOM     27  C   UNL     1      -2.633   8.328   4.515  0.00  0.00    +0.014 A 
ATOM     28  C   UNL     1      -2.056   7.558   3.506  0.00  0.00    +0.050 A 
ATOM     29  C   UNL     1      -2.091   6.148   3.594  0.00  0.00    +0.011 A 
ATOM     30  C   UNL     1      -2.704   5.540   4.691  0.00  0.00    +0.010 A 
ATOM     31  C   UNL     1      -1.477   5.365   2.521  0.00  0.00    +0.080 A 
ATOM     32  N   UNL     1      -0.910   5.968   1.518  0.00  0.00    -0.175 NA
ATOM     33  N   UNL     1      -0.866   7.358   1.402  0.00  0.00    -0.242 N 
ATOM     34  H   UNL     1      -0.434   7.754   0.629  0.00  0.00    +0.192 HD
ATOM     35  C   UNL     1      -1.404   8.166   2.340  0.00  0.00    +0.272 A 
ATOM     36  O   UNL     1      -1.349   9.377   2.220  0.00  0.00    -0.266 OA
ENDBRANCH  24  31
ENDBRANCH  22  24
ENDBRANCH  21  22
ENDBRANCH  20  21
ENDBRANCH   1  20
TORSDOF 7
