REMARK  Name = ZINC63667300
REMARK  9 active torsions:
REMARK  status: ('A' for Active; 'I' for Inactive)
REMARK    1  A    between atoms: C_1  and  C_2
REMARK    2  A    between atoms: N_6  and  C_27
REMARK    3  A    between atoms: C_9  and  C_11
REMARK    4  A    between atoms: C_11  and  C_12
REMARK    5  A    between atoms: C_12  and  C_13
REMARK    6  A    between atoms: N_15  and  C_16
REMARK    7  A    between atoms: C_16  and  C_17
REMARK    8  A    between atoms: C_17  and  C_18
REMARK    9  A    between atoms: N_28  and  C_30
REMARK                            x       y       z     vdW  Elec       q    Type
REMARK                         _______ _______ _______ _____ _____    ______ ____
ROOT
ATOM      1  C   UNL     1       0.114   1.671  -0.113  0.00  0.00    +0.064 C 
ATOM      2  C   UNL     1       0.198   0.167  -0.098  0.00  0.00    +0.044 C 
ATOM      3  C   UNL     1      -0.867  -0.654  -0.116  0.00  0.00    +0.100 C 
ATOM      4  C   UNL     1      -0.296  -2.045  -0.387  0.00  0.00    +0.233 C 
ATOM      5  N   UNL     1      -0.980  -3.152   0.292  0.00  0.00    -0.274 N 
ATOM      6  C   UNL     1      -2.252  -2.902   0.695  0.00  0.00    +0.262 C 
ATOM      7  O   UNL     1      -2.878  -3.758   1.292  0.00  0.00    -0.269 OA
ATOM      8  C   UNL     1      -2.872  -1.610   0.414  0.00  0.00    +0.104 C 
ATOM      9  N   UNL     1      -2.188  -0.570   0.025  0.00  0.00    -0.246 NA
ATOM     10  C   UNL     1      -0.331  -4.445   0.520  0.00  0.00    +0.134 C 
ATOM     11  N   UNL     1       1.085  -1.917   0.097  0.00  0.00    -0.227 N 
ATOM     12  N   UNL     1       1.367  -0.543  -0.071  0.00  0.00    -0.265 N 
ATOM     13  H   UNL     1       2.254  -0.160  -0.152  0.00  0.00    +0.170 HD
ENDROOT
BRANCH  11  14
ATOM     14  C   UNL     1       1.920  -2.918   0.599  0.00  0.00    +0.050 A 
ATOM     15  C   UNL     1       2.330  -3.960  -0.223  0.00  0.00    +0.025 A 
ATOM     16  C   UNL     1       3.156  -4.947   0.276  0.00  0.00    +0.002 A 
ATOM     17  C   UNL     1       3.576  -4.899   1.593  0.00  0.00    +0.000 A 
ATOM     18  C   UNL     1       3.170  -3.864   2.414  0.00  0.00    +0.002 A 
ATOM     19  C   UNL     1       2.349  -2.870   1.919  0.00  0.00    +0.025 A 
ENDBRANCH  11  14
BRANCH   8  20
ATOM     20  C   UNL     1      -4.362  -1.471   0.594  0.00  0.00    +0.070 C 
BRANCH  20  21
ATOM     21  C   UNL     1      -4.787  -0.043   0.245  0.00  0.00    +0.102 C 
BRANCH  21  22
ATOM     22  C   UNL     1      -6.276   0.096   0.424  0.00  0.00    +0.213 C 
ATOM     23  O   UNL     1      -6.934  -0.853   0.795  0.00  0.00    -0.276 OA
ATOM     24  N   UNL     1      -6.878   1.276   0.173  0.00  0.00    -0.315 N 
ATOM     25  H   UNL     1      -6.352   2.035  -0.123  0.00  0.00    +0.149 HD
BRANCH  24  26
ATOM     26  C   UNL     1      -8.326   1.411   0.348  0.00  0.00    +0.108 C 
BRANCH  26  27
ATOM     27  C   UNL     1      -8.751   2.839  -0.001  0.00  0.00    +0.052 C 
BRANCH  27  28
ATOM     28  C   UNL     1     -10.240   2.978   0.178  0.00  0.00    -0.040 C 
ATOM     29  C   UNL     1     -10.888   3.444   1.271  0.00  0.00    -0.001 A 
ATOM     30  C   UNL     1     -10.417   3.940   2.570  0.00  0.00    +0.010 A 
ATOM     31  C   UNL     1     -11.325   4.346   3.485  0.00  0.00    +0.001 A 
ATOM     32  C   UNL     1     -12.702   4.305   3.226  0.00  0.00    +0.002 A 
ATOM     33  C   UNL     1     -13.211   3.863   2.057  0.00  0.00    +0.026 A 
ATOM     34  C   UNL     1     -12.347   3.411   1.021  0.00  0.00    +0.043 A 
ATOM     35  N   UNL     1     -12.592   2.944  -0.178  0.00  0.00    -0.380 N 
ATOM     36  C   UNL     1     -11.314   2.632  -0.829  0.00  0.00    +0.144 C 
ATOM     37  H   UNL     1     -13.470   2.827  -0.572  0.00  0.00    +0.160 HD
ENDBRANCH  27  28
ENDBRANCH  26  27
ENDBRANCH  24  26
ENDBRANCH  21  22
ENDBRANCH  20  21
ENDBRANCH   8  20
TORSDOF 7
