REMARK  Name = ZINC08847572
REMARK  6 active torsions:
REMARK  status: ('A' for Active; 'I' for Inactive)
REMARK    1  A    between atoms: C_1  and  O_2
REMARK    2  A    between atoms: O_2  and  C_3
REMARK    3  A    between atoms: C_6  and  C_11
REMARK    4  A    between atoms: C_8  and  O_9
REMARK    5  A    between atoms: O_9  and  C_10
REMARK    6  A    between atoms: C_20  and  N_24
REMARK                            x       y       z     vdW  Elec       q    Type
REMARK                         _______ _______ _______ _____ _____    ______ ____
ROOT
ATOM      1  C   UNL     1      -0.004   1.455  -0.169  0.00  0.00    +0.138 A 
ATOM      2  C   UNL     1       1.209   2.155  -0.117  0.00  0.00    +0.073 A 
ATOM      3  C   UNL     1       1.189   3.556  -0.049  0.00  0.00    +0.055 A 
ATOM      4  N   UNL     1       2.328   4.268   0.003  0.00  0.00    -0.334 N 
ATOM      5  C   UNL     1       2.288   5.587  -0.090  0.00  0.00    +0.172 A 
ATOM      6  N   UNL     1       2.316   6.495   0.897  0.00  0.00    -0.223 NA
ATOM      7  C   UNL     1       2.270   7.787   0.677  0.00  0.00    +0.081 A 
ATOM      8  C   UNL     1       2.292   8.909   1.638  0.00  0.00    +0.031 A 
ATOM      9  C   UNL     1       2.234  10.181   1.181  0.00  0.00    +0.035 A 
ATOM     10  C   UNL     1       2.155  10.487  -0.179  0.00  0.00    +0.127 A 
ATOM     11  C   UNL     1       2.130   9.490  -1.134  0.00  0.00    +0.050 A 
ATOM     12  C   UNL     1       2.185   8.175  -0.751  0.00  0.00    +0.043 A 
ATOM     13  S   UNL     1       2.192   6.597  -1.562  0.00  0.00    -0.050 S 
ATOM     14  C   UNL     1      -0.128   4.218  -0.036  0.00  0.00    +0.042 A 
ATOM     15  C   UNL     1      -0.235   5.608   0.029  0.00  0.00    +0.033 A 
ATOM     16  C   UNL     1      -1.482   6.195   0.039  0.00  0.00    +0.042 A 
ATOM     17  C   UNL     1      -2.627   5.410  -0.016  0.00  0.00    +0.023 A 
ATOM     18  C   UNL     1      -2.537   4.037  -0.081  0.00  0.00    +0.048 A 
ATOM     19  C   UNL     1      -1.288   3.423  -0.092  0.00  0.00    +0.138 A 
ATOM     20  O   UNL     1      -1.184   2.081  -0.161  0.00  0.00    -0.455 OA
ATOM     21 CL   UNL     1      -1.622   7.924   0.120  0.00  0.00    -0.084 Cl
ATOM     22  H   UNL     1       3.293   3.754   0.122  0.00  0.00    +0.168 HD
ENDROOT
BRANCH   1  26
ATOM     23  C   UNL     1       0.088  -2.777  -0.373  0.00  0.00    +0.162 A 
ATOM     24  C   UNL     1       1.277  -2.054  -0.321  0.00  0.00    +0.050 A 
ATOM     25  C   UNL     1       1.252  -0.691  -0.255  0.00  0.00    +0.015 A 
ATOM     26  C   UNL     1       0.024  -0.009  -0.240  0.00  0.00    +0.021 A 
ATOM     27  C   UNL     1      -1.178  -0.734  -0.287  0.00  0.00    +0.061 A 
ATOM     28  C   UNL     1      -1.142  -2.110  -0.358  0.00  0.00    +0.162 A 
BRANCH  23  30
ATOM     29  C   UNL     1       1.412  -4.747  -0.451  0.00  0.00    +0.277 C 
ATOM     30  O   UNL     1       0.123  -4.130  -0.439  0.00  0.00    -0.491 OA
ENDBRANCH  23  30
BRANCH  28  31
ATOM     31  O   UNL     1      -2.301  -2.819  -0.409  0.00  0.00    -0.491 OA
ATOM     32  C   UNL     1      -3.519  -2.073  -0.389  0.00  0.00    +0.277 C 
ENDBRANCH  28  31
ENDBRANCH   1  26
BRANCH  10  33
ATOM     33  N   UNL     1       2.095  11.903  -0.604  0.00  0.00    +0.056 N 
ATOM     34  O   UNL     1       2.117  12.863   0.297  0.00  0.00    -0.126 OA
ATOM     35  O   UNL     1       2.020  12.204  -1.884  0.00  0.00    -0.126 OA
ENDBRANCH  10  33
TORSDOF 4
