REMARK  Name = ZINC16382358
REMARK  14 active torsions:
REMARK  status: ('A' for Active; 'I' for Inactive)
REMARK    1  A    between atoms: C_1  and  C_2
REMARK    2  A    between atoms: C_2  and  O_3
REMARK    3  A    between atoms: O_3  and  C_4
REMARK    4  A    between atoms: C_6  and  C_24
REMARK    5  A    between atoms: C_9  and  O_10
REMARK    6  A    between atoms: O_10  and  C_11
REMARK    7  A    between atoms: C_11  and  C_12
REMARK    8  A    between atoms: N_14  and  C_15
REMARK    9  A    between atoms: C_15  and  C_16
REMARK   10  A    between atoms: C_16  and  C_17
REMARK   11  A    between atoms: C_24  and  N_63
REMARK   12  A    between atoms: C_25  and  C_27
REMARK   13  A    between atoms: C_25  and  C_28
REMARK   14  A    between atoms: C_25  and  N_63
REMARK                            x       y       z     vdW  Elec       q    Type
REMARK                         _______ _______ _______ _____ _____    ______ ____
ROOT
ATOM      1  C   UNL     1      -0.882   3.085  -3.077  0.00  0.00    +0.162 A 
ATOM      2  C   UNL     1      -0.216   2.629  -1.951  0.00  0.00    +0.052 A 
ATOM      3  C   UNL     1      -0.742   1.585  -1.213  0.00  0.00    -0.047 A 
ATOM      4  C   UNL     1      -1.938   1.002  -1.589  0.00  0.00    +0.023 A 
ATOM      5  C   UNL     1      -2.611   1.457  -2.709  0.00  0.00    +0.065 A 
ATOM      6  C   UNL     1      -2.086   2.499  -3.456  0.00  0.00    +0.164 A 
ATOM      7 BR   UNL     1      -2.656  -0.421  -0.570  0.00  0.00    -0.050 Br
ENDROOT
BRANCH   1   8
ATOM      8  O   UNL     1      -0.363   4.108  -3.808  0.00  0.00    -0.489 OA
BRANCH   8  10
ATOM      9  C   UNL     1       1.300   5.792  -4.301  0.00  0.00    +0.048 C 
ATOM     10  C   UNL     1       0.876   4.662  -3.361  0.00  0.00    +0.226 C 
ENDBRANCH   8  10
ENDBRANCH   1   8
BRANCH   6  11
ATOM     11  O   UNL     1      -2.745   2.948  -4.557  0.00  0.00    -0.479 OA
BRANCH  11  12
ATOM     12  C   UNL     1      -3.975   2.298  -4.886  0.00  0.00    +0.324 C 
BRANCH  12  13
ATOM     13  C   UNL     1      -4.558   2.925  -6.127  0.00  0.00    +0.251 C 
ATOM     14  O   UNL     1      -3.978   3.838  -6.675  0.00  0.00    -0.272 OA
ATOM     15  N   UNL     1      -5.724   2.471  -6.626  0.00  0.00    -0.312 N 
ATOM     16  H   UNL     1      -6.189   1.741  -6.188  0.00  0.00    +0.149 HD
BRANCH  15  17
ATOM     17  C   UNL     1      -6.291   3.080  -7.832  0.00  0.00    +0.109 C 
BRANCH  17  18
ATOM     18  C   UNL     1      -7.608   2.385  -8.184  0.00  0.00    +0.054 C 
BRANCH  18  19
ATOM     19  C   UNL     1      -8.191   3.012  -9.425  0.00  0.00    -0.046 A 
ATOM     20  C   UNL     1      -9.059   4.082  -9.316  0.00  0.00    +0.004 A 
ATOM     21  C   UNL     1      -9.590   4.660 -10.454  0.00  0.00    +0.000 A 
ATOM     22  C   UNL     1      -9.260   4.162 -11.700  0.00  0.00    +0.000 A 
ATOM     23  C   UNL     1      -8.397   3.088 -11.809  0.00  0.00    +0.000 A 
ATOM     24  C   UNL     1      -7.862   2.513 -10.671  0.00  0.00    +0.004 A 
ENDBRANCH  18  19
ENDBRANCH  17  18
ENDBRANCH  15  17
ENDBRANCH  12  13
ENDBRANCH  11  12
ENDBRANCH   6  11
BRANCH   3  25
ATOM     25  C   UNL     1      -0.013   1.086   0.008  0.00  0.00    -0.045 C 
BRANCH  25  26
ATOM     26  N   UNL     1      -0.709   1.566   1.217  0.00  0.00    +0.386 N 
ATOM     27  H   UNL     1      -1.672   1.210   1.216  0.00  0.00    -0.085 HD
ATOM     28  H   UNL     1      -0.723   2.592   1.214  0.00  0.00    -0.085 HD
BRANCH  26  29
ATOM     29  C   UNL     1      -0.016   1.091   2.429  0.00  0.00    -0.044 C 
ATOM     30  C   UNL     1       1.120   2.054   2.778  0.00  0.00    -0.009 C 
BRANCH  29  31
ATOM     31  C   UNL     1      -0.998   1.038   3.571  0.00  0.00    -0.062 A 
ATOM     32  C   UNL     1      -1.935   2.043   3.724  0.00  0.00    +0.002 A 
ATOM     33  C   UNL     1      -2.839   1.992   4.769  0.00  0.00    +0.000 A 
ATOM     34  C   UNL     1      -2.799   0.942   5.667  0.00  0.00    +0.000 A 
ATOM     35  C   UNL     1      -1.859  -0.060   5.517  0.00  0.00    +0.000 A 
ATOM     36  C   UNL     1      -0.958  -0.012   4.470  0.00  0.00    +0.002 A 
ENDBRANCH  29  31
ENDBRANCH  26  29
ENDBRANCH  25  26
ENDBRANCH   3  25
TORSDOF 12
