REMARK  Name = ZINC09885139
REMARK  8 active torsions:
REMARK  status: ('A' for Active; 'I' for Inactive)
REMARK    1  A    between atoms: C_1  and  C_2
REMARK    2  A    between atoms: C_3  and  C_26
REMARK    3  A    between atoms: C_4  and  N_13
REMARK    4  A    between atoms: C_6  and  C_7
REMARK    5  A    between atoms: C_14  and  C_16
REMARK    6  A    between atoms: C_16  and  N_62
REMARK    7  A    between atoms: C_17  and  N_62
REMARK    8  A    between atoms: C_18  and  N_62
REMARK                            x       y       z     vdW  Elec       q    Type
REMARK                         _______ _______ _______ _____ _____    ______ ____
ROOT
ATOM      1  C   UNL     1       4.967   1.681   0.084  0.00  0.00    +0.046 C 
ATOM      2  C   UNL     1       3.526   2.117   0.031  0.00  0.00    -0.022 A 
ATOM      3  C   UNL     1       2.493   1.185  -0.081  0.00  0.00    +0.069 A 
ATOM      4  C   UNL     1       1.188   1.669  -0.129  0.00  0.00    +0.085 A 
ATOM      5  S   UNL     1       1.406   3.384  -0.005  0.00  0.00    -0.072 S 
ATOM      6  C   UNL     1       3.185   3.433   0.098  0.00  0.00    +0.025 A 
ENDROOT
BRANCH   3   7
ATOM      7  C   UNL     1       2.773  -0.253  -0.151  0.00  0.00    +0.249 C 
ATOM      8  O   UNL     1       2.951  -0.787  -1.230  0.00  0.00    -0.270 OA
ATOM      9  N   UNL     1       2.832  -0.984   0.980  0.00  0.00    -0.293 N 
ATOM     10  C   UNL     1       2.627  -0.360   2.297  0.00  0.00    +0.136 C 
ATOM     11  C   UNL     1       1.579  -1.186   3.060  0.00  0.00    +0.179 C 
ATOM     12  O   UNL     1       1.976  -2.559   3.064  0.00  0.00    -0.377 OA
ATOM     13  C   UNL     1       2.045  -3.152   1.765  0.00  0.00    +0.179 C 
ATOM     14  C   UNL     1       3.111  -2.428   0.935  0.00  0.00    +0.136 C 
ENDBRANCH   3   7
BRANCH   6  15
ATOM     15  C   UNL     1       4.070   4.609   0.225  0.00  0.00    -0.011 A 
ATOM     16  C   UNL     1       5.091   4.619   1.177  0.00  0.00    +0.009 A 
ATOM     17  C   UNL     1       5.916   5.719   1.287  0.00  0.00    +0.001 A 
ATOM     18  C   UNL     1       5.728   6.815   0.464  0.00  0.00    +0.000 A 
ATOM     19  C   UNL     1       4.714   6.814  -0.478  0.00  0.00    +0.001 A 
ATOM     20  C   UNL     1       3.885   5.718  -0.603  0.00  0.00    +0.009 A 
ENDBRANCH   6  15
BRANCH   4  21
ATOM     21  N   UNL     1       0.006   0.956  -0.242  0.00  0.00    -0.281 N 
ATOM     22  C   UNL     1      -1.174   1.606  -0.272  0.00  0.00    +0.201 C 
ATOM     23  O   UNL     1      -1.201   2.816  -0.195  0.00  0.00    -0.278 OA
ATOM     24  H   UNL     1       0.028  -0.012  -0.303  0.00  0.00    +0.155 HD
BRANCH  22  25
ATOM     25  C   UNL     1      -2.459   0.830  -0.400  0.00  0.00    +0.019 C 
BRANCH  25  27
ATOM     26  C   UNL     1      -3.574   2.605  -1.611  0.00  0.00    -0.095 C 
ATOM     27  N   UNL     1      -3.592   1.778  -0.386  0.00  0.00    +0.387 N 
ATOM     28  H   UNL     1      -3.503   2.392   0.432  0.00  0.00    -0.081 HD
BRANCH  27  29
ATOM     29  C   UNL     1      -4.869   1.039  -0.295  0.00  0.00    -0.046 C 
ATOM     30  C   UNL     1      -6.030   2.047  -0.308  0.00  0.00    +0.009 C 
ATOM     31  C   UNL     1      -7.324   1.300   0.125  0.00  0.00    +0.164 C 
ATOM     32  S   UNL     1      -6.666   0.246   1.486  0.00  0.00    -0.033 S 
ATOM     33  O   UNL     1      -6.819   0.935   2.720  0.00  0.00    -0.174 OA
ATOM     34  O   UNL     1      -7.191  -1.067   1.348  0.00  0.00    -0.174 OA
ATOM     35  C   UNL     1      -4.885   0.232   1.026  0.00  0.00    +0.151 C 
ENDBRANCH  27  29
ENDBRANCH  25  27
ENDBRANCH  22  25
ENDBRANCH   4  21
TORSDOF 6
