REMARK  Name = ZINC64815202
REMARK  9 active torsions:
REMARK  status: ('A' for Active; 'I' for Inactive)
REMARK    1  A    between atoms: C_1  and  C_2
REMARK    2  A    between atoms: C_2  and  C_3
REMARK    3  A    between atoms: C_8  and  N_9
REMARK    4  A    between atoms: C_14  and  C_31
REMARK    5  A    between atoms: C_18  and  C_19
REMARK    6  A    between atoms: C_18  and  C_20
REMARK    7  A    between atoms: N_22  and  C_23
REMARK    8  A    between atoms: C_23  and  C_24
REMARK    9  A    between atoms: C_28  and  C_30
REMARK                            x       y       z     vdW  Elec       q    Type
REMARK                         _______ _______ _______ _____ _____    ______ ____
ROOT
ATOM      1  N   UNL     1       2.591  -0.104  -0.467  0.00  0.00    -0.250 N 
ATOM      2  C   UNL     1       2.904  -1.171   0.308  0.00  0.00    +0.270 C 
ATOM      3  O   UNL     1       2.768  -2.313  -0.088  0.00  0.00    -0.268 OA
ATOM      4  C   UNL     1       3.417  -0.872   1.654  0.00  0.00    +0.125 A 
ATOM      5  C   UNL     1       3.981  -1.675   2.602  0.00  0.00    +0.063 A 
ATOM      6  C   UNL     1       4.286  -0.810   3.678  0.00  0.00    +0.100 A 
ATOM      7  N   UNL     1       3.902   0.407   3.334  0.00  0.00    -0.170 NA
ATOM      8  N   UNL     1       3.382   0.406   2.169  0.00  0.00    -0.256 N 
ATOM      9  C   UNL     1       2.794   1.516   1.407  0.00  0.00    +0.179 C 
ATOM     10  C   UNL     1       2.976   1.252  -0.089  0.00  0.00    +0.135 C 
ATOM     11  C   UNL     1       2.118   2.246  -0.875  0.00  0.00    +0.044 C 
ENDROOT
BRANCH   1  17
ATOM     12  C   UNL     1       2.577  -0.575  -2.835  0.00  0.00    -0.026 A 
ATOM     13  C   UNL     1       1.879  -0.781  -4.010  0.00  0.00    +0.005 A 
ATOM     14  C   UNL     1       0.498  -0.716  -4.016  0.00  0.00    +0.000 A 
ATOM     15  C   UNL     1      -0.190  -0.445  -2.847  0.00  0.00    +0.002 A 
ATOM     16  C   UNL     1       0.501  -0.237  -1.670  0.00  0.00    +0.024 A 
ATOM     17  C   UNL     1       1.889  -0.308  -1.659  0.00  0.00    +0.041 A 
BRANCH  12  19
ATOM     18  C   UNL     1       4.523  -2.082  -2.535  0.00  0.00    +0.009 C 
ATOM     19  C   UNL     1       4.082  -0.646  -2.829  0.00  0.00    +0.033 C 
ENDBRANCH  12  19
ENDBRANCH   1  17
BRANCH   6  20
ATOM     20  C   UNL     1       4.921  -1.198   4.957  0.00  0.00    +0.039 A 
ATOM     21  C   UNL     1       5.237  -0.415   6.034  0.00  0.00    +0.018 A 
ATOM     22  C   UNL     1       5.830  -1.005   7.130  0.00  0.00    +0.008 A 
ATOM     23  C   UNL     1       6.083  -2.338   7.107  0.00  0.00    +0.046 A 
ATOM     24  S   UNL     1       5.467  -2.808   5.499  0.00  0.00    -0.095 S 
ENDBRANCH   6  20
BRANCH  10  25
ATOM     25  C   UNL     1       4.422   1.467  -0.454  0.00  0.00    +0.239 C 
ATOM     26  O   UNL     1       4.779   2.529  -0.920  0.00  0.00    -0.273 OA
ATOM     27  N   UNL     1       5.320   0.480  -0.262  0.00  0.00    -0.309 N 
ATOM     28  H   UNL     1       5.024  -0.392   0.042  0.00  0.00    +0.149 HD
BRANCH  27  29
ATOM     29  C   UNL     1       6.742   0.725  -0.513  0.00  0.00    +0.139 C 
BRANCH  29  30
ATOM     30  C   UNL     1       7.512  -0.559  -0.334  0.00  0.00    -0.030 A 
ATOM     31  C   UNL     1       7.920  -0.950   0.928  0.00  0.00    +0.005 A 
ATOM     32  C   UNL     1       8.625  -2.127   1.093  0.00  0.00    +0.001 A 
ATOM     33  C   UNL     1       8.923  -2.913  -0.005  0.00  0.00    +0.003 A 
ATOM     34  C   UNL     1       8.514  -2.523  -1.266  0.00  0.00    -0.050 A 
ATOM     35  C   UNL     1       7.805  -1.348  -1.430  0.00  0.00    +0.008 A 
ATOM     36  C   UNL     1       8.839  -3.380  -2.462  0.00  0.00    +0.044 C 
ENDBRANCH  29  30
ENDBRANCH  27  29
ENDBRANCH  10  25
TORSDOF 6
