REMARK  Name = ZINC39927134
REMARK  6 active torsions:
REMARK  status: ('A' for Active; 'I' for Inactive)
REMARK    1  A    between atoms: C_1  and  N_2
REMARK    2  A    between atoms: C_3  and  C_5
REMARK    3  A    between atoms: C_14  and  N_16
REMARK    4  A    between atoms: C_17  and  C_19
REMARK    5  A    between atoms: C_22  and  C_24
REMARK    6  A    between atoms: C_29  and  O_30
REMARK                            x       y       z     vdW  Elec       q    Type
REMARK                         _______ _______ _______ _____ _____    ______ ____
ROOT
ATOM      1  N   UNL     1      -1.488  -2.936   0.011  0.00  0.00    -0.294 N 
ATOM      2  C   UNL     1      -2.273  -2.698  -1.058  0.00  0.00    +0.261 C 
ATOM      3  O   UNL     1      -1.772  -2.471  -2.143  0.00  0.00    -0.269 OA
ATOM      4  H   UNL     1      -1.887  -3.116   0.876  0.00  0.00    +0.150 HD
ENDROOT
BRANCH   1  13
ATOM      5  C   UNL     1       0.624  -2.146   0.996  0.00  0.00    +0.045 C 
ATOM      6  C   UNL     1       1.202  -2.809   1.964  0.00  0.00    -0.046 C 
ATOM      7  C   UNL     1       1.994  -2.183   3.113  0.00  0.00    +0.032 C 
ATOM      8  C   UNL     1       2.221  -3.296   4.140  0.00  0.00    +0.004 C 
ATOM      9  C   UNL     1       3.013  -4.457   3.556  0.00  0.00    +0.002 C 
ATOM     10  C   UNL     1       2.591  -4.810   2.133  0.00  0.00    +0.018 C 
ATOM     11  C   UNL     1       1.153  -4.343   1.896  0.00  0.00    +0.075 C 
ATOM     12  S   UNL     1       0.687  -4.602   0.137  0.00  0.00    -0.126 S 
ATOM     13  C   UNL     1      -0.030  -2.921  -0.134  0.00  0.00    +0.167 C 
BRANCH   5  16
ATOM     14  C   UNL     1      -0.018   1.461   0.010  0.00  0.00    +0.128 C 
ATOM     15  N   UNL     1       0.002  -0.004   0.002  0.00  0.00    -0.315 N 
ATOM     16  C   UNL     1       0.604  -0.675   1.004  0.00  0.00    +0.242 C 
ATOM     17  O   UNL     1       1.131  -0.065   1.914  0.00  0.00    -0.270 OA
ATOM     18  H   UNL     1      -0.418  -0.491  -0.724  0.00  0.00    +0.149 HD
ENDBRANCH   5  16
ENDBRANCH   1  13
BRANCH   2  19
ATOM     19  C   UNL     1      -3.732  -2.713  -0.913  0.00  0.00    +0.131 C 
ATOM     20  N   UNL     1      -4.421  -2.932   0.176  0.00  0.00    -0.148 NA
ATOM     21  N   UNL     1      -5.686  -2.886   0.018  0.00  0.00    -0.153 NA
ATOM     22  C   UNL     1      -6.066  -2.625  -1.214  0.00  0.00    +0.080 C 
ATOM     23  C   UNL     1      -4.771  -2.470  -1.995  0.00  0.00    +0.120 C 
BRANCH  22  24
ATOM     24  C   UNL     1      -7.435  -2.505  -1.719  0.00  0.00    +0.041 A 
ATOM     25  C   UNL     1      -7.665  -2.226  -3.074  0.00  0.00    +0.033 A 
ATOM     26  C   UNL     1      -8.956  -2.115  -3.542  0.00  0.00    +0.042 A 
ATOM     27  C   UNL     1     -10.030  -2.277  -2.678  0.00  0.00    +0.023 A 
ATOM     28  C   UNL     1      -9.819  -2.552  -1.341  0.00  0.00    +0.047 A 
ATOM     29  C   UNL     1      -8.528  -2.674  -0.851  0.00  0.00    +0.126 A 
ATOM     30 CL   UNL     1      -9.240  -1.770  -5.219  0.00  0.00    -0.084 Cl
BRANCH  29  31
ATOM     31  O   UNL     1      -8.320  -2.949   0.461  0.00  0.00    -0.506 OA
ATOM     32  H   UNL     1      -8.251  -2.164   1.021  0.00  0.00    +0.292 HD
ENDBRANCH  29  31
ENDBRANCH  22  24
ENDBRANCH   2  19
TORSDOF 5
