REMARK  Name = ZINC59060987
REMARK  10 active torsions:
REMARK  status: ('A' for Active; 'I' for Inactive)
REMARK    1  A    between atoms: C_1  and  C_2
REMARK    2  A    between atoms: C_5  and  C_33
REMARK    3  A    between atoms: N_8  and  C_10
REMARK    4  A    between atoms: C_10  and  C_11
REMARK    5  A    between atoms: C_16  and  C_17
REMARK    6  A    between atoms: C_17  and  N_18
REMARK    7  A    between atoms: C_19  and  C_21
REMARK    8  A    between atoms: C_21  and  C_22
REMARK    9  A    between atoms: C_22  and  C_23
REMARK   10  A    between atoms: C_25  and  C_28
REMARK                            x       y       z     vdW  Elec       q    Type
REMARK                         _______ _______ _______ _____ _____    ______ ____
ROOT
ATOM      1  C   UNL     1       0.437  -1.763   3.434  0.00  0.00    +0.139 C 
ENDROOT
BRANCH   1   7
ATOM      2  C   UNL     1       2.218  -0.014   3.254  0.00  0.00    -0.059 A 
ATOM      3  C   UNL     1       2.810   1.164   3.671  0.00  0.00    +0.002 A 
ATOM      4  C   UNL     1       2.272   1.870   4.730  0.00  0.00    +0.000 A 
ATOM      5  C   UNL     1       1.142   1.399   5.372  0.00  0.00    +0.000 A 
ATOM      6  C   UNL     1       0.550   0.222   4.955  0.00  0.00    +0.005 A 
ATOM      7  C   UNL     1       1.086  -0.483   3.892  0.00  0.00    -0.029 A 
BRANCH   2   8
ATOM      8  C   UNL     1       2.805  -0.784   2.099  0.00  0.00    -0.043 C 
BRANCH   8  14
ATOM      9  C   UNL     1       4.806  -3.211   4.912  0.00  0.00    +0.005 C 
ATOM     10  C   UNL     1       5.654  -2.416   3.918  0.00  0.00    -0.031 C 
ATOM     11  C   UNL     1       6.139  -3.344   2.801  0.00  0.00    +0.003 C 
ATOM     12  C   UNL     1       4.926  -3.880   2.034  0.00  0.00    -0.031 C 
ATOM     13  C   UNL     1       4.109  -2.703   1.496  0.00  0.00    -0.075 C 
ATOM     14  N   UNL     1       3.653  -1.868   2.614  0.00  0.00    +0.383 N 
ATOM     15  C   UNL     1       4.811  -1.292   3.311  0.00  0.00    -0.075 C 
ATOM     16  C   UNL     1       5.402  -4.748   0.867  0.00  0.00    +0.005 C 
ATOM     17  H   UNL     1       3.120  -2.432   3.258  0.00  0.00    -0.081 HD
ENDBRANCH   8  14
ENDBRANCH   2   8
ENDBRANCH   1   7
BRANCH   1  18
ATOM     18  N   UNL     1       1.148  -2.905   4.014  0.00  0.00    -0.311 N 
ATOM     19  C   UNL     1       0.815  -4.160   3.653  0.00  0.00    +0.214 C 
ATOM     20  O   UNL     1      -0.072  -4.344   2.847  0.00  0.00    -0.276 OA
ATOM     21  H   UNL     1       1.858  -2.758   4.659  0.00  0.00    +0.149 HD
BRANCH  19  22
ATOM     22  C   UNL     1       1.546  -5.335   4.250  0.00  0.00    +0.105 C 
BRANCH  22  23
ATOM     23  C   UNL     1       0.979  -6.635   3.675  0.00  0.00    +0.108 C 
BRANCH  23  24
ATOM     24  C   UNL     1       1.710  -7.810   4.272  0.00  0.00    +0.228 A 
ATOM     25  N   UNL     1       1.370  -8.445   5.356  0.00  0.00    -0.189 NA
ATOM     26  C   UNL     1       2.243  -9.442   5.599  0.00  0.00    +0.237 A 
ATOM     27  N   UNL     1       3.153  -9.440   4.654  0.00  0.00    -0.053 NA
ATOM     28  O   UNL     1       2.815  -8.379   3.773  0.00  0.00    -0.338 OA
BRANCH  26  29
ATOM     29  C   UNL     1       2.185 -10.379   6.740  0.00  0.00    +0.175 A 
ATOM     30  C   UNL     1       3.067 -11.383   6.992  0.00  0.00    +0.053 A 
ATOM     31  C   UNL     1       2.632 -12.018   8.172  0.00  0.00    +0.042 A 
ATOM     32  C   UNL     1       1.518 -11.376   8.578  0.00  0.00    +0.196 A 
ATOM     33  O   UNL     1       1.254 -10.384   7.713  0.00  0.00    -0.460 OA
ENDBRANCH  26  29
ENDBRANCH  23  24
ENDBRANCH  22  23
ENDBRANCH  19  22
ENDBRANCH   1  18
TORSDOF 8
