REMARK  Name = ZINC35867441
REMARK  9 active torsions:
REMARK  status: ('A' for Active; 'I' for Inactive)
REMARK    1  A    between atoms: C_1  and  C_2
REMARK    2  A    between atoms: C_11  and  N_18
REMARK    3  A    between atoms: C_13  and  C_15
REMARK    4  A    between atoms: C_15  and  C_16
REMARK    5  A    between atoms: C_15  and  C_17
REMARK    6  A    between atoms: N_26  and  C_27
REMARK    7  A    between atoms: C_30  and  C_33
REMARK    8  A    between atoms: C_33  and  C_34
REMARK    9  A    between atoms: C_33  and  C_35
REMARK                            x       y       z     vdW  Elec       q    Type
REMARK                         _______ _______ _______ _____ _____    ______ ____
ROOT
ATOM      1  N   UNL     1       1.481  -4.508  -2.371  0.00  0.00    -0.312 N 
ATOM      2  C   UNL     1       1.366  -3.083  -2.711  0.00  0.00    +0.125 C 
ATOM      3  C   UNL     1       2.228  -2.803  -3.948  0.00  0.00    +0.128 C 
ATOM      4  N   UNL     1       1.912  -3.804  -4.977  0.00  0.00    -0.282 N 
ATOM      5  C   UNL     1       2.027  -5.229  -4.637  0.00  0.00    +0.128 C 
ATOM      6  C   UNL     1       1.171  -5.509  -3.401  0.00  0.00    +0.125 C 
ATOM      7  C   UNL     1       1.523  -3.422  -6.209  0.00  0.00    +0.307 C 
ATOM      8  O   UNL     1       1.550  -2.246  -6.518  0.00  0.00    -0.252 OA
ATOM      9  N   UNL     1       1.105  -4.343  -7.100  0.00  0.00    -0.269 N 
ATOM     10  H   UNL     1       0.973  -5.262  -6.821  0.00  0.00    +0.156 HD
ENDROOT
BRANCH   1  20
ATOM     11  C   UNL     1      -4.762  -6.136  -0.446  0.00  0.00    +0.008 C 
ATOM     12  C   UNL     1      -3.237  -6.210  -0.532  0.00  0.00    -0.009 C 
ATOM     13  C   UNL     1      -2.704  -4.979  -1.271  0.00  0.00    +0.008 C 
ATOM     14  C   UNL     1      -1.218  -5.162  -1.579  0.00  0.00    +0.037 C 
ATOM     15  C   UNL     1      -0.485  -5.519  -0.288  0.00  0.00    -0.025 A 
ATOM     16  C   UNL     1      -1.166  -5.991   0.780  0.00  0.00    -0.004 A 
ATOM     17  S   UNL     1       0.062  -6.265   2.033  0.00  0.00    -0.073 S 
ATOM     18  C   UNL     1       1.484  -5.747   1.128  0.00  0.00    +0.114 A 
ATOM     19  C   UNL     1       0.953  -5.374  -0.133  0.00  0.00    +0.051 A 
ATOM     20  C   UNL     1       1.880  -4.900  -1.106  0.00  0.00    +0.133 A 
ATOM     21  N   UNL     1       3.154  -4.859  -0.722  0.00  0.00    -0.216 NA
ATOM     22  C   UNL     1       3.575  -5.224   0.473  0.00  0.00    +0.135 A 
ATOM     23  N   UNL     1       2.766  -5.673   1.425  0.00  0.00    -0.224 NA
ATOM     24  C   UNL     1      -2.641  -6.235   0.882  0.00  0.00    +0.046 C 
BRANCH  22  25
ATOM     25  C   UNL     1       5.049  -5.126   0.773  0.00  0.00    +0.051 C 
ATOM     26  C   UNL     1       5.266  -4.177   1.954  0.00  0.00    +0.015 C 
ATOM     27  C   UNL     1       5.590  -6.512   1.127  0.00  0.00    +0.015 C 
ENDBRANCH  22  25
ENDBRANCH   1  20
BRANCH   9  28
ATOM     28  C   UNL     1       0.862  -3.973  -8.428  0.00  0.00    +0.035 A 
ATOM     29  C   UNL     1       0.526  -2.661  -8.734  0.00  0.00    +0.023 A 
ATOM     30  C   UNL     1       0.287  -2.299 -10.045  0.00  0.00    +0.006 A 
ATOM     31  C   UNL     1       0.383  -3.241 -11.052  0.00  0.00    -0.045 A 
ATOM     32  C   UNL     1       0.717  -4.548 -10.751  0.00  0.00    +0.006 A 
ATOM     33  C   UNL     1       0.962  -4.916  -9.442  0.00  0.00    +0.023 A 
BRANCH  31  34
ATOM     34  C   UNL     1       0.121  -2.842 -12.482  0.00  0.00    +0.013 C 
ATOM     35  C   UNL     1       1.372  -3.108 -13.322  0.00  0.00    +0.012 C 
ATOM     36  C   UNL     1      -1.047  -3.661 -13.034  0.00  0.00    +0.012 C 
ENDBRANCH  31  34
ENDBRANCH   9  28
TORSDOF 4
