REMARK  Name = ZINC39696276
REMARK  12 active torsions:
REMARK  status: ('A' for Active; 'I' for Inactive)
REMARK    1  A    between atoms: C_1  and  C_2
REMARK    2  A    between atoms: C_2  and  C_3
REMARK    3  A    between atoms: C_6  and  C_9
REMARK    4  A    between atoms: C_9  and  C_11
REMARK    5  A    between atoms: C_9  and  N_12
REMARK    6  A    between atoms: C_13  and  C_15
REMARK    7  A    between atoms: C_26  and  C_28
REMARK    8  A    between atoms: C_28  and  C_30
REMARK    9  A    between atoms: C_28  and  O_33
REMARK   10  A    between atoms: C_30  and  C_31
REMARK   11  A    between atoms: C_30  and  C_32
REMARK   12  A    between atoms: O_33  and  C_34
REMARK                            x       y       z     vdW  Elec       q    Type
REMARK                         _______ _______ _______ _____ _____    ______ ____
ROOT
ATOM      1  C   UNL     1      -7.367  -5.408  -1.919  0.00  0.00    +0.100 C 
ATOM      2  C   UNL     1      -5.932  -5.939  -2.136  0.00  0.00    +0.121 C 
ATOM      3  N   UNL     1      -5.873  -7.191  -1.346  0.00  0.00    -0.297 N 
ATOM      4  C   UNL     1      -7.198  -7.824  -1.558  0.00  0.00    +0.115 C 
ATOM      5  C   UNL     1      -8.195  -6.648  -1.544  0.00  0.00    -0.004 C 
ATOM      6  C   UNL     1      -9.298  -6.879  -2.573  0.00  0.00    -0.010 C 
ATOM      7  C   UNL     1     -10.143  -8.082  -2.147  0.00  0.00    -0.082 C 
ATOM      8  N   UNL     1     -10.726  -7.829  -0.823  0.00  0.00    +0.379 N 
ATOM      9  C   UNL     1      -9.660  -7.701   0.177  0.00  0.00    -0.082 C 
ATOM     10  C   UNL     1      -8.794  -6.482  -0.150  0.00  0.00    -0.010 C 
ATOM     11  C   UNL     1      -4.848  -7.652  -0.603  0.00  0.00    +0.257 C 
ATOM     12  O   UNL     1      -3.853  -6.973  -0.455  0.00  0.00    -0.272 OA
ATOM     13  H   UNL     1     -11.264  -6.976  -0.851  0.00  0.00    -0.086 HD
ATOM     14  H   UNL     1     -11.331  -8.597  -0.572  0.00  0.00    -0.086 HD
ENDROOT
BRANCH   1  16
ATOM     15  N   UNL     1      -8.305  -3.412  -0.799  0.00  0.00    -0.308 N 
ATOM     16  C   UNL     1      -7.390  -4.402  -0.797  0.00  0.00    +0.219 C 
ATOM     17  O   UNL     1      -6.586  -4.484   0.107  0.00  0.00    -0.275 OA
ATOM     18  H   UNL     1      -8.948  -3.347  -1.522  0.00  0.00    +0.149 HD
BRANCH  15  19
ATOM     19  C   UNL     1      -8.327  -2.434   0.292  0.00  0.00    +0.100 C 
ATOM     20  C   UNL     1      -9.146  -2.990   1.458  0.00  0.00    +0.033 C 
BRANCH  19  24
ATOM     21  C   UNL     1     -10.099   1.199  -1.091  0.00  0.00    -0.048 A 
ATOM     22  C   UNL     1      -9.000   1.240  -0.253  0.00  0.00    +0.004 A 
ATOM     23  C   UNL     1      -8.427   0.065   0.195  0.00  0.00    +0.006 A 
ATOM     24  C   UNL     1      -8.953  -1.153  -0.195  0.00  0.00    -0.027 A 
ATOM     25  C   UNL     1     -10.052  -1.194  -1.032  0.00  0.00    +0.006 A 
ATOM     26  C   UNL     1     -10.628  -0.019  -1.477  0.00  0.00    +0.004 A 
BRANCH  21  28
ATOM     27  C   UNL     1     -11.806   2.927  -0.594  0.00  0.00    +0.009 C 
ATOM     28  C   UNL     1     -10.724   2.480  -1.579  0.00  0.00    +0.032 C 
ENDBRANCH  21  28
ENDBRANCH  19  24
ENDBRANCH  15  19
ENDBRANCH   1  16
BRANCH  11  29
ATOM     29  C   UNL     1      -4.937  -9.009   0.045  0.00  0.00    +0.261 C 
BRANCH  29  30
ATOM     30  C   UNL     1      -4.984 -10.089  -1.037  0.00  0.00    +0.033 C 
ATOM     31  C   UNL     1      -3.671 -10.081  -1.823  0.00  0.00    +0.011 C 
ATOM     32  C   UNL     1      -5.178 -11.459  -0.384  0.00  0.00    +0.011 C 
ENDBRANCH  29  30
BRANCH  29  33
ATOM     33  O   UNL     1      -3.792  -9.217   0.875  0.00  0.00    -0.479 OA
BRANCH  33  34
ATOM     34  C   UNL     1      -3.984  -9.908   2.030  0.00  0.00    +0.122 A 
ATOM     35  C   UNL     1      -2.918 -10.136   2.888  0.00  0.00    +0.045 A 
ATOM     36  C   UNL     1      -3.116 -10.839   4.061  0.00  0.00    +0.004 A 
ATOM     37  C   UNL     1      -4.375 -11.314   4.380  0.00  0.00    +0.000 A 
ATOM     38  C   UNL     1      -5.439 -11.087   3.526  0.00  0.00    +0.004 A 
ATOM     39  C   UNL     1      -5.247 -10.380   2.355  0.00  0.00    +0.045 A 
ENDBRANCH  33  34
ENDBRANCH  29  33
ENDBRANCH  11  29
TORSDOF 8
