REMARK  Name = ZINC36348483
REMARK  5 active torsions:
REMARK  status: ('A' for Active; 'I' for Inactive)
REMARK    1  A    between atoms: C_4  and  N_29
REMARK    2  A    between atoms: C_5  and  C_7
REMARK    3  A    between atoms: C_7  and  N_8
REMARK    4  A    between atoms: C_17  and  C_19
REMARK    5  A    between atoms: C_24  and  C_25
REMARK                            x       y       z     vdW  Elec       q    Type
REMARK                         _______ _______ _______ _____ _____    ______ ____
ROOT
ATOM      1  N   UNL     1       1.126  -2.760   1.608  0.00  0.00    -0.286 NA
ATOM      2  C   UNL     1       2.326  -2.230   2.258  0.00  0.00    +0.087 C 
ATOM      3  C   UNL     1       2.454  -2.756   3.683  0.00  0.00    +0.037 C 
ATOM      4  C   UNL     1       1.063  -2.932   4.297  0.00  0.00    +0.123 C 
ATOM      5  N   UNL     1       0.555  -4.270   3.971  0.00  0.00    -0.349 N 
ATOM      6  C   UNL     1      -0.029  -5.141   4.841  0.00  0.00    +0.086 A 
ATOM      7  C   UNL     1      -0.384  -6.248   4.156  0.00  0.00    +0.019 A 
ATOM      8  C   UNL     1       0.002  -6.056   2.814  0.00  0.00    +0.024 A 
ATOM      9  C   UNL     1       0.584  -4.843   2.732  0.00  0.00    +0.040 A 
ATOM     10  C   UNL     1       1.183  -4.224   1.494  0.00  0.00    +0.135 C 
ENDROOT
BRANCH  10  11
ATOM     11  C   UNL     1       0.403  -4.665   0.282  0.00  0.00    -0.013 A 
ATOM     12  C   UNL     1      -0.936  -4.339   0.166  0.00  0.00    +0.006 A 
ATOM     13  C   UNL     1      -1.651  -4.744  -0.946  0.00  0.00    +0.000 A 
ATOM     14  C   UNL     1      -1.029  -5.474  -1.940  0.00  0.00    +0.001 A 
ATOM     15  C   UNL     1       0.309  -5.800  -1.825  0.00  0.00    +0.013 A 
ATOM     16  C   UNL     1       1.026  -5.391  -0.715  0.00  0.00    +0.060 A 
BRANCH  16  17
ATOM     17  C   UNL     1       2.487  -5.742  -0.591  0.00  0.00    +0.418 C 
ATOM     18  F   UNL     1       2.900  -6.433  -1.735  0.00  0.00    -0.166 F 
ATOM     19  F   UNL     1       3.238  -4.569  -0.459  0.00  0.00    -0.166 F 
ATOM     20  F   UNL     1       2.679  -6.548   0.536  0.00  0.00    -0.166 F 
ENDBRANCH  16  17
ENDBRANCH  10  11
BRANCH   1  21
ATOM     21  C   UNL     1       0.920  -2.137   0.294  0.00  0.00    +0.122 C 
BRANCH  21  26
ATOM     22  C   UNL     1      -0.116   1.112   1.913  0.00  0.00    +0.000 A 
ATOM     23  C   UNL     1      -0.209   1.949   0.816  0.00  0.00    +0.002 A 
ATOM     24  C   UNL     1       0.062   1.464  -0.449  0.00  0.00    +0.033 A 
ATOM     25  C   UNL     1       0.428   0.141  -0.618  0.00  0.00    +0.131 A 
ATOM     26  C   UNL     1       0.522  -0.695   0.478  0.00  0.00    -0.003 A 
ATOM     27  C   UNL     1       0.249  -0.210   1.744  0.00  0.00    +0.007 A 
BRANCH  25  28
ATOM     28  N   UNL     1       0.718  -0.379  -1.973  0.00  0.00    +0.057 N 
ATOM     29  O   UNL     1       0.541   0.323  -2.941  0.00  0.00    -0.126 OA
ATOM     30  O   UNL     1       1.132  -1.506  -2.112  0.00  0.00    -0.126 OA
ENDBRANCH  25  28
ENDBRANCH  21  26
ENDBRANCH   1  21
TORSDOF 5
