REMARK  Name = ZINC34787867
REMARK  6 active torsions:
REMARK  status: ('A' for Active; 'I' for Inactive)
REMARK    1  A    between atoms: C_1  and  C_2
REMARK    2  A    between atoms: C_7  and  C_8
REMARK    3  A    between atoms: N_17  and  C_18
REMARK    4  A    between atoms: C_18  and  C_19
REMARK    5  A    between atoms: C_27  and  C_29
REMARK    6  A    between atoms: C_32  and  C_34
REMARK                            x       y       z     vdW  Elec       q    Type
REMARK                         _______ _______ _______ _____ _____    ______ ____
ROOT
ATOM      1  C   UNL     1      -1.577  -2.406   4.623  0.00  0.00    +0.199 C 
ATOM      2  O   UNL     1      -0.664  -2.703   5.365  0.00  0.00    -0.278 OA
ATOM      3  N   UNL     1      -2.777  -3.005   4.759  0.00  0.00    -0.300 N 
ATOM      4  C   UNL     1      -3.890  -2.659   3.864  0.00  0.00    +0.126 C 
ATOM      5  C   UNL     1      -4.405  -3.944   3.203  0.00  0.00    +0.126 C 
ATOM      6  N   UNL     1      -4.623  -4.954   4.248  0.00  0.00    -0.298 N 
ATOM      7  C   UNL     1      -3.510  -5.300   5.143  0.00  0.00    +0.126 C 
ATOM      8  C   UNL     1      -2.994  -4.019   5.800  0.00  0.00    +0.126 C 
ATOM      9  C   UNL     1      -5.823  -5.553   4.383  0.00  0.00    +0.219 C 
ATOM     10  O   UNL     1      -6.735  -5.259   3.639  0.00  0.00    -0.275 OA
ENDROOT
BRANCH   9  11
ATOM     11  C   UNL     1      -6.032  -6.587   5.460  0.00  0.00    +0.083 C 
ATOM     12  C   UNL     1      -6.234  -8.037   5.016  0.00  0.00    +0.022 C 
ATOM     13  C   UNL     1      -7.417  -7.231   5.561  0.00  0.00    +0.032 C 
BRANCH  13  14
ATOM     14  C   UNL     1      -7.922  -7.581   6.936  0.00  0.00    -0.044 A 
ATOM     15  C   UNL     1      -7.214  -8.465   7.729  0.00  0.00    +0.004 A 
ATOM     16  C   UNL     1      -7.678  -8.786   8.991  0.00  0.00    +0.000 A 
ATOM     17  C   UNL     1      -8.850  -8.223   9.460  0.00  0.00    +0.000 A 
ATOM     18  C   UNL     1      -9.558  -7.339   8.668  0.00  0.00    +0.000 A 
ATOM     19  C   UNL     1      -9.091  -7.014   7.408  0.00  0.00    +0.004 A 
ENDBRANCH  13  14
ENDBRANCH   9  11
BRANCH   1  20
ATOM     20  C   UNL     1      -1.369  -1.368   3.551  0.00  0.00    +0.020 C 
BRANCH  20  29
ATOM     21  C   UNL     1       0.243   0.050   2.492  0.00  0.00    -0.005 C 
ATOM     22  C   UNL     1       1.644   0.640   2.620  0.00  0.00    -0.047 A 
ATOM     23  C   UNL     1       2.341   1.229   1.568  0.00  0.00    +0.010 A 
ATOM     24  C   UNL     1       3.583   1.725   1.772  0.00  0.00    +0.045 A 
ATOM     25  S   UNL     1       3.839   1.376   3.506  0.00  0.00    -0.101 S 
ATOM     26  C   UNL     1       2.280   0.602   3.825  0.00  0.00    -0.010 A 
ATOM     27  C   UNL     1       1.740   0.030   5.095  0.00  0.00    +0.024 C 
ATOM     28  C   UNL     1       0.230  -0.194   4.897  0.00  0.00    -0.072 C 
ATOM     29  N   UNL     1       0.012  -0.871   3.611  0.00  0.00    +0.393 N 
ATOM     30  H   UNL     1       0.648  -1.651   3.536  0.00  0.00    -0.080 HD
BRANCH  21  37
ATOM     31  C   UNL     1      -0.648   1.422   0.111  0.00  0.00    +0.044 C 
ATOM     32  C   UNL     1      -0.299  -0.043   0.050  0.00  0.00    -0.049 A 
ATOM     33  C   UNL     1      -0.400  -0.728  -1.146  0.00  0.00    +0.003 A 
ATOM     34  C   UNL     1      -0.080  -2.072  -1.202  0.00  0.00    +0.000 A 
ATOM     35  C   UNL     1       0.341  -2.730  -0.061  0.00  0.00    +0.000 A 
ATOM     36  C   UNL     1       0.443  -2.044   1.134  0.00  0.00    +0.002 A 
ATOM     37  C   UNL     1       0.127  -0.699   1.189  0.00  0.00    -0.054 A 
ENDBRANCH  21  37
ENDBRANCH  20  29
ENDBRANCH   1  20
TORSDOF 5
