REMARK  Name = ZINC04387598
REMARK  3 active torsions:
REMARK  status: ('A' for Active; 'I' for Inactive)
REMARK    1  A    between atoms: C_13  and  N_17
REMARK    2  A    between atoms: C_18  and  C_20
REMARK    3  A    between atoms: C_20  and  N_21
REMARK                            x       y       z     vdW  Elec       q    Type
REMARK                         _______ _______ _______ _____ _____    ______ ____
ROOT
ATOM      1  C   UNL     1       3.758  -4.930  -0.036  0.00  0.00    +0.001 A 
ATOM      2  C   UNL     1       4.945  -4.220  -0.033  0.00  0.00    +0.001 A 
ATOM      3  C   UNL     1       4.934  -2.836  -0.029  0.00  0.00    +0.012 A 
ATOM      4  C   UNL     1       3.722  -2.152  -0.029  0.00  0.00    +0.033 A 
ATOM      5  C   UNL     1       2.515  -2.873  -0.032  0.00  0.00    +0.033 A 
ATOM      6  C   UNL     1       2.544  -4.265  -0.035  0.00  0.00    +0.012 A 
ATOM      7  C   UNL     1       1.224  -2.154  -0.032  0.00  0.00    +0.195 C 
ATOM      8  O   UNL     1       0.181  -2.777  -0.034  0.00  0.00    -0.287 OA
ATOM      9  C   UNL     1       1.205  -0.677  -0.029  0.00  0.00    +0.035 A 
ATOM     10  C   UNL     1      -0.006   0.009  -0.029  0.00  0.00    +0.012 A 
ATOM     11  C   UNL     1      -0.020   1.395  -0.027  0.00  0.00    +0.003 A 
ATOM     12  C   UNL     1       1.161   2.108  -0.024  0.00  0.00    +0.024 A 
ATOM     13  C   UNL     1       2.385   1.443  -0.023  0.00  0.00    +0.045 A 
ATOM     14  C   UNL     1       2.414   0.043  -0.026  0.00  0.00    +0.054 A 
ATOM     15  C   UNL     1       3.701  -0.674  -0.025  0.00  0.00    +0.196 C 
ATOM     16  O   UNL     1       4.745  -0.051  -0.023  0.00  0.00    -0.287 OA
ENDROOT
BRANCH  13  17
ATOM     17  N   UNL     1       3.574   2.166  -0.020  0.00  0.00    -0.284 N 
ATOM     18  C   UNL     1       3.599   3.417   0.480  0.00  0.00    +0.235 C 
ATOM     19  O   UNL     1       2.614   3.876   1.018  0.00  0.00    -0.274 OA
ATOM     20  H   UNL     1       4.383   1.770  -0.378  0.00  0.00    +0.155 HD
BRANCH  18  21
ATOM     21  C   UNL     1       4.853   4.246   0.371  0.00  0.00    +0.212 C 
BRANCH  21  22
ATOM     22  N   UNL     1       4.626   5.557   0.986  0.00  0.00    -0.233 N 
ATOM     23  C   UNL     1       4.167   6.610   0.298  0.00  0.00    +0.223 C 
ATOM     24  O   UNL     1       3.890   6.611  -0.882  0.00  0.00    -0.275 OA
ATOM     25  C   UNL     1       4.045   7.797   1.228  0.00  0.00    +0.105 C 
ATOM     26  C   UNL     1       4.529   7.245   2.584  0.00  0.00    +0.105 C 
ATOM     27  C   UNL     1       4.867   5.802   2.280  0.00  0.00    +0.223 C 
ATOM     28  O   UNL     1       5.289   4.995   3.080  0.00  0.00    -0.275 OA
ENDBRANCH  21  22
ENDBRANCH  18  21
ENDBRANCH  13  17
TORSDOF 3
