REMARK  Name = ZINC17046669
REMARK  8 active torsions:
REMARK  status: ('A' for Active; 'I' for Inactive)
REMARK    1  A    between atoms: C_1  and  C_2
REMARK    2  A    between atoms: C_5  and  S_8
REMARK    3  A    between atoms: S_8  and  N_11
REMARK    4  A    between atoms: N_11  and  N_12
REMARK    5  A    between atoms: N_18  and  N_19
REMARK    6  A    between atoms: N_19  and  S_20
REMARK    7  A    between atoms: S_20  and  C_23
REMARK    8  A    between atoms: C_26  and  C_29
REMARK                            x       y       z     vdW  Elec       q    Type
REMARK                         _______ _______ _______ _____ _____    ______ ____
ROOT
ATOM      1  N   UNL     1      -0.017   1.397   0.010  0.00  0.00    -0.171 NA
ATOM      2  C   UNL     1       1.104   2.064   0.003  0.00  0.00    +0.065 C 
ATOM      3  C   UNL     1       2.503   1.487  -0.008  0.00  0.00    +0.092 C 
ATOM      4  C   UNL     1       3.405   2.709  -0.016  0.00  0.00    -0.036 C 
ATOM      5  C   UNL     1       4.708   3.072  -0.027  0.00  0.00    +0.029 C 
ATOM      6  C   UNL     1       4.856   4.475  -0.020  0.00  0.00    +0.065 C 
ATOM      7  N   UNL     1       5.977   5.142  -0.027  0.00  0.00    -0.171 NA
ATOM      8  C   UNL     1       3.457   5.052  -0.003  0.00  0.00    +0.092 C 
ATOM      9  C   UNL     1       2.555   3.830  -0.001  0.00  0.00    -0.036 C 
ATOM     10  C   UNL     1       1.252   3.467   0.009  0.00  0.00    +0.029 C 
ENDROOT
BRANCH   1  11
ATOM     11  N   UNL     1       0.002  -0.004   0.002  0.00  0.00    -0.136 N 
ATOM     12  H   UNL     1       0.849  -0.478  -0.009  0.00  0.00    +0.197 HD
BRANCH  11  13
ATOM     13  S   UNL     1      -1.421  -0.852   0.011  0.00  0.00    +0.086 S 
ATOM     14  O   UNL     1      -1.078  -2.222  -0.145  0.00  0.00    -0.149 OA
ATOM     15  O   UNL     1      -2.170  -0.375   1.121  0.00  0.00    -0.149 OA
BRANCH  13  20
ATOM     16  C   UNL     1      -4.476   0.738  -4.943  0.00  0.00    +0.044 C 
ATOM     17  C   UNL     1      -3.713   0.341  -3.706  0.00  0.00    -0.050 A 
ATOM     18  C   UNL     1      -2.838  -0.728  -3.747  0.00  0.00    +0.005 A 
ATOM     19  C   UNL     1      -2.138  -1.093  -2.612  0.00  0.00    +0.029 A 
ATOM     20  C   UNL     1      -2.313  -0.387  -1.436  0.00  0.00    +0.110 A 
ATOM     21  C   UNL     1      -3.192   0.679  -1.393  0.00  0.00    +0.029 A 
ATOM     22  C   UNL     1      -3.888   1.046  -2.530  0.00  0.00    +0.005 A 
ENDBRANCH  13  20
ENDBRANCH  11  13
ENDBRANCH   1  11
BRANCH   7  23
ATOM     23  N   UNL     1       7.199   4.458  -0.043  0.00  0.00    -0.136 N 
ATOM     24  H   UNL     1       7.213   3.489  -0.049  0.00  0.00    +0.197 HD
BRANCH  23  25
ATOM     25  S   UNL     1       8.622   5.306  -0.051  0.00  0.00    +0.086 S 
ATOM     26  O   UNL     1       9.665   4.350   0.078  0.00  0.00    -0.149 OA
ATOM     27  O   UNL     1       8.550   6.210  -1.145  0.00  0.00    -0.149 OA
BRANCH  25  28
ATOM     28  C   UNL     1       8.653   6.287   1.412  0.00  0.00    +0.110 A 
ATOM     29  C   UNL     1       8.134   7.568   1.397  0.00  0.00    +0.029 A 
ATOM     30  C   UNL     1       8.155   8.336   2.546  0.00  0.00    +0.005 A 
ATOM     31  C   UNL     1       8.702   7.826   3.708  0.00  0.00    -0.050 A 
ATOM     32  C   UNL     1       9.226   6.546   3.722  0.00  0.00    +0.005 A 
ATOM     33  C   UNL     1       9.202   5.777   2.574  0.00  0.00    +0.029 A 
ATOM     34  C   UNL     1       8.728   8.664   4.960  0.00  0.00    +0.044 C 
ENDBRANCH  25  28
ENDBRANCH  23  25
ENDBRANCH   7  23
TORSDOF 6
