REMARK  Name = ZINC02187943
REMARK  11 active torsions:
REMARK  status: ('A' for Active; 'I' for Inactive)
REMARK    1  A    between atoms: C_1  and  C_2
REMARK    2  A    between atoms: C_2  and  O_3
REMARK    3  A    between atoms: O_3  and  C_4
REMARK    4  A    between atoms: C_4  and  C_6
REMARK    5  A    between atoms: C_6  and  C_7
REMARK    6  A    between atoms: C_6  and  N_11
REMARK    7  A    between atoms: C_6  and  N_22
REMARK    8  A    between atoms: N_11  and  C_12
REMARK    9  A    between atoms: C_15  and  S_18
REMARK   10  A    between atoms: S_18  and  N_21
REMARK   11  A    between atoms: C_23  and  C_25
REMARK                            x       y       z     vdW  Elec       q    Type
REMARK                         _______ _______ _______ _____ _____    ______ ____
ROOT
ATOM      1  C   UNL     1       6.151  -0.677  -0.030  0.00  0.00    +0.295 C 
ENDROOT
BRANCH   1   2
ATOM      2  C   UNL     1       6.879  -1.230  -1.258  0.00  0.00    +0.438 C 
ATOM      3  F   UNL     1       6.788  -0.309  -2.307  0.00  0.00    -0.166 F 
ATOM      4  F   UNL     1       8.225  -1.447  -0.943  0.00  0.00    -0.166 F 
ATOM      5  F   UNL     1       6.290  -2.438  -1.645  0.00  0.00    -0.166 F 
ENDBRANCH   1   2
BRANCH   1   6
ATOM      6  N   UNL     1       4.776  -0.329  -0.394  0.00  0.00    -0.274 N 
ATOM      7  C   UNL     1       3.898  -1.299  -0.718  0.00  0.00    +0.246 C 
ATOM      8  O   UNL     1       4.270  -2.454  -0.797  0.00  0.00    -0.270 OA
ATOM      9  H   UNL     1       4.496   0.600  -0.402  0.00  0.00    +0.152 HD
BRANCH   7  10
ATOM     10  C   UNL     1       2.482  -0.960  -0.977  0.00  0.00    +0.037 A 
ATOM     11  C   UNL     1       1.571  -1.962  -1.313  0.00  0.00    +0.013 A 
ATOM     12  C   UNL     1       0.252  -1.638  -1.552  0.00  0.00    +0.001 A 
ATOM     13  C   UNL     1      -0.169  -0.323  -1.461  0.00  0.00    +0.000 A 
ATOM     14  C   UNL     1       0.730   0.675  -1.129  0.00  0.00    +0.001 A 
ATOM     15  C   UNL     1       2.052   0.365  -0.886  0.00  0.00    +0.013 A 
ENDBRANCH   7  10
ENDBRANCH   1   6
BRANCH   1  16
ATOM     16  C   UNL     1       6.134  -1.722   1.056  0.00  0.00    +0.359 C 
ATOM     17  O   UNL     1       5.084  -2.076   1.537  0.00  0.00    -0.246 OA
BRANCH  16  18
ATOM     18  O   UNL     1       7.286  -2.258   1.489  0.00  0.00    -0.462 OA
BRANCH  18  20
ATOM     19  C   UNL     1       8.598  -3.750   2.897  0.00  0.00    +0.048 C 
ATOM     20  C   UNL     1       7.194  -3.258   2.538  0.00  0.00    +0.229 C 
ENDBRANCH  18  20
ENDBRANCH  16  18
ENDBRANCH   1  16
BRANCH   1  21
ATOM     21  N   UNL     1       6.846   0.518   0.452  0.00  0.00    -0.307 N 
ATOM     22  H   UNL     1       7.734   0.729   0.124  0.00  0.00    +0.149 HD
BRANCH  21  23
ATOM     23  C   UNL     1       6.230   1.355   1.386  0.00  0.00    +0.029 A 
ATOM     24  C   UNL     1       5.020   0.986   1.960  0.00  0.00    +0.025 A 
ATOM     25  C   UNL     1       4.416   1.814   2.886  0.00  0.00    +0.030 A 
ATOM     26  C   UNL     1       5.009   3.014   3.233  0.00  0.00    +0.105 A 
ATOM     27  C   UNL     1       6.211   3.387   2.660  0.00  0.00    +0.030 A 
ATOM     28  C   UNL     1       6.823   2.561   1.737  0.00  0.00    +0.025 A 
BRANCH  26  29
ATOM     29  S   UNL     1       4.232   4.069   4.411  0.00  0.00    +0.056 S 
ATOM     30  O   UNL     1       3.392   3.243   5.206  0.00  0.00    -0.153 OA
ATOM     31  O   UNL     1       5.257   4.877   4.971  0.00  0.00    -0.153 OA
BRANCH  29  32
ATOM     32  N   UNL     1       3.233   5.089   3.570  0.00  0.00    -0.204 NA
ATOM     33  H   UNL     1       2.426   5.429   3.986  0.00  0.00    +0.144 HD
ATOM     34  H   UNL     1       3.455   5.345   2.661  0.00  0.00    +0.144 HD
ENDBRANCH  29  32
ENDBRANCH  26  29
ENDBRANCH  21  23
ENDBRANCH   1  21
TORSDOF 10
