REMARK  Name = ZINC00517648
REMARK  8 active torsions:
REMARK  status: ('A' for Active; 'I' for Inactive)
REMARK    1  A    between atoms: C_1  and  C_2
REMARK    2  A    between atoms: C_2  and  C_3
REMARK    3  A    between atoms: C_2  and  C_4
REMARK    4  A    between atoms: C_6  and  C_19
REMARK    5  A    between atoms: C_6  and  C_20
REMARK    6  A    between atoms: C_7  and  N_14
REMARK    7  A    between atoms: N_9  and  C_13
REMARK    8  A    between atoms: N_17  and  C_18
REMARK                            x       y       z     vdW  Elec       q    Type
REMARK                         _______ _______ _______ _____ _____    ______ ____
ROOT
ATOM      1  C   UNL     1      -0.020  -0.010  -0.687  0.00  0.00    +0.086 C 
ATOM      2  C   UNL     1       1.351   0.675  -0.702  0.00  0.00    +0.019 C 
ATOM      3  C   UNL     1       1.966   0.503  -2.095  0.00  0.00    +0.173 C 
ATOM      4  N   UNL     1       1.036   1.021  -3.099  0.00  0.00    -0.270 N 
ATOM      5  C   UNL     1      -0.289   1.008  -2.895  0.00  0.00    +0.304 C 
ATOM      6  O   UNL     1      -1.018   1.442  -3.765  0.00  0.00    -0.253 OA
ATOM      7  N   UNL     1      -0.842   0.536  -1.768  0.00  0.00    -0.295 N 
ATOM      8  C   UNL     1       1.564   1.566  -4.352  0.00  0.00    +0.135 C 
ATOM      9  C   UNL     1       1.184   2.164  -0.395  0.00  0.00    +0.016 C 
ATOM     10  C   UNL     1       2.260   0.029   0.345  0.00  0.00    +0.016 C 
ATOM     11  H   UNL     1      -1.807   0.557  -1.667  0.00  0.00    +0.151 HD
ENDROOT
BRANCH   3  12
ATOM     12  N   UNL     1       2.217  -0.919  -2.347  0.00  0.00    -0.280 N 
ATOM     13  C   UNL     1       3.389  -1.312  -2.883  0.00  0.00    +0.301 C 
ATOM     14  O   UNL     1       4.239  -0.487  -3.158  0.00  0.00    -0.253 OA
ATOM     15  N   UNL     1       3.619  -2.619  -3.115  0.00  0.00    -0.302 N 
ATOM     16  C   UNL     1       4.893  -3.046  -3.699  0.00  0.00    +0.129 C 
ATOM     17  H   UNL     1       1.539  -1.577  -2.128  0.00  0.00    +0.152 HD
ATOM     18  H   UNL     1       2.941  -3.277  -2.896  0.00  0.00    +0.150 HD
ENDBRANCH   3  12
BRANCH   1  20
ATOM     19  C   UNL     1      -2.141  -0.280   0.607  0.00  0.00    +0.009 C 
ATOM     20  C   UNL     1      -0.705   0.245   0.657  0.00  0.00    +0.004 C 
ATOM     21  C   UNL     1       0.064  -0.478   1.766  0.00  0.00    +0.009 C 
ENDBRANCH   1  20
TORSDOF 2
