REMARK  Name = ZINC43525882
REMARK  7 active torsions:
REMARK  status: ('A' for Active; 'I' for Inactive)
REMARK    1  A    between atoms: C_1  and  N_2
REMARK    2  A    between atoms: C_3  and  C_13
REMARK    3  A    between atoms: C_5  and  C_7
REMARK    4  A    between atoms: C_22  and  C_24
REMARK    5  A    between atoms: C_24  and  N_25
REMARK    6  A    between atoms: N_25  and  S_26
REMARK    7  A    between atoms: S_26  and  C_29
REMARK                            x       y       z     vdW  Elec       q    Type
REMARK                         _______ _______ _______ _____ _____    ______ ____
ROOT
ATOM      1  C   UNL     1      -0.005  -0.323  -2.526  0.00  0.00    +0.024 C 
ATOM      2  C   UNL     1       1.432  -0.149  -3.022  0.00  0.00    -0.068 C 
ATOM      3  N   UNL     1       1.676  -1.028  -4.168  0.00  0.00    +0.383 N 
ATOM      4  C   UNL     1       1.511  -2.433  -3.785  0.00  0.00    -0.078 C 
ATOM      5  C   UNL     1       0.076  -2.682  -3.314  0.00  0.00    -0.015 C 
ATOM      6  C   UNL     1      -0.712  -1.365  -3.402  0.00  0.00    -0.007 C 
ATOM      7  C   UNL     1      -0.677  -0.878  -4.856  0.00  0.00    -0.010 C 
ATOM      8  C   UNL     1       0.784  -0.688  -5.278  0.00  0.00    -0.053 C 
ATOM      9  H   UNL     1       2.629  -0.898  -4.472  0.00  0.00    -0.081 HD
ENDROOT
BRANCH   1  12
ATOM     10  C   UNL     1      -2.056   0.405  -0.317  0.00  0.00    +0.172 C 
ATOM     11  N   UNL     1      -0.892  -0.468  -0.142  0.00  0.00    -0.271 N 
ATOM     12  C   UNL     1       0.008  -0.792  -1.094  0.00  0.00    +0.041 A 
ATOM     13  C   UNL     1       0.924  -1.615  -0.532  0.00  0.00    +0.048 A 
ATOM     14  C   UNL     1       0.572  -1.799   0.809  0.00  0.00    +0.066 A 
ATOM     15  N   UNL     1      -0.513  -1.107   1.046  0.00  0.00    -0.176 NA
BRANCH  14  16
ATOM     16  C   UNL     1       1.317  -2.643   1.810  0.00  0.00    +0.040 C 
ATOM     17  C   UNL     1       2.819  -2.561   1.529  0.00  0.00    +0.010 C 
ATOM     18  C   UNL     1       3.576  -3.418   2.546  0.00  0.00    +0.001 C 
ATOM     19  C   UNL     1       3.115  -4.872   2.430  0.00  0.00    +0.000 C 
ATOM     20  C   UNL     1       1.613  -4.955   2.711  0.00  0.00    +0.001 C 
ATOM     21  C   UNL     1       0.856  -4.098   1.694  0.00  0.00    +0.010 C 
ENDBRANCH  14  16
ENDBRANCH   1  12
BRANCH   8  22
ATOM     22  C   UNL     1       1.091  -1.594  -6.472  0.00  0.00    +0.091 C 
BRANCH  22  23
ATOM     23  N   UNL     1       2.513  -1.492  -6.811  0.00  0.00    -0.191 NA
ATOM     24  H   UNL     1       3.045  -0.764  -6.453  0.00  0.00    +0.148 HD
BRANCH  23  25
ATOM     25  S   UNL     1       3.211  -2.618  -7.803  0.00  0.00    +0.065 S 
ATOM     26  O   UNL     1       4.570  -2.235  -7.960  0.00  0.00    -0.153 OA
ATOM     27  O   UNL     1       2.833  -3.893  -7.301  0.00  0.00    -0.153 OA
BRANCH  25  28
ATOM     28  C   UNL     1       2.456  -2.457  -9.387  0.00  0.00    +0.142 A 
ATOM     29  C   UNL     1       2.828  -1.682 -10.435  0.00  0.00    +0.036 A 
ATOM     30  C   UNL     1       2.077  -1.716 -11.595  0.00  0.00    +0.010 A 
ATOM     31  C   UNL     1       0.990  -2.525 -11.649  0.00  0.00    +0.047 A 
ATOM     32  S   UNL     1       1.007  -3.277 -10.031  0.00  0.00    -0.077 S 
ENDBRANCH  25  28
ENDBRANCH  23  25
ENDBRANCH  22  23
ENDBRANCH   8  22
TORSDOF 6
