REMARK  Name = ZINC20707932
REMARK  3 active torsions:
REMARK  status: ('A' for Active; 'I' for Inactive)
REMARK    1  A    between atoms: C_1  and  C_2
REMARK    2  A    between atoms: C_5  and  N_28
REMARK    3  A    between atoms: C_9  and  C_18
REMARK                            x       y       z     vdW  Elec       q    Type
REMARK                         _______ _______ _______ _____ _____    ______ ____
ROOT
ATOM      1  C   UNL     1      -2.093   7.405   2.858  0.00  0.00    +0.045 C 
ATOM      2  C   UNL     1      -1.607   7.561   1.441  0.00  0.00    -0.029 A 
ATOM      3  C   UNL     1      -1.089   8.769   1.028  0.00  0.00    +0.007 A 
ATOM      4  C   UNL     1      -0.637   8.926  -0.269  0.00  0.00    +0.033 A 
ATOM      5  C   UNL     1      -0.703   7.863  -1.149  0.00  0.00    +0.132 A 
ATOM      6  C   UNL     1      -1.214   6.649  -0.743  0.00  0.00    +0.011 A 
ATOM      7  C   UNL     1      -1.686   6.479   0.562  0.00  0.00    +0.037 A 
ATOM      8  N   UNL     1      -2.256   5.301   1.039  0.00  0.00    -0.336 N 
ATOM      9  C   UNL     1      -2.257   4.148   0.125  0.00  0.00    +0.105 C 
ATOM     10  C   UNL     1      -2.557   4.679  -1.261  0.00  0.00    +0.029 C 
ATOM     11  C   UNL     1      -1.282   5.488  -1.658  0.00  0.00    +0.051 C 
ATOM     12  C   UNL     1      -1.416   5.604  -3.139  0.00  0.00    -0.023 C 
ATOM     13  C   UNL     1      -2.134   4.583  -3.593  0.00  0.00    -0.030 C 
ATOM     14  C   UNL     1      -2.559   3.685  -2.428  0.00  0.00    +0.033 C 
ATOM     15  H   UNL     1      -2.691   5.206   2.045  0.00  0.00    +0.147 HD
ENDROOT
BRANCH   9  16
ATOM     16  C   UNL     1      -0.906   3.481   0.138  0.00  0.00    -0.026 A 
ATOM     17  C   UNL     1      -0.796   2.145  -0.244  0.00  0.00    +0.006 A 
ATOM     18  C   UNL     1       0.409   1.512  -0.244  0.00  0.00    +0.009 A 
ATOM     19  C   UNL     1       1.562   2.214   0.148  0.00  0.00    -0.018 A 
ATOM     20  C   UNL     1       2.824   1.595   0.161  0.00  0.00    +0.008 A 
ATOM     21  C   UNL     1       3.918   2.305   0.547  0.00  0.00    +0.001 A 
ATOM     22  C   UNL     1       3.809   3.641   0.929  0.00  0.00    +0.001 A 
ATOM     23  C   UNL     1       2.604   4.273   0.928  0.00  0.00    +0.008 A 
ATOM     24  C   UNL     1       1.451   3.572   0.537  0.00  0.00    -0.018 A 
ATOM     25  C   UNL     1       0.188   4.190   0.528  0.00  0.00    +0.014 A 
ENDBRANCH   9  16
BRANCH   5  26
ATOM     26  N   UNL     1      -0.219   8.028  -2.538  0.00  0.00    +0.057 N 
ATOM     27  O   UNL     1       0.564   7.224  -3.011  0.00  0.00    -0.126 OA
ATOM     28  O   UNL     1      -0.605   8.969  -3.209  0.00  0.00    -0.126 OA
ENDBRANCH   5  26
TORSDOF 2
