REMARK  Name = ZINC40317837
REMARK  12 active torsions:
REMARK  status: ('A' for Active; 'I' for Inactive)
REMARK    1  A    between atoms: C_1  and  C_2
REMARK    2  A    between atoms: C_2  and  C_3
REMARK    3  A    between atoms: C_2  and  C_4
REMARK    4  A    between atoms: C_7  and  C_10
REMARK    5  A    between atoms: C_10  and  N_11
REMARK    6  A    between atoms: N_11  and  C_12
REMARK    7  A    between atoms: N_11  and  C_26
REMARK    8  A    between atoms: C_12  and  C_13
REMARK    9  A    between atoms: C_13  and  C_15
REMARK   10  A    between atoms: C_13  and  O_25
REMARK   11  A    between atoms: C_15  and  O_16
REMARK   12  A    between atoms: O_16  and  C_17
REMARK                            x       y       z     vdW  Elec       q    Type
REMARK                         _______ _______ _______ _____ _____    ______ ____
ROOT
ATOM      1  N   UNL     1       2.584  -1.063   5.686  0.00  0.00    +0.387 N 
ATOM      2  H   UNL     1       1.577  -1.002   5.658  0.00  0.00    -0.081 HD
ENDROOT
BRANCH   1   3
ATOM      3  C   UNL     1       3.165   0.122   5.041  0.00  0.00    -0.045 C 
ATOM      4  C   UNL     1       2.354   0.478   3.784  0.00  0.00    +0.009 C 
ATOM      5  C   UNL     1       3.131   1.509   2.930  0.00  0.00    +0.164 C 
ATOM      6  S   UNL     1       4.884   1.140   3.346  0.00  0.00    -0.033 S 
ATOM      7  O   UNL     1       5.458   2.275   3.979  0.00  0.00    -0.174 OA
ATOM      8  O   UNL     1       5.522   0.577   2.208  0.00  0.00    -0.174 OA
ATOM      9  C   UNL     1       4.627  -0.182   4.604  0.00  0.00    +0.151 C 
ENDBRANCH   1   3
BRANCH   1  10
ATOM     10  C   UNL     1       3.021  -2.272   4.975  0.00  0.00    -0.042 C 
BRANCH  10  14
ATOM     11  C   UNL     1       1.198  -2.391   1.113  0.00  0.00    -0.045 A 
ATOM     12  C   UNL     1       2.500  -1.947   1.250  0.00  0.00    +0.004 A 
ATOM     13  C   UNL     1       3.090  -1.908   2.499  0.00  0.00    +0.002 A 
ATOM     14  C   UNL     1       2.377  -2.313   3.613  0.00  0.00    -0.064 A 
ATOM     15  C   UNL     1       1.075  -2.756   3.476  0.00  0.00    +0.002 A 
ATOM     16  C   UNL     1       0.484  -2.791   2.227  0.00  0.00    +0.004 A 
BRANCH  11  18
ATOM     17  C   UNL     1       0.535  -1.025  -0.848  0.00  0.00    +0.012 C 
ATOM     18  C   UNL     1       0.555  -2.433  -0.249  0.00  0.00    +0.013 C 
ATOM     19  C   UNL     1       1.355  -3.364  -1.162  0.00  0.00    +0.012 C 
ENDBRANCH  11  18
ENDBRANCH  10  14
ENDBRANCH   1  10
BRANCH   1  20
ATOM     20  C   UNL     1       3.032  -1.129   7.084  0.00  0.00    -0.043 C 
BRANCH  20  21
ATOM     21  C   UNL     1       2.439   0.046   7.865  0.00  0.00    +0.135 C 
BRANCH  21  22
ATOM     22  O   UNL     1       1.013  -0.049   7.858  0.00  0.00    -0.390 OA
ATOM     23  H   UNL     1       0.670  -0.860   8.258  0.00  0.00    +0.210 HD
ENDBRANCH  21  22
BRANCH  21  24
ATOM     24  C   UNL     1       2.945   0.006   9.308  0.00  0.00    +0.258 C 
BRANCH  24  25
ATOM     25  O   UNL     1       2.486   1.165  10.006  0.00  0.00    -0.488 OA
BRANCH  25  26
ATOM     26  C   UNL     1       2.850   1.285  11.310  0.00  0.00    +0.139 A 
ATOM     27  C   UNL     1       3.639   0.310  11.903  0.00  0.00    +0.048 A 
ATOM     28  C   UNL     1       4.008   0.433  13.229  0.00  0.00    +0.023 A 
ATOM     29  C   UNL     1       3.593   1.529  13.965  0.00  0.00    +0.043 A 
ATOM     30  C   UNL     1       2.807   2.503  13.376  0.00  0.00    +0.043 A 
ATOM     31  C   UNL     1       2.439   2.386  12.049  0.00  0.00    +0.084 A 
ATOM     32 CL   UNL     1       1.458   3.612  11.307  0.00  0.00    -0.080 Cl
ATOM     33 CL   UNL     1       4.058   1.681  15.631  0.00  0.00    -0.083 Cl
ENDBRANCH  25  26
ENDBRANCH  24  25
ENDBRANCH  21  24
ENDBRANCH  20  21
ENDBRANCH   1  20
TORSDOF 10
