REMARK  Name = ZINC62135283
REMARK  4 active torsions:
REMARK  status: ('A' for Active; 'I' for Inactive)
REMARK    1  A    between atoms: C_1  and  C_2
REMARK    2  A    between atoms: C_2  and  C_4
REMARK    3  A    between atoms: C_2  and  N_7
REMARK    4  A    between atoms: C_13  and  C_16
REMARK                            x       y       z     vdW  Elec       q    Type
REMARK                         _______ _______ _______ _____ _____    ______ ____
ROOT
ATOM      1  N   UNL     1       0.711  -0.489   1.189  0.00  0.00    -0.296 N 
ATOM      2  C   UNL     1       0.051  -0.633   2.355  0.00  0.00    +0.302 C 
ATOM      3  O   UNL     1      -1.132  -0.361   2.423  0.00  0.00    -0.253 OA
ATOM      4  N   UNL     1       0.703  -1.080   3.447  0.00  0.00    -0.285 N 
ATOM      5  C   UNL     1       2.127  -1.439   3.508  0.00  0.00    +0.110 C 
ATOM      6  C   UNL     1       2.431  -1.867   4.959  0.00  0.00    +0.035 C 
ATOM      7  C   UNL     1       1.295  -1.186   5.767  0.00  0.00    +0.121 C 
ATOM      8  C   UNL     1       0.107  -1.283   4.780  0.00  0.00    +0.124 C 
ATOM      9  H   UNL     1       1.654  -0.707   1.135  0.00  0.00    +0.151 HD
ENDROOT
BRANCH   7  10
ATOM     10  C   UNL     1       1.008  -1.942   7.039  0.00  0.00    +0.361 C 
ATOM     11  O   UNL     1       0.776  -1.335   8.070  0.00  0.00    -0.246 OA
ATOM     12  O   UNL     1       1.008  -3.161   7.036  0.00  0.00    -0.246 OA
ENDBRANCH   7  10
BRANCH   1  14
ATOM     13  C   UNL     1      -0.019   1.526   0.010  0.00  0.00    +0.028 C 
ATOM     14  C   UNL     1       0.002  -0.004   0.002  0.00  0.00    +0.074 C 
BRANCH  14  15
ATOM     15  C   UNL     1       0.718  -0.497  -1.257  0.00  0.00    +0.009 C 
ATOM     16  C   UNL     1       1.429   0.547  -2.120  0.00  0.00    +0.005 C 
ATOM     17  C   UNL     1       0.128  -0.094  -2.609  0.00  0.00    +0.005 C 
ENDBRANCH  14  15
ENDBRANCH   1  14
TORSDOF 3
