REMARK  Name = ZINC58153949
REMARK  6 active torsions:
REMARK  status: ('A' for Active; 'I' for Inactive)
REMARK    1  A    between atoms: C_1  and  C_2
REMARK    2  A    between atoms: C_2  and  C_4
REMARK    3  A    between atoms: C_2  and  O_12
REMARK    4  A    between atoms: O_12  and  C_13
REMARK    5  A    between atoms: C_13  and  C_15
REMARK    6  A    between atoms: C_17  and  C_25
REMARK                            x       y       z     vdW  Elec       q    Type
REMARK                         _______ _______ _______ _____ _____    ______ ____
ROOT
ATOM      1  C   UNL     1      -3.272  -1.387   2.183  0.00  0.00    +0.070 A 
ATOM      2  C   UNL     1      -3.982  -1.566   1.004  0.00  0.00    +0.044 A 
ATOM      3  C   UNL     1      -5.281  -2.097   1.056  0.00  0.00    +0.073 A 
ATOM      4  N   UNL     1      -5.858  -2.436   2.192  0.00  0.00    -0.247 NA
ATOM      5  C   UNL     1      -5.249  -2.297   3.370  0.00  0.00    +0.072 A 
ATOM      6  C   UNL     1      -3.931  -1.776   3.430  0.00  0.00    +0.014 A 
ATOM      7  C   UNL     1      -3.294  -1.638   4.668  0.00  0.00    +0.011 A 
ATOM      8  C   UNL     1      -3.945  -2.013   5.806  0.00  0.00    +0.001 A 
ATOM      9  C   UNL     1      -5.237  -2.532   5.753  0.00  0.00    +0.002 A 
ATOM     10  C   UNL     1      -5.890  -2.668   4.566  0.00  0.00    +0.028 A 
ENDROOT
BRANCH   3  11
ATOM     11  C   UNL     1      -6.028  -2.283  -0.208  0.00  0.00    +0.008 A 
ATOM     12  C   UNL     1      -5.441  -2.938  -1.278  0.00  0.00    +0.010 A 
ATOM     13  C   UNL     1      -6.137  -3.116  -2.467  0.00  0.00    +0.001 A 
ATOM     14  C   UNL     1      -7.410  -2.655  -2.616  0.00  0.00    +0.008 A 
ATOM     15  C   UNL     1      -8.044  -1.985  -1.556  0.00  0.00    -0.017 A 
ATOM     16  C   UNL     1      -7.352  -1.799  -0.334  0.00  0.00    -0.009 A 
ATOM     17  C   UNL     1      -7.988  -1.135   0.724  0.00  0.00    +0.009 A 
ATOM     18  C   UNL     1      -9.263  -0.681   0.568  0.00  0.00    +0.001 A 
ATOM     19  C   UNL     1      -9.947  -0.868  -0.632  0.00  0.00    +0.001 A 
ATOM     20  C   UNL     1      -9.357  -1.499  -1.684  0.00  0.00    +0.008 A 
ENDBRANCH   3  11
BRANCH   1  21
ATOM     21  C   UNL     1      -1.903  -0.831   2.179  0.00  0.00    +0.341 C 
ATOM     22  O   UNL     1      -1.340  -0.594   3.229  0.00  0.00    -0.245 OA
BRANCH  21  23
ATOM     23  O   UNL     1      -1.279  -0.587   1.010  0.00  0.00    -0.449 OA
BRANCH  23  25
ATOM     24  C   UNL     1      -0.027   1.478   1.094  0.00  0.00    +0.062 C 
ATOM     25  C   UNL     1       0.044  -0.050   1.080  0.00  0.00    +0.259 C 
BRANCH  25  26
ATOM     26  C   UNL     1       0.835  -0.505  -0.118  0.00  0.00    +0.264 C 
ATOM     27  O   UNL     1       0.276  -1.064  -1.038  0.00  0.00    -0.271 OA
ATOM     28  N   UNL     1       2.165  -0.292  -0.168  0.00  0.00    -0.221 N 
ATOM     29  C   UNL     1       2.981   0.263   0.922  0.00  0.00    +0.137 C 
ATOM     30  C   UNL     1       4.407   0.291   0.339  0.00  0.00    +0.125 C 
ATOM     31  N   UNL     1       4.244  -0.251  -1.018  0.00  0.00    -0.297 N 
ATOM     32  C   UNL     1       2.955  -0.558  -1.217  0.00  0.00    +0.309 C 
ATOM     33  O   UNL     1       2.539  -1.030  -2.257  0.00  0.00    -0.252 OA
ATOM     34  H   UNL     1       4.956  -0.371  -1.665  0.00  0.00    +0.150 HD
ENDBRANCH  25  26
ENDBRANCH  23  25
ENDBRANCH  21  23
ENDBRANCH   1  21
TORSDOF 5
