REMARK  Name = ZINC35794643
REMARK  8 active torsions:
REMARK  status: ('A' for Active; 'I' for Inactive)
REMARK    1  A    between atoms: C_5  and  O_7
REMARK    2  A    between atoms: O_7  and  C_8
REMARK    3  A    between atoms: C_8  and  C_9
REMARK    4  A    between atoms: C_9  and  C_11
REMARK    5  A    between atoms: N_17  and  C_22
REMARK    6  A    between atoms: C_22  and  C_23
REMARK    7  A    between atoms: C_26  and  C_28
REMARK    8  A    between atoms: N_30  and  C_31
REMARK                            x       y       z     vdW  Elec       q    Type
REMARK                         _______ _______ _______ _____ _____    ______ ____
ROOT
ATOM      1  C   UNL     1      -0.961  -5.111  -0.017  0.00  0.00    +0.023 A 
ATOM      2  C   UNL     1      -2.264  -4.597  -0.007  0.00  0.00    +0.015 A 
ATOM      3  C   UNL     1      -3.343  -5.453  -0.001  0.00  0.00    +0.048 A 
ATOM      4  C   UNL     1      -3.143  -6.826  -0.005  0.00  0.00    +0.143 A 
ATOM      5  C   UNL     1      -1.845  -7.346  -0.016  0.00  0.00    +0.079 A 
ATOM      6  C   UNL     1      -0.758  -6.497  -0.027  0.00  0.00    +0.038 A 
ATOM      7  N   UNL     1      -1.665  -8.738  -0.020  0.00  0.00    -0.258 N 
ATOM      8  C   UNL     1      -2.713  -9.532  -0.331  0.00  0.00    +0.258 C 
ATOM      9  O   UNL     1      -2.589 -10.738  -0.311  0.00  0.00    -0.271 OA
ATOM     10  C   UNL     1      -4.037  -8.913  -0.701  0.00  0.00    +0.325 C 
ATOM     11  O   UNL     1      -4.202  -7.677  -0.001  0.00  0.00    -0.481 OA
ENDROOT
BRANCH   1  12
ATOM     12  C   UNL     1       0.190  -4.199  -0.023  0.00  0.00    +0.200 C 
ATOM     13  O   UNL     1       1.318  -4.645  -0.037  0.00  0.00    -0.288 OA
BRANCH  12  14
ATOM     14  C   UNL     1      -0.030  -2.708  -0.013  0.00  0.00    +0.308 C 
BRANCH  14  15
ATOM     15  O   UNL     1       1.233  -2.040  -0.022  0.00  0.00    -0.481 OA
BRANCH  15  20
ATOM     16  C   UNL     1      -0.017   1.378   0.010  0.00  0.00    +0.004 A 
ATOM     17  C   UNL     1       1.170   2.087   0.002  0.00  0.00    +0.003 A 
ATOM     18  C   UNL     1       2.379   1.417  -0.013  0.00  0.00    +0.042 A 
ATOM     19  C   UNL     1       2.404   0.034  -0.022  0.00  0.00    +0.165 A 
ATOM     20  C   UNL     1       1.212  -0.680  -0.014  0.00  0.00    +0.156 A 
ATOM     21  C   UNL     1       0.002  -0.004   0.002  0.00  0.00    +0.048 A 
ATOM     22  F   UNL     1       3.585  -0.622  -0.038  0.00  0.00    -0.202 F 
ENDBRANCH  15  20
ENDBRANCH  14  15
ENDBRANCH  12  14
ENDBRANCH   1  12
BRANCH   7  23
ATOM     23  C   UNL     1      -0.362  -9.320   0.308  0.00  0.00    +0.188 C 
BRANCH  23  24
ATOM     24  C   UNL     1      -0.282  -9.571   1.792  0.00  0.00    +0.124 A 
ATOM     25  C   UNL     1      -0.648 -10.711   2.417  0.00  0.00    +0.047 A 
ATOM     26  C   UNL     1      -0.411 -10.524   3.788  0.00  0.00    +0.055 A 
ATOM     27  C   UNL     1       0.093  -9.263   3.931  0.00  0.00    +0.189 A 
ATOM     28  O   UNL     1       0.169  -8.703   2.706  0.00  0.00    -0.453 OA
BRANCH  27  29
ATOM     29  C   UNL     1       0.488  -8.631   5.194  0.00  0.00    +0.280 C 
ATOM     30  O   UNL     1       0.377  -9.241   6.241  0.00  0.00    -0.267 OA
ATOM     31  N   UNL     1       0.974  -7.374   5.195  0.00  0.00    -0.306 N 
ATOM     32  H   UNL     1       1.063  -6.888   4.361  0.00  0.00    +0.149 HD
BRANCH  31  33
ATOM     33  C   UNL     1       1.369  -6.742   6.457  0.00  0.00    +0.073 C 
ATOM     34  C   UNL     1       0.141  -6.112   7.117  0.00  0.00    +0.022 C 
ATOM     35  C   UNL     1       0.553  -5.452   8.435  0.00  0.00    +0.002 C 
ATOM     36  C   UNL     1       1.597  -4.368   8.158  0.00  0.00    +0.000 C 
ATOM     37  C   UNL     1       2.825  -4.999   7.498  0.00  0.00    +0.002 C 
ATOM     38  C   UNL     1       2.413  -5.659   6.180  0.00  0.00    +0.022 C 
ENDBRANCH  31  33
ENDBRANCH  27  29
ENDBRANCH  23  24
ENDBRANCH   7  23
TORSDOF 8
