REMARK  Name = ZINC12635670
REMARK  12 active torsions:
REMARK  status: ('A' for Active; 'I' for Inactive)
REMARK    1  A    between atoms: C_1  and  C_2
REMARK    2  A    between atoms: C_2  and  O_3
REMARK    3  A    between atoms: O_3  and  C_4
REMARK    4  A    between atoms: C_4  and  C_6
REMARK    5  A    between atoms: C_6  and  C_35
REMARK    6  A    between atoms: C_11  and  C_13
REMARK    7  A    between atoms: C_16  and  N_19
REMARK    8  A    between atoms: N_19  and  C_20
REMARK    9  A    between atoms: N_19  and  C_21
REMARK   10  A    between atoms: N_24  and  C_27
REMARK   11  A    between atoms: C_31  and  O_33
REMARK   12  A    between atoms: O_33  and  C_34
REMARK                            x       y       z     vdW  Elec       q    Type
REMARK                         _______ _______ _______ _____ _____    ______ ____
ROOT
ATOM      1  C   UNL     1      -4.499  -5.759  -0.535  0.00  0.00    +0.041 C 
ATOM      2  C   UNL     1      -3.692  -4.605   0.061  0.00  0.00    +0.086 C 
ATOM      3  C   UNL     1      -4.390  -3.431  -0.735  0.00  0.00    +0.077 C 
ATOM      4  C   UNL     1      -5.813  -3.744  -0.526  0.00  0.00    -0.027 C 
ATOM      5  C   UNL     1      -3.443  -2.358  -0.564  0.00  0.00    +0.229 C 
ATOM      6  O   UNL     1      -3.679  -1.175  -0.441  0.00  0.00    -0.275 OA
ATOM      7  N   UNL     1      -2.214  -2.970  -0.572  0.00  0.00    -0.210 N 
ATOM      8  C   UNL     1      -2.300  -4.328  -0.451  0.00  0.00    +0.229 C 
ATOM      9  O   UNL     1      -1.436  -5.141  -0.700  0.00  0.00    -0.275 OA
ATOM     10  C   UNL     1      -4.554  -6.930   0.448  0.00  0.00    +0.002 C 
ATOM     11  N   UNL     1      -5.858  -5.204  -0.762  0.00  0.00    +0.395 N 
ATOM     12  H   UNL     1      -6.523  -5.640  -0.113  0.00  0.00    -0.083 HD
ATOM     13  H   UNL     1      -6.151  -5.389  -1.729  0.00  0.00    -0.083 HD
ENDROOT
BRANCH   4  14
ATOM     14  C   UNL     1      -6.228  -3.442   0.891  0.00  0.00    -0.060 A 
ATOM     15  C   UNL     1      -5.840  -4.284   1.918  0.00  0.00    +0.004 A 
ATOM     16  C   UNL     1      -6.213  -4.007   3.218  0.00  0.00    +0.023 A 
ATOM     17  C   UNL     1      -6.989  -2.888   3.493  0.00  0.00    +0.029 A 
ATOM     18  C   UNL     1      -7.381  -2.048   2.459  0.00  0.00    +0.023 A 
ATOM     19  C   UNL     1      -7.000  -2.327   1.162  0.00  0.00    +0.004 A 
BRANCH  17  20
ATOM     20  N   UNL     1      -7.373  -2.609   4.807  0.00  0.00    -0.336 N 
ATOM     21  C   UNL     1      -8.192  -1.428   5.095  0.00  0.00    +0.129 C 
ATOM     22  C   UNL     1      -6.958  -3.496   5.896  0.00  0.00    +0.129 C 
ENDBRANCH  17  20
ENDBRANCH   4  14
BRANCH   7  23
ATOM     23  C   UNL     1      -1.002  -2.277  -0.698  0.00  0.00    +0.047 A 
ATOM     24  C   UNL     1       0.200  -2.973  -0.697  0.00  0.00    +0.024 A 
ATOM     25  C   UNL     1       1.394  -2.291  -0.821  0.00  0.00    +0.005 A 
ATOM     26  C   UNL     1       1.397  -0.914  -0.946  0.00  0.00    +0.046 A 
ATOM     27  C   UNL     1       0.199  -0.214  -0.946  0.00  0.00    +0.122 A 
ATOM     28  C   UNL     1      -1.001  -0.895  -0.817  0.00  0.00    +0.069 A 
BRANCH  27  29
ATOM     29  O   UNL     1       0.203   1.140  -1.068  0.00  0.00    -0.495 OA
ATOM     30  C   UNL     1       1.476   1.776  -1.192  0.00  0.00    +0.277 C 
ENDBRANCH  27  29
ENDBRANCH   7  23
BRANCH   1  31
ATOM     31  C   UNL     1      -3.888  -6.203  -1.839  0.00  0.00    +0.297 C 
ATOM     32  O   UNL     1      -3.102  -7.120  -1.857  0.00  0.00    -0.252 OA
BRANCH  31  33
ATOM     33  O   UNL     1      -4.218  -5.580  -2.982  0.00  0.00    -0.466 OA
BRANCH  33  35
ATOM     34  C   UNL     1      -4.086  -5.234  -5.388  0.00  0.00    +0.048 C 
ATOM     35  C   UNL     1      -3.591  -6.061  -4.200  0.00  0.00    +0.228 C 
ENDBRANCH  33  35
ENDBRANCH  31  33
ENDBRANCH   1  31
TORSDOF 7
