REMARK  Name = ZINC13064454
REMARK  9 active torsions:
REMARK  status: ('A' for Active; 'I' for Inactive)
REMARK    1  A    between atoms: C_1  and  C_2
REMARK    2  A    between atoms: C_2  and  C_3
REMARK    3  A    between atoms: C_3  and  C_5
REMARK    4  A    between atoms: C_3  and  N_69
REMARK    5  A    between atoms: N_9  and  C_10
REMARK    6  A    between atoms: C_10  and  C_11
REMARK    7  A    between atoms: C_18  and  C_19
REMARK    8  A    between atoms: C_18  and  N_69
REMARK    9  A    between atoms: C_35  and  N_69
REMARK                            x       y       z     vdW  Elec       q    Type
REMARK                         _______ _______ _______ _____ _____    ______ ____
ROOT
ATOM      1  N   UNL     1       2.012   4.479   0.951  0.00  0.00    +0.391 N 
ATOM      2  H   UNL     1       1.124   3.973   1.050  0.00  0.00    -0.080 HD
ENDROOT
BRANCH   1   3
ATOM      3  C   UNL     1       2.988   3.928   1.915  0.00  0.00    -0.067 C 
ATOM      4  C   UNL     1       2.789   2.402   2.022  0.00  0.00    -0.015 C 
ATOM      5  C   UNL     1       3.020   2.094   3.523  0.00  0.00    -0.002 C 
ATOM      6  C   UNL     1       2.371   3.312   4.226  0.00  0.00    -0.002 C 
ATOM      7  C   UNL     1       2.723   4.506   3.315  0.00  0.00    -0.015 C 
ENDBRANCH   1   3
BRANCH   1   8
ATOM      8  C   UNL     1       1.782   5.912   1.228  0.00  0.00    +0.003 C 
BRANCH   8   9
ATOM      9  C   UNL     1       3.079   6.677   1.169  0.00  0.00    +0.138 A 
ATOM     10  N   UNL     1       4.128   6.384   0.439  0.00  0.00    -0.115 NA
ATOM     11  N   UNL     1       5.030   7.275   0.663  0.00  0.00    -0.023 NA
ATOM     12  N   UNL     1       4.588   8.125   1.522  0.00  0.00    -0.044 NA
ATOM     13  N   UNL     1       3.388   7.791   1.858  0.00  0.00    -0.226 N 
BRANCH  13  14
ATOM     14  C   UNL     1       2.524   8.491   2.812  0.00  0.00    +0.182 C 
BRANCH  14  15
ATOM     15  C   UNL     1       2.844   8.031   4.211  0.00  0.00    -0.026 A 
ATOM     16  C   UNL     1       2.083   7.041   4.804  0.00  0.00    +0.008 A 
ATOM     17  C   UNL     1       2.378   6.615   6.085  0.00  0.00    +0.038 A 
ATOM     18  C   UNL     1       3.431   7.188   6.779  0.00  0.00    +0.123 A 
ATOM     19  C   UNL     1       4.189   8.183   6.186  0.00  0.00    +0.038 A 
ATOM     20  C   UNL     1       3.895   8.604   4.903  0.00  0.00    +0.008 A 
ATOM     21  F   UNL     1       3.717   6.776   8.033  0.00  0.00    -0.205 F 
ENDBRANCH  14  15
ENDBRANCH  13  14
ENDBRANCH   8   9
BRANCH   8  23
ATOM     22  C   UNL     1      -0.508   5.700   0.252  0.00  0.00    +0.002 C 
ATOM     23  C   UNL     1       0.812   6.472   0.186  0.00  0.00    -0.011 C 
ENDBRANCH   8  23
ENDBRANCH   1   8
BRANCH   1  24
ATOM     24  C   UNL     1       2.512   4.306  -0.429  0.00  0.00    -0.036 C 
BRANCH  24  25
ATOM     25  C   UNL     1       2.575   2.833  -0.743  0.00  0.00    +0.001 A 
ATOM     26  C   UNL     1       1.504   2.215  -1.304  0.00  0.00    +0.017 A 
ATOM     27  C   UNL     1       1.596   0.785  -1.596  0.00  0.00    +0.002 A 
ATOM     28  C   UNL     1       0.523   0.095  -2.173  0.00  0.00    +0.059 A 
ATOM     29  C   UNL     1       0.638  -1.254  -2.434  0.00  0.00    +0.163 A 
ATOM     30  C   UNL     1       1.821  -1.933  -2.127  0.00  0.00    +0.164 A 
ATOM     31  C   UNL     1       2.888  -1.258  -1.558  0.00  0.00    +0.075 A 
ATOM     32  C   UNL     1       2.788   0.100  -1.287  0.00  0.00    +0.053 A 
ATOM     33  N   UNL     1       3.840   0.788  -0.718  0.00  0.00    -0.322 N 
ATOM     34  H   UNL     1       4.661   0.316  -0.506  0.00  0.00    +0.169 HD
ATOM     35  C   UNL     1       3.745   2.103  -0.453  0.00  0.00    +0.251 A 
ATOM     36  O   UNL     1       4.694   2.678   0.052  0.00  0.00    -0.268 OA
ATOM     37  O   UNL     1       1.944  -3.263  -2.386  0.00  0.00    -0.485 OA
ATOM     38  C   UNL     1       0.732  -3.990  -2.609  0.00  0.00    +0.270 C 
ATOM     39  C   UNL     1      -0.139  -3.186  -3.584  0.00  0.00    +0.270 C 
ATOM     40  O   UNL     1      -0.416  -1.913  -2.991  0.00  0.00    -0.485 OA
ENDBRANCH  24  25
ENDBRANCH   1  24
TORSDOF 8
