REMARK  Name = ZINC13099105
REMARK  8 active torsions:
REMARK  status: ('A' for Active; 'I' for Inactive)
REMARK    1  A    between atoms: C_4  and  O_24
REMARK    2  A    between atoms: C_5  and  C_7
REMARK    3  A    between atoms: C_7  and  C_9
REMARK    4  A    between atoms: C_11  and  C_22
REMARK    5  A    between atoms: N_14  and  C_16
REMARK    6  A    between atoms: O_24  and  C_25
REMARK    7  A    between atoms: C_25  and  C_26
REMARK    8  A    between atoms: N_28  and  C_29
REMARK                            x       y       z     vdW  Elec       q    Type
REMARK                         _______ _______ _______ _____ _____    ______ ____
ROOT
ATOM      1  C   UNL     1      -3.397   6.530   5.684  0.00  0.00    +0.001 A 
ATOM      2  C   UNL     1      -3.268   5.179   5.406  0.00  0.00    +0.004 A 
ATOM      3  C   UNL     1      -2.609   4.760   4.267  0.00  0.00    +0.046 A 
ATOM      4  C   UNL     1      -2.072   5.692   3.392  0.00  0.00    +0.132 A 
ATOM      5  C   UNL     1      -2.195   7.060   3.673  0.00  0.00    +0.064 A 
ATOM      6  C   UNL     1      -2.869   7.470   4.827  0.00  0.00    +0.015 A 
ENDROOT
BRANCH   5   7
ATOM      7  C   UNL     1      -1.623   8.061   2.753  0.00  0.00    +0.198 C 
ATOM      8  O   UNL     1      -2.350   8.689   2.008  0.00  0.00    -0.286 OA
BRANCH   7   9
ATOM      9  C   UNL     1      -0.168   8.301   2.738  0.00  0.00    +0.040 A 
ATOM     10  C   UNL     1       0.662   7.651   3.675  0.00  0.00    +0.037 A 
ATOM     11  C   UNL     1       2.028   7.895   3.638  0.00  0.00    +0.117 A 
ATOM     12  C   UNL     1       2.548   8.818   2.625  0.00  0.00    +0.269 A 
ATOM     13  O   UNL     1       3.742   9.052   2.566  0.00  0.00    -0.266 OA
ATOM     14  N   UNL     1       1.699   9.404   1.760  0.00  0.00    -0.310 N 
ATOM     15  C   UNL     1       0.380   9.157   1.801  0.00  0.00    +0.101 A 
BRANCH  14  16
ATOM     16  C   UNL     1       2.226  10.325   0.750  0.00  0.00    +0.090 C 
ATOM     17  C   UNL     1       3.226   9.587  -0.142  0.00  0.00    +0.025 C 
ATOM     18  C   UNL     1       3.776  10.549  -1.196  0.00  0.00    +0.002 C 
ATOM     19  C   UNL     1       4.479  11.718  -0.503  0.00  0.00    +0.000 C 
ATOM     20  C   UNL     1       3.479  12.457   0.389  0.00  0.00    +0.002 C 
ATOM     21  C   UNL     1       2.929  11.495   1.444  0.00  0.00    +0.025 C 
ENDBRANCH  14  16
BRANCH  11  22
ATOM     22  C   UNL     1       2.910   7.259   4.570  0.00  0.00    +0.105 C 
ATOM     23  N   UNL     1       3.610   6.754   5.309  0.00  0.00    -0.191 NA
ENDBRANCH  11  22
ENDBRANCH   7   9
ENDBRANCH   5   7
BRANCH   4  24
ATOM     24  O   UNL     1      -1.425   5.282   2.273  0.00  0.00    -0.482 OA
BRANCH  24  25
ATOM     25  C   UNL     1      -1.333   3.873   2.056  0.00  0.00    +0.324 C 
BRANCH  25  26
ATOM     26  C   UNL     1      -0.586   3.609   0.774  0.00  0.00    +0.251 C 
ATOM     27  O   UNL     1      -0.173   4.537   0.111  0.00  0.00    -0.272 OA
ATOM     28  N   UNL     1      -0.378   2.342   0.363  0.00  0.00    -0.307 N 
ATOM     29  H   UNL     1      -0.708   1.600   0.894  0.00  0.00    +0.149 HD
BRANCH  28  30
ATOM     30  C   UNL     1       0.348   2.086  -0.883  0.00  0.00    +0.035 C 
ATOM     31  C   UNL     1       1.755   2.680  -0.785  0.00  0.00    +0.029 C 
ATOM     32  C   UNL     1       2.513   2.412  -2.087  0.00  0.00    -0.008 C 
ATOM     33  C   UNL     1       2.611   0.903  -2.320  0.00  0.00    +0.007 C 
ATOM     34  C   UNL     1       1.204   0.310  -2.417  0.00  0.00    -0.008 C 
ATOM     35  C   UNL     1       0.446   0.577  -1.115  0.00  0.00    +0.029 C 
ATOM     36  C   UNL     1       0.457   0.958  -3.585  0.00  0.00    +0.007 C 
ATOM     37  C   UNL     1       0.359   2.467  -3.353  0.00  0.00    -0.008 C 
ATOM     38  C   UNL     1       1.766   3.061  -3.255  0.00  0.00    +0.007 C 
ATOM     39  C   UNL     1      -0.399   2.734  -2.051  0.00  0.00    +0.029 C 
ENDBRANCH  28  30
ENDBRANCH  25  26
ENDBRANCH  24  25
ENDBRANCH   4  24
TORSDOF 8
