REMARK  Name = ZINC36812391
REMARK  8 active torsions:
REMARK  status: ('A' for Active; 'I' for Inactive)
REMARK    1  A    between atoms: C_1  and  C_2
REMARK    2  A    between atoms: C_2  and  C_4
REMARK    3  A    between atoms: C_2  and  S_18
REMARK    4  A    between atoms: C_9  and  C_12
REMARK    5  A    between atoms: S_18  and  C_19
REMARK    6  A    between atoms: C_22  and  C_30
REMARK    7  A    between atoms: N_23  and  C_24
REMARK    8  A    between atoms: C_30  and  N_31
REMARK                            x       y       z     vdW  Elec       q    Type
REMARK                         _______ _______ _______ _____ _____    ______ ____
ROOT
ATOM      1  S   UNL     1       0.681  -0.199   1.339  0.00  0.00    -0.073 S 
ENDROOT
BRANCH   1   2
ATOM      2  C   UNL     1      -0.311   0.138   2.755  0.00  0.00    +0.197 A 
ATOM      3  N   UNL     1      -1.484   0.727   2.765  0.00  0.00    -0.122 NA
ATOM      4  N   UNL     1      -1.923   0.810   3.970  0.00  0.00    -0.135 NA
ATOM      5  C   UNL     1      -1.064   0.284   4.797  0.00  0.00    +0.122 A 
ATOM      6  N   UNL     1      -0.007  -0.169   4.053  0.00  0.00    -0.276 N 
BRANCH   6   7
ATOM      7  C   UNL     1       1.147  -0.812   4.524  0.00  0.00    +0.050 A 
ATOM      8  C   UNL     1       1.059  -2.081   5.079  0.00  0.00    +0.026 A 
ATOM      9  C   UNL     1       2.197  -2.712   5.542  0.00  0.00    +0.002 A 
ATOM     10  C   UNL     1       3.424  -2.080   5.453  0.00  0.00    +0.000 A 
ATOM     11  C   UNL     1       3.515  -0.815   4.900  0.00  0.00    +0.002 A 
ATOM     12  C   UNL     1       2.381  -0.182   4.431  0.00  0.00    +0.026 A 
ENDBRANCH   6   7
BRANCH   5  13
ATOM     13  C   UNL     1      -1.210   0.187   6.294  0.00  0.00    -0.001 C 
BRANCH  13  14
ATOM     14  N   UNL     1      -0.528   1.323   6.927  0.00  0.00    +0.384 N 
ATOM     15  C   UNL     1      -1.257   2.585   6.638  0.00  0.00    -0.078 C 
ATOM     16  C   UNL     1      -0.792   3.531   7.773  0.00  0.00    -0.020 C 
ATOM     17  C   UNL     1      -0.697   2.587   8.993  0.00  0.00    -0.020 C 
ATOM     18  C   UNL     1      -0.547   1.175   8.398  0.00  0.00    -0.078 C 
ATOM     19  H   UNL     1       0.423   1.387   6.596  0.00  0.00    -0.081 HD
ENDBRANCH  13  14
ENDBRANCH   5  13
ENDBRANCH   1   2
BRANCH   1  21
ATOM     20  C   UNL     1      -0.411   1.978   0.092  0.00  0.00    +0.029 C 
ATOM     21  C   UNL     1      -0.291   0.458  -0.044  0.00  0.00    +0.137 C 
BRANCH  21  22
ATOM     22  C   UNL     1       0.394   0.124  -1.344  0.00  0.00    +0.232 C 
ATOM     23  O   UNL     1       1.573  -0.160  -1.353  0.00  0.00    -0.274 OA
ATOM     24  N   UNL     1      -0.303   0.139  -2.497  0.00  0.00    -0.264 N 
ATOM     25  C   UNL     1       0.329  -0.170  -3.696  0.00  0.00    +0.165 A 
ATOM     26  N   UNL     1      -0.170  -0.205  -4.918  0.00  0.00    -0.225 NA
ATOM     27  C   UNL     1       0.585  -0.523  -5.959  0.00  0.00    +0.080 A 
ATOM     28  C   UNL     1       1.905  -0.820  -5.765  0.00  0.00    +0.076 A 
ATOM     29  S   UNL     1       2.034  -0.616  -3.993  0.00  0.00    -0.060 S 
ATOM     30  H   UNL     1      -1.247   0.366  -2.491  0.00  0.00    +0.157 HD
BRANCH  27  31
ATOM     31  C   UNL     1       0.003  -0.557  -7.323  0.00  0.00    +0.001 A 
ATOM     32  C   UNL     1       0.799  -0.897  -8.415  0.00  0.00    +0.010 A 
ATOM     33  C   UNL     1       0.252  -0.927  -9.681  0.00  0.00    +0.001 A 
ATOM     34  C   UNL     1      -1.084  -0.620  -9.868  0.00  0.00    +0.000 A 
ATOM     35  C   UNL     1      -1.879  -0.280  -8.788  0.00  0.00    +0.001 A 
ATOM     36  C   UNL     1      -1.344  -0.254  -7.516  0.00  0.00    +0.010 A 
ENDBRANCH  27  31
ENDBRANCH  21  22
ENDBRANCH   1  21
TORSDOF 7
