REMARK  Name = ZINC22419232
REMARK  11 active torsions:
REMARK  status: ('A' for Active; 'I' for Inactive)
REMARK    1  A    between atoms: C_1  and  N_2
REMARK    2  A    between atoms: N_2  and  C_3
REMARK    3  A    between atoms: N_2  and  C_4
REMARK    4  A    between atoms: C_7  and  C_10
REMARK    5  A    between atoms: C_10  and  C_12
REMARK    6  A    between atoms: C_10  and  N_26
REMARK    7  A    between atoms: C_12  and  N_13
REMARK    8  A    between atoms: N_16  and  C_17
REMARK    9  A    between atoms: C_17  and  C_18
REMARK   10  A    between atoms: C_18  and  C_19
REMARK   11  A    between atoms: C_19  and  C_20
REMARK                            x       y       z     vdW  Elec       q    Type
REMARK                         _______ _______ _______ _____ _____    ______ ____
ROOT
ATOM      1  C   UNL     1      -0.458   2.015  -1.197  0.00  0.00    -0.020 C 
ENDROOT
BRANCH   1   2
ATOM      2  N   UNL     1      -0.021   1.771   0.184  0.00  0.00    +0.388 N 
ATOM      3  C   UNL     1       0.940   0.658   0.244  0.00  0.00    -0.073 C 
ATOM      4  C   UNL     1       1.630   0.686   1.608  0.00  0.00    +0.017 C 
ATOM      5  C   UNL     1       0.598   0.771   2.704  0.00  0.00    -0.048 A 
ATOM      6  C   UNL     1       0.982   0.456   3.999  0.00  0.00    +0.004 A 
ATOM      7  C   UNL     1       0.071   0.528   5.034  0.00  0.00    +0.000 A 
ATOM      8  C   UNL     1      -1.231   0.917   4.777  0.00  0.00    +0.000 A 
ATOM      9  C   UNL     1      -1.614   1.229   3.489  0.00  0.00    +0.002 A 
ATOM     10  C   UNL     1      -0.700   1.155   2.448  0.00  0.00    -0.061 A 
ATOM     11  C   UNL     1      -1.167   1.501   1.058  0.00  0.00    -0.042 C 
ATOM     12  H   UNL     1       0.478   2.684   0.541  0.00  0.00    -0.080 HD
ENDBRANCH   1   2
BRANCH   1  16
ATOM     13  C   UNL     1      -1.401   6.155  -1.685  0.00  0.00    +0.029 A 
ATOM     14  C   UNL     1      -1.121   5.369  -2.796  0.00  0.00    +0.023 A 
ATOM     15  C   UNL     1      -0.817   4.032  -2.635  0.00  0.00    +0.004 A 
ATOM     16  C   UNL     1      -0.791   3.474  -1.369  0.00  0.00    -0.059 A 
ATOM     17  C   UNL     1      -1.074   4.253  -0.262  0.00  0.00    +0.004 A 
ATOM     18  C   UNL     1      -1.373   5.592  -0.415  0.00  0.00    +0.023 A 
BRANCH  13  20
ATOM     19  C   UNL     1      -1.825   8.079  -3.188  0.00  0.00    +0.129 C 
ATOM     20  N   UNL     1      -1.709   7.508  -1.844  0.00  0.00    -0.336 N 
ATOM     21  C   UNL     1      -1.917   8.355  -0.667  0.00  0.00    +0.129 C 
ENDBRANCH  13  20
ENDBRANCH   1  16
BRANCH   1  22
ATOM     22  C   UNL     1      -1.699   1.171  -1.496  0.00  0.00    +0.095 C 
BRANCH  22  23
ATOM     23  N   UNL     1      -1.357  -0.251  -1.403  0.00  0.00    -0.301 N 
ATOM     24  C   UNL     1      -2.318  -1.186  -1.536  0.00  0.00    +0.300 C 
ATOM     25  O   UNL     1      -3.470  -0.849  -1.734  0.00  0.00    -0.253 OA
ATOM     26  N   UNL     1      -2.003  -2.493  -1.451  0.00  0.00    -0.299 N 
ATOM     27  H   UNL     1      -0.315  -0.555  -1.224  0.00  0.00    +0.150 HD
ATOM     28  H   UNL     1      -0.962  -2.797  -1.272  0.00  0.00    +0.150 HD
BRANCH  26  29
ATOM     29  C   UNL     1      -3.049  -3.510  -1.596  0.00  0.00    +0.106 C 
BRANCH  29  30
ATOM     30  C   UNL     1      -2.429  -4.902  -1.458  0.00  0.00    +0.023 C 
BRANCH  30  31
ATOM     31  C   UNL     1      -3.521  -5.963  -1.610  0.00  0.00    +0.036 C 
BRANCH  31  32
ATOM     32  C   UNL     1      -2.910  -7.334  -1.474  0.00  0.00    -0.047 A 
ATOM     33  C   UNL     1      -2.442  -7.996  -2.594  0.00  0.00    +0.003 A 
ATOM     34  C   UNL     1      -1.878  -9.252  -2.468  0.00  0.00    +0.000 A 
ATOM     35  C   UNL     1      -1.791  -9.850  -1.225  0.00  0.00    +0.000 A 
ATOM     36  C   UNL     1      -2.265  -9.190  -0.106  0.00  0.00    +0.000 A 
ATOM     37  C   UNL     1      -2.824  -7.932  -0.231  0.00  0.00    +0.003 A 
ENDBRANCH  31  32
ENDBRANCH  30  31
ENDBRANCH  29  30
ENDBRANCH  26  29
ENDBRANCH  22  23
ENDBRANCH   1  22
TORSDOF 9
