REMARK  Name = ZINC09221440
REMARK  5 active torsions:
REMARK  status: ('A' for Active; 'I' for Inactive)
REMARK    1  A    between atoms: C_1  and  C_2
REMARK    2  A    between atoms: C_4  and  C_14
REMARK    3  A    between atoms: C_5  and  C_13
REMARK    4  A    between atoms: C_14  and  C_16
REMARK    5  A    between atoms: C_16  and  N_17
REMARK                            x       y       z     vdW  Elec       q    Type
REMARK                         _______ _______ _______ _____ _____    ______ ____
ROOT
ATOM      1  C   UNL     1       6.726   5.652   0.403  0.00  0.00    +0.197 C 
ENDROOT
BRANCH   1   2
ATOM      2  N   UNL     1       6.958   7.098   0.418  0.00  0.00    -0.216 N 
ATOM      3  C   UNL     1       7.319   7.820  -0.663  0.00  0.00    +0.251 C 
ATOM      4  O   UNL     1       7.505   7.413  -1.790  0.00  0.00    -0.272 OA
ATOM      5  C   UNL     1       7.438   9.243  -0.174  0.00  0.00    +0.139 C 
ATOM      6  C   UNL     1       8.848   9.773  -0.388  0.00  0.00    +0.040 C 
ATOM      7  C   UNL     1       8.909  11.266  -0.050  0.00  0.00    +0.008 C 
ATOM      8  C   UNL     1       8.110  12.047  -1.105  0.00  0.00    +0.043 C 
ATOM      9  C   UNL     1       6.786  11.380  -1.288  0.00  0.00    -0.005 A 
ATOM     10  C   UNL     1       6.430  10.126  -0.890  0.00  0.00    -0.005 A 
ATOM     11  C   UNL     1       5.124   9.731  -1.178  0.00  0.00    +0.014 A 
ATOM     12  C   UNL     1       4.285  10.575  -1.820  0.00  0.00    +0.046 A 
ATOM     13  S   UNL     1       5.321  12.011  -2.060  0.00  0.00    -0.101 S 
ATOM     14  N   UNL     1       7.112   9.163   1.253  0.00  0.00    -0.281 N 
ATOM     15  C   UNL     1       6.844   7.867   1.508  0.00  0.00    +0.310 C 
ATOM     16  O   UNL     1       6.534   7.445   2.605  0.00  0.00    -0.252 OA
ATOM     17  H   UNL     1       7.092   9.897   1.887  0.00  0.00    +0.152 HD
ENDBRANCH   1   2
BRANCH   1  18
ATOM     18  C   UNL     1       5.276   5.379   0.097  0.00  0.00    +0.183 C 
ATOM     19  O   UNL     1       4.511   6.302  -0.090  0.00  0.00    -0.290 OA
BRANCH  18  23
ATOM     20  C   UNL     1       5.081   0.288   0.189  0.00  0.00    +0.064 C 
ATOM     21  C   UNL     1       4.723   1.747   0.070  0.00  0.00    +0.023 A 
ATOM     22  C   UNL     1       5.575   2.773   0.224  0.00  0.00    +0.034 A 
ATOM     23  C   UNL     1       4.790   3.999   0.025  0.00  0.00    +0.040 A 
ATOM     24  C   UNL     1       3.500   3.584  -0.243  0.00  0.00    +0.033 A 
ATOM     25  N   UNL     1       3.478   2.237  -0.216  0.00  0.00    -0.302 N 
ATOM     26  C   UNL     1       2.344   1.452  -0.441  0.00  0.00    +0.138 A 
ATOM     27  C   UNL     1       2.412   0.380  -1.323  0.00  0.00    +0.047 A 
ATOM     28  C   UNL     1       1.281  -0.389  -1.536  0.00  0.00    +0.005 A 
ATOM     29  C   UNL     1       0.117  -0.057  -0.858  0.00  0.00    +0.020 A 
ATOM     30  C   UNL     1       0.121   1.022   0.004  0.00  0.00    +0.113 A 
ATOM     31  N   UNL     1       1.214   1.737   0.187  0.00  0.00    -0.238 NA
ATOM     32  C   UNL     1       2.322   4.482  -0.520  0.00  0.00    +0.064 C 
ENDBRANCH  18  23
ENDBRANCH   1  18
TORSDOF 3
