REMARK  Name = ZINC35566923
REMARK  19 active torsions:
REMARK  status: ('A' for Active; 'I' for Inactive)
REMARK    1  A    between atoms: C_1  and  C_2
REMARK    2  A    between atoms: C_2  and  C_3
REMARK    3  A    between atoms: C_3  and  C_4
REMARK    4  A    between atoms: C_4  and  C_5
REMARK    5  A    between atoms: C_5  and  O_6
REMARK    6  A    between atoms: O_6  and  C_7
REMARK    7  A    between atoms: C_10  and  C_16
REMARK    8  A    between atoms: C_12  and  O_13
REMARK    9  A    between atoms: O_13  and  C_14
REMARK   10  A    between atoms: C_14  and  C_15
REMARK   11  A    between atoms: C_18  and  C_29
REMARK   12  A    between atoms: N_22  and  C_23
REMARK   13  A    between atoms: C_23  and  C_24
REMARK   14  A    between atoms: C_24  and  C_25
REMARK   15  A    between atoms: C_25  and  O_26
REMARK   16  A    between atoms: O_26  and  C_27
REMARK   17  A    between atoms: C_29  and  C_31
REMARK   18  A    between atoms: C_32  and  C_37
REMARK   19  A    between atoms: C_34  and  C_36
REMARK                            x       y       z     vdW  Elec       q    Type
REMARK                         _______ _______ _______ _____ _____    ______ ____
ROOT
ATOM      1  C   UNL     1       3.094  -6.018  -6.788  0.00  0.00    +0.145 C 
ATOM      2  C   UNL     1       2.400  -6.563  -8.015  0.00  0.00    +0.077 C 
ATOM      3  C   UNL     1       3.112  -6.144  -9.085  0.00  0.00    +0.249 C 
ATOM      4  C   UNL     1       4.258  -5.337  -8.620  0.00  0.00    +0.288 C 
ATOM      5  O   UNL     1       5.085  -4.818  -9.345  0.00  0.00    -0.266 OA
ATOM      6  N   UNL     1       4.253  -5.261  -7.276  0.00  0.00    -0.283 N 
ATOM      7  O   UNL     1       2.820  -6.420 -10.378  0.00  0.00    -0.282 OA
ENDROOT
BRANCH   1  11
ATOM      8  C   UNL     1       0.455  -3.441  -4.624  0.00  0.00    +0.162 A 
ATOM      9  C   UNL     1       1.153  -4.438  -3.961  0.00  0.00    +0.050 A 
ATOM     10  C   UNL     1       2.005  -5.269  -4.663  0.00  0.00    +0.009 A 
ATOM     11  C   UNL     1       2.163  -5.109  -6.027  0.00  0.00    -0.019 A 
ATOM     12  C   UNL     1       1.470  -4.116  -6.695  0.00  0.00    +0.055 A 
ATOM     13  C   UNL     1       0.610  -3.283  -5.997  0.00  0.00    +0.162 A 
BRANCH   8  14
ATOM     14  O   UNL     1      -0.384  -2.622  -3.934  0.00  0.00    -0.488 OA
BRANCH  14  15
ATOM     15  C   UNL     1      -0.493  -2.842  -2.526  0.00  0.00    +0.229 C 
BRANCH  15  16
ATOM     16  C   UNL     1      -1.474  -1.833  -1.927  0.00  0.00    +0.041 C 
BRANCH  16  17
ATOM     17  C   UNL     1      -1.591  -2.069  -0.420  0.00  0.00    +0.003 C 
BRANCH  17  19
ATOM     18  C   UNL     1      -2.689  -1.295   1.687  0.00  0.00    +0.004 C 
ATOM     19  C   UNL     1      -2.572  -1.059   0.180  0.00  0.00    -0.003 C 
ENDBRANCH  17  19
ENDBRANCH  16  17
ENDBRANCH  15  16
ENDBRANCH  14  15
ENDBRANCH   8  14
BRANCH  13  20
ATOM     20  O   UNL     1      -0.077  -2.310  -6.654  0.00  0.00    -0.489 OA
BRANCH  20  21
ATOM     21  C   UNL     1       0.086  -2.244  -8.072  0.00  0.00    +0.226 C 
ATOM     22  C   UNL     1      -0.747  -1.087  -8.628  0.00  0.00    +0.048 C 
ENDBRANCH  20  21
ENDBRANCH  13  20
ENDBRANCH   1  11
BRANCH   2  23
ATOM     23  C   UNL     1       1.187  -7.390  -8.039  0.00  0.00    +0.203 C 
ATOM     24  O   UNL     1       0.638  -7.634  -9.099  0.00  0.00    -0.286 OA
BRANCH  23  25
ATOM     25  C   UNL     1       0.636  -7.921  -6.788  0.00  0.00    +0.082 A 
ATOM     26  C   UNL     1      -0.566  -8.579  -6.555  0.00  0.00    +0.057 A 
ATOM     27  N   UNL     1      -0.795  -8.945  -5.319  0.00  0.00    -0.249 NA
ATOM     28  C   UNL     1       0.065  -8.701  -4.356  0.00  0.00    +0.076 A 
ATOM     29  S   UNL     1       1.326  -7.910  -5.141  0.00  0.00    -0.069 S 
ATOM     30  C   UNL     1      -0.048  -9.053  -2.894  0.00  0.00    +0.073 C 
ATOM     31  C   UNL     1      -1.550  -8.857  -7.662  0.00  0.00    +0.067 C 
ENDBRANCH  23  25
ENDBRANCH   2  23
BRANCH   6  32
ATOM     32  C   UNL     1       5.228  -4.548  -6.447  0.00  0.00    +0.111 C 
BRANCH  32  33
ATOM     33  C   UNL     1       6.377  -5.492  -6.087  0.00  0.00    +0.047 C 
BRANCH  33  34
ATOM     34  C   UNL     1       7.396  -4.748  -5.221  0.00  0.00    +0.161 C 
BRANCH  34  35
ATOM     35  O   UNL     1       8.469  -5.630  -4.884  0.00  0.00    -0.383 OA
ATOM     36  C   UNL     1       9.481  -5.030  -4.072  0.00  0.00    +0.193 C 
ENDBRANCH  34  35
ENDBRANCH  33  34
ENDBRANCH  32  33
ENDBRANCH   6  32
TORSDOF 14
