REMARK  Name = ZINC66961324
REMARK  7 active torsions:
REMARK  status: ('A' for Active; 'I' for Inactive)
REMARK    1  A    between atoms: C_1  and  C_2
REMARK    2  A    between atoms: C_2  and  O_3
REMARK    3  A    between atoms: O_3  and  C_4
REMARK    4  A    between atoms: C_9  and  C_10
REMARK    5  A    between atoms: C_11  and  C_12
REMARK    6  A    between atoms: C_17  and  C_20
REMARK    7  A    between atoms: C_22  and  C_26
REMARK                            x       y       z     vdW  Elec       q    Type
REMARK                         _______ _______ _______ _____ _____    ______ ____
ROOT
ATOM      1  C   UNL     1      -6.383  -1.207   0.057  0.00  0.00    +0.243 C 
ATOM      2  O   UNL     1      -6.248   0.003   0.062  0.00  0.00    -0.270 OA
ATOM      3  N   UNL     1      -7.618  -1.747   0.066  0.00  0.00    -0.261 N 
ATOM      4  C   UNL     1      -8.736  -0.924   0.081  0.00  0.00    +0.165 A 
ATOM      5  N   UNL     1     -10.003  -1.272   0.096  0.00  0.00    -0.225 NA
ATOM      6  C   UNL     1     -10.964  -0.357   0.110  0.00  0.00    +0.082 A 
ATOM      7  C   UNL     1     -10.566   0.950   0.106  0.00  0.00    +0.077 A 
ATOM      8  S   UNL     1      -8.792   0.758   0.091  0.00  0.00    -0.060 S 
ATOM      9  H   UNL     1      -7.726  -2.711   0.061  0.00  0.00    +0.157 HD
ENDROOT
BRANCH   6  10
ATOM     10  C   UNL     1     -12.401  -0.736   0.127  0.00  0.00    +0.019 A 
ATOM     11  C   UNL     1     -12.916  -2.041   0.236  0.00  0.00    +0.042 A 
ATOM     12  C   UNL     1     -14.280  -1.940   0.213  0.00  0.00    +0.102 A 
ATOM     13  N   UNL     1     -14.605  -0.608   0.092  0.00  0.00    -0.356 N 
ATOM     14  H   UNL     1     -15.505  -0.248   0.050  0.00  0.00    +0.165 HD
ATOM     15  C   UNL     1     -13.462   0.120   0.045  0.00  0.00    +0.093 A 
BRANCH  12  16
ATOM     16  C   UNL     1     -15.229  -3.055   0.300  0.00  0.00    +0.258 C 
ATOM     17  O   UNL     1     -14.819  -4.196   0.405  0.00  0.00    -0.269 OA
ATOM     18  N   UNL     1     -16.555  -2.816   0.265  0.00  0.00    -0.324 N 
ATOM     19  H   UNL     1     -16.881  -1.906   0.181  0.00  0.00    +0.145 HD
ATOM     20  H   UNL     1     -17.182  -3.553   0.323  0.00  0.00    +0.145 HD
ENDBRANCH  12  16
ENDBRANCH   6  10
BRANCH   1  22
ATOM     21  C   UNL     1      -3.969  -1.533   0.032  0.00  0.00    +0.016 C 
ATOM     22  C   UNL     1      -5.207  -2.074   0.041  0.00  0.00    +0.068 C 
BRANCH  21  28
ATOM     23  C   UNL     1      -1.498  -1.846   0.006  0.00  0.00    +0.128 A 
ATOM     24  C   UNL     1      -0.390  -2.679  -0.003  0.00  0.00    +0.046 A 
ATOM     25  C   UNL     1      -0.553  -4.050  -0.009  0.00  0.00    +0.004 A 
ATOM     26  C   UNL     1      -1.823  -4.606  -0.006  0.00  0.00    +0.001 A 
ATOM     27  C   UNL     1      -2.937  -3.795   0.003  0.00  0.00    +0.011 A 
ATOM     28  C   UNL     1      -2.786  -2.404   0.016  0.00  0.00    +0.017 A 
BRANCH  23  29
ATOM     29  O   UNL     1      -1.339  -0.499   0.012  0.00  0.00    -0.492 OA
BRANCH  29  31
ATOM     30  C   UNL     1      -0.019   1.526   0.010  0.00  0.00    +0.048 C 
ATOM     31  C   UNL     1       0.002  -0.004   0.002  0.00  0.00    +0.226 C 
ENDBRANCH  29  31
ENDBRANCH  23  29
ENDBRANCH  21  28
ENDBRANCH   1  22
TORSDOF 6
