REMARK  Name = ZINC13146235
REMARK  6 active torsions:
REMARK  status: ('A' for Active; 'I' for Inactive)
REMARK    1  A    between atoms: C_6  and  C_7
REMARK    2  A    between atoms: C_13  and  C_17
REMARK    3  A    between atoms: C_17  and  O_19
REMARK    4  A    between atoms: O_19  and  C_20
REMARK    5  A    between atoms: C_20  and  C_21
REMARK    6  A    between atoms: N_26  and  C_27
REMARK                            x       y       z     vdW  Elec       q    Type
REMARK                         _______ _______ _______ _____ _____    ______ ____
ROOT
ATOM      1  O   UNL     1      -9.503   0.026   0.572  0.00  0.00    -0.454 OA
ENDROOT
BRANCH   1   2
ATOM      2  C   UNL     1     -10.730  -0.506   0.684  0.00  0.00    +0.329 C 
ATOM      3  O   UNL     1     -10.870  -1.707   0.690  0.00  0.00    -0.249 OA
BRANCH   2  10
ATOM      4  C   UNL     1     -13.878  -0.526   2.031  0.00  0.00    +0.110 C 
ATOM      5  C   UNL     1     -15.357  -0.606   1.621  0.00  0.00    +0.051 C 
ATOM      6  C   UNL     1     -15.240  -1.427   0.313  0.00  0.00    +0.099 C 
ATOM      7  C   UNL     1     -13.840  -1.148  -0.183  0.00  0.00    +0.218 C 
ATOM      8  O   UNL     1     -13.402  -1.507  -1.255  0.00  0.00    -0.276 OA
ATOM      9  N   UNL     1     -13.140  -0.439   0.743  0.00  0.00    -0.268 N 
ATOM     10  C   UNL     1     -11.933   0.393   0.801  0.00  0.00    +0.196 C 
ATOM     11  C   UNL     1     -11.786   1.240   2.087  0.00  0.00    +0.105 C 
ATOM     12  S   UNL     1     -13.508   1.126   2.755  0.00  0.00    -0.128 S 
BRANCH   4  18
ATOM     13  C   UNL     1     -12.937  -2.826   2.327  0.00  0.00    +0.009 A 
ATOM     14  C   UNL     1     -12.521  -3.874   3.126  0.00  0.00    +0.039 A 
ATOM     15  C   UNL     1     -12.605  -3.769   4.504  0.00  0.00    +0.123 A 
ATOM     16  C   UNL     1     -13.102  -2.613   5.080  0.00  0.00    +0.039 A 
ATOM     17  C   UNL     1     -13.514  -1.564   4.279  0.00  0.00    +0.009 A 
ATOM     18  C   UNL     1     -13.429  -1.670   2.904  0.00  0.00    -0.014 A 
ATOM     19  F   UNL     1     -12.202  -4.795   5.286  0.00  0.00    -0.205 F 
ENDBRANCH   4  18
ENDBRANCH   2  10
ENDBRANCH   1   2
BRANCH   1  20
ATOM     20  C   UNL     1      -8.390  -0.901   0.463  0.00  0.00    +0.328 C 
BRANCH  20  21
ATOM     21  C   UNL     1      -7.102  -0.127   0.347  0.00  0.00    +0.258 C 
ATOM     22  O   UNL     1      -7.120   1.085   0.356  0.00  0.00    -0.272 OA
ATOM     23  N   UNL     1      -5.930  -0.783   0.235  0.00  0.00    -0.237 N 
ATOM     24  C   UNL     1      -4.778  -0.091   0.131  0.00  0.00    +0.310 C 
ATOM     25  O   UNL     1      -4.796   1.124   0.139  0.00  0.00    -0.252 OA
ATOM     26  N   UNL     1      -3.606  -0.747   0.018  0.00  0.00    -0.269 N 
ATOM     27  H   UNL     1      -5.915  -1.753   0.228  0.00  0.00    +0.159 HD
ATOM     28  H   UNL     1      -3.597  -1.713  -0.066  0.00  0.00    +0.156 HD
BRANCH  26  29
ATOM     29  C   UNL     1      -2.400  -0.033   0.022  0.00  0.00    +0.038 A 
ATOM     30  C   UNL     1      -1.324  -0.481  -0.731  0.00  0.00    +0.027 A 
ATOM     31  C   UNL     1      -0.134   0.220  -0.724  0.00  0.00    +0.051 A 
ATOM     32  C   UNL     1      -0.012   1.378   0.030  0.00  0.00    +0.162 A 
ATOM     33  C   UNL     1      -1.088   1.831   0.784  0.00  0.00    +0.164 A 
ATOM     34  C   UNL     1      -2.281   1.124   0.780  0.00  0.00    +0.072 A 
ATOM     35  O   UNL     1      -0.988   2.965   1.530  0.00  0.00    -0.485 OA
ATOM     36  C   UNL     1       0.335   3.439   1.806  0.00  0.00    +0.270 C 
ATOM     37  C   UNL     1       1.139   3.406   0.499  0.00  0.00    +0.270 C 
ATOM     38  O   UNL     1       1.170   2.055   0.025  0.00  0.00    -0.485 OA
ENDBRANCH  26  29
ENDBRANCH  20  21
ENDBRANCH   1  20
TORSDOF 6
