REMARK  Name = ZINC16310152
REMARK  10 active torsions:
REMARK  status: ('A' for Active; 'I' for Inactive)
REMARK    1  A    between atoms: C_1  and  C_2
REMARK    2  A    between atoms: C_2  and  C_3
REMARK    3  A    between atoms: C_3  and  O_4
REMARK    4  A    between atoms: O_4  and  C_5
REMARK    5  A    between atoms: C_8  and  C_12
REMARK    6  A    between atoms: C_9  and  O_11
REMARK    7  A    between atoms: N_13  and  N_14
REMARK    8  A    between atoms: N_14  and  C_15
REMARK    9  A    between atoms: C_18  and  C_29
REMARK   10  A    between atoms: C_20  and  C_22
REMARK                            x       y       z     vdW  Elec       q    Type
REMARK                         _______ _______ _______ _____ _____    ______ ____
ROOT
ATOM      1  N   UNL     1       3.900  -6.317  -6.798  0.00  0.00    -0.210 N 
ATOM      2  C   UNL     1       4.497  -5.502  -7.859  0.00  0.00    +0.160 C 
ATOM      3  C   UNL     1       3.952  -7.699  -6.876  0.00  0.00    +0.145 A 
ATOM      4  C   UNL     1       3.381  -8.486  -5.873  0.00  0.00    +0.073 A 
ATOM      5  C   UNL     1       3.458  -9.871  -5.994  0.00  0.00    +0.077 A 
ATOM      6  N   UNL     1       4.068 -10.396  -7.056  0.00  0.00    -0.227 NA
ATOM      7  C   UNL     1       4.598  -9.618  -7.988  0.00  0.00    +0.162 A 
ATOM      8  N   UNL     1       4.540  -8.295  -7.908  0.00  0.00    -0.211 NA
ENDROOT
BRANCH   7   9
ATOM      9  C   UNL     1       5.269 -10.242  -9.153  0.00  0.00    +0.019 A 
ATOM     10  C   UNL     1       5.333 -11.630  -9.263  0.00  0.00    +0.012 A 
ATOM     11  C   UNL     1       5.958 -12.206 -10.350  0.00  0.00    +0.016 A 
ATOM     12  C   UNL     1       6.522 -11.407 -11.330  0.00  0.00    +0.018 A 
ATOM     13  C   UNL     1       6.462 -10.028 -11.226  0.00  0.00    +0.016 A 
ATOM     14  C   UNL     1       5.834  -9.443 -10.146  0.00  0.00    +0.012 A 
ATOM     15 BR   UNL     1       7.378 -12.203 -12.817  0.00  0.00    -0.050 Br
ENDBRANCH   7   9
BRANCH   5  16
ATOM     16  C   UNL     1       2.868 -10.751  -4.955  0.00  0.00    +0.001 A 
ATOM     17  C   UNL     1       2.226 -10.194  -3.850  0.00  0.00    +0.010 A 
ATOM     18  C   UNL     1       1.679 -11.017  -2.887  0.00  0.00    +0.001 A 
ATOM     19  C   UNL     1       1.766 -12.392  -3.017  0.00  0.00    +0.000 A 
ATOM     20  C   UNL     1       2.402 -12.949  -4.111  0.00  0.00    +0.001 A 
ATOM     21  C   UNL     1       2.948 -12.136  -5.084  0.00  0.00    +0.010 A 
ENDBRANCH   5  16
BRANCH   1  23
ATOM     22  C   UNL     1       3.230  -4.404  -5.634  0.00  0.00    +0.142 C 
ATOM     23  N   UNL     1       3.278  -5.699  -5.706  0.00  0.00    -0.186 NA
BRANCH  22  27
ATOM     24  C   UNL     1       1.341  -2.529  -2.322  0.00  0.00    +0.124 A 
ATOM     25  C   UNL     1       1.908  -1.756  -3.328  0.00  0.00    +0.046 A 
ATOM     26  C   UNL     1       2.522  -2.360  -4.404  0.00  0.00    +0.016 A 
ATOM     27  C   UNL     1       2.575  -3.754  -4.485  0.00  0.00    +0.036 A 
ATOM     28  C   UNL     1       2.003  -4.532  -3.468  0.00  0.00    +0.129 A 
ATOM     29  C   UNL     1       1.394  -3.914  -2.390  0.00  0.00    +0.091 A 
BRANCH  28  30
ATOM     30  O   UNL     1       2.050  -5.887  -3.539  0.00  0.00    -0.506 OA
ATOM     31  H   UNL     1       2.832  -6.276  -3.124  0.00  0.00    +0.292 HD
ENDBRANCH  28  30
BRANCH  24  32
ATOM     32  O   UNL     1       0.738  -1.926  -1.265  0.00  0.00    -0.492 OA
BRANCH  32  33
ATOM     33  C   UNL     1       0.718  -0.497  -1.257  0.00  0.00    +0.229 C 
BRANCH  33  35
ATOM     34  C   UNL     1      -0.019   1.526   0.010  0.00  0.00    +0.007 C 
ATOM     35  C   UNL     1       0.002  -0.004   0.002  0.00  0.00    +0.038 C 
ENDBRANCH  33  35
ENDBRANCH  32  33
ENDBRANCH  24  32
ENDBRANCH  22  27
ENDBRANCH   1  23
TORSDOF 8
