REMARK  Name = ZINC22989780
REMARK  6 active torsions:
REMARK  status: ('A' for Active; 'I' for Inactive)
REMARK    1  A    between atoms: C_4  and  C_7
REMARK    2  A    between atoms: C_7  and  N_8
REMARK    3  A    between atoms: C_10  and  C_19
REMARK    4  A    between atoms: C_11  and  C_13
REMARK    5  A    between atoms: C_20  and  C_21
REMARK    6  A    between atoms: N_23  and  C_24
REMARK                            x       y       z     vdW  Elec       q    Type
REMARK                         _______ _______ _______ _____ _____    ______ ____
ROOT
ATOM      1  N   UNL     1       2.808   0.973  -1.503  0.00  0.00    -0.266 N 
ATOM      2  C   UNL     1       4.007   1.306  -2.008  0.00  0.00    +0.117 A 
ATOM      3  C   UNL     1       3.979   1.052  -3.367  0.00  0.00    +0.021 A 
ATOM      4  C   UNL     1       2.638   0.534  -3.662  0.00  0.00    +0.101 A 
ATOM      5  N   UNL     1       1.979   0.505  -2.526  0.00  0.00    -0.170 NA
ENDROOT
BRANCH   4   6
ATOM      6  C   UNL     1       2.125   0.122  -4.991  0.00  0.00    +0.021 A 
ATOM      7  C   UNL     1       1.234  -0.949  -5.107  0.00  0.00    +0.013 A 
ATOM      8  C   UNL     1       0.784  -1.294  -6.370  0.00  0.00    +0.020 A 
ATOM      9  C   UNL     1       1.227  -0.576  -7.466  0.00  0.00    +0.111 A 
ATOM     10  N   UNL     1       2.068   0.430  -7.325  0.00  0.00    -0.263 NA
ATOM     11  C   UNL     1       2.519   0.799  -6.144  0.00  0.00    +0.120 A 
ENDBRANCH   4   6
BRANCH   3  12
ATOM     12  C   UNL     1       5.072   1.263  -4.324  0.00  0.00    +0.016 C 
ATOM     13  C   UNL     1       6.258   1.750  -3.898  0.00  0.00    +0.068 C 
BRANCH  13  14
ATOM     14  C   UNL     1       7.313   1.953  -4.822  0.00  0.00    +0.241 C 
ATOM     15  O   UNL     1       7.151   1.690  -6.000  0.00  0.00    -0.270 OA
ATOM     16  N   UNL     1       8.497   2.439  -4.398  0.00  0.00    -0.281 N 
ATOM     17  H   UNL     1       8.617   2.758  -3.352  0.00  0.00    +0.155 HD
BRANCH  16  18
ATOM     18  C   UNL     1       9.573   2.537  -5.287  0.00  0.00    +0.052 A 
ATOM     19  C   UNL     1       9.729   1.603  -6.311  0.00  0.00    +0.028 A 
ATOM     20  C   UNL     1      10.805   1.743  -7.170  0.00  0.00    +0.050 A 
ATOM     21  C   UNL     1      11.693   2.794  -6.978  0.00  0.00    +0.154 A 
ATOM     22  N   UNL     1      11.517   3.659  -5.993  0.00  0.00    -0.234 NA
ATOM     23  C   UNL     1      10.501   3.561  -5.158  0.00  0.00    +0.136 A 
ATOM     24  N   UNL     1      12.787   2.940  -7.838  0.00  0.00    -0.222 N 
ATOM     25  C   UNL     1      13.729   3.917  -7.777  0.00  0.00    +0.116 A 
ATOM     26  C   UNL     1      14.610   3.700  -8.780  0.00  0.00    +0.041 A 
ATOM     27  C   UNL     1      14.193   2.563  -9.483  0.00  0.00    +0.135 A 
ATOM     28  N   UNL     1      13.103   2.108  -8.920  0.00  0.00    -0.173 NA
ENDBRANCH  16  18
ENDBRANCH  13  14
ENDBRANCH   3  12
BRANCH   1  29
ATOM     29  C   UNL     1       2.425   1.089  -0.094  0.00  0.00    +0.178 C 
BRANCH  29  33
ATOM     30  C   UNL     1      -1.115   3.457   0.229  0.00  0.00    +0.000 A 
ATOM     31  C   UNL     1      -1.212   2.087   0.071  0.00  0.00    +0.000 A 
ATOM     32  C   UNL     1      -0.067   1.320  -0.028  0.00  0.00    +0.005 A 
ATOM     33  C   UNL     1       1.176   1.924   0.020  0.00  0.00    -0.026 A 
ATOM     34  C   UNL     1       1.273   3.295   0.174  0.00  0.00    +0.005 A 
ATOM     35  C   UNL     1       0.127   4.061   0.278  0.00  0.00    +0.000 A 
ENDBRANCH  29  33
ENDBRANCH   1  29
TORSDOF 6
