REMARK  Name = ZINC19853960
REMARK  5 active torsions:
REMARK  status: ('A' for Active; 'I' for Inactive)
REMARK    1  A    between atoms: C_5  and  C_7
REMARK    2  A    between atoms: C_7  and  O_8
REMARK    3  A    between atoms: O_8  and  C_9
REMARK    4  A    between atoms: C_13  and  C_15
REMARK    5  A    between atoms: C_25  and  C_27
REMARK                            x       y       z     vdW  Elec       q    Type
REMARK                         _______ _______ _______ _____ _____    ______ ____
ROOT
ATOM      1  C   UNL     1      -3.047  -6.554  -0.014  0.00  0.00    +0.024 C 
ATOM      2  C   UNL     1      -3.201  -7.906  -0.122  0.00  0.00    +0.079 C 
ATOM      3  C   UNL     1      -4.548  -8.537  -0.239  0.00  0.00    +0.132 C 
ATOM      4  N   UNL     1      -5.556  -7.970  -0.845  0.00  0.00    -0.385 N 
ATOM      5  N   UNL     1      -4.625  -9.808   0.370  0.00  0.00    -0.153 N 
ATOM      6  C   UNL     1      -3.449 -10.509   0.532  0.00  0.00    +0.181 C 
ATOM      7  N   UNL     1      -2.232 -10.098   0.273  0.00  0.00    -0.152 NA
ATOM      8  C   UNL     1      -2.037  -8.828  -0.138  0.00  0.00    +0.273 C 
ATOM      9  O   UNL     1      -0.938  -8.446  -0.506  0.00  0.00    -0.268 OA
ATOM     10  S   UNL     1      -4.020 -12.056   1.185  0.00  0.00    -0.033 S 
ATOM     11  C   UNL     1      -5.755 -11.638   1.296  0.00  0.00    +0.131 C 
ATOM     12  N   UNL     1      -5.779 -10.420   0.811  0.00  0.00    -0.164 NA
ATOM     13  H   UNL     1      -5.449  -7.094  -1.248  0.00  0.00    +0.157 HD
ATOM     14  H   UNL     1      -6.412  -8.424  -0.892  0.00  0.00    +0.157 HD
ENDROOT
BRANCH  11  15
ATOM     15  C   UNL     1      -6.877 -12.459   1.803  0.00  0.00    +0.027 A 
ATOM     16  C   UNL     1      -6.641 -13.746   2.287  0.00  0.00    +0.012 A 
ATOM     17  C   UNL     1      -7.691 -14.505   2.759  0.00  0.00    +0.001 A 
ATOM     18  C   UNL     1      -8.977 -13.994   2.753  0.00  0.00    +0.001 A 
ATOM     19  C   UNL     1      -9.219 -12.719   2.275  0.00  0.00    +0.020 A 
ATOM     20  C   UNL     1      -8.175 -11.946   1.805  0.00  0.00    +0.051 A 
ATOM     21 CL   UNL     1      -8.479 -10.343   1.212  0.00  0.00    -0.083 Cl
ENDBRANCH  11  15
BRANCH   1  26
ATOM     22  C   UNL     1      -0.080  -4.258  -0.031  0.00  0.00    +0.122 A 
ATOM     23  C   UNL     1       0.773  -4.922   0.843  0.00  0.00    +0.046 A 
ATOM     24  C   UNL     1       0.382  -6.110   1.433  0.00  0.00    +0.004 A 
ATOM     25  C   UNL     1      -0.858  -6.647   1.160  0.00  0.00    +0.008 A 
ATOM     26  C   UNL     1      -1.726  -5.987   0.281  0.00  0.00    -0.021 A 
ATOM     27  C   UNL     1      -1.330  -4.782  -0.311  0.00  0.00    +0.053 A 
BRANCH  22  28
ATOM     28  O   UNL     1       0.311  -3.091  -0.606  0.00  0.00    -0.487 OA
BRANCH  28  29
ATOM     29  C   UNL     1       1.614  -2.608  -0.273  0.00  0.00    +0.266 C 
BRANCH  29  34
ATOM     30  C   UNL     1       1.139   0.402  -2.502  0.00  0.00    +0.000 A 
ATOM     31  C   UNL     1       2.342   1.062  -2.335  0.00  0.00    +0.001 A 
ATOM     32  C   UNL     1       3.310   0.536  -1.501  0.00  0.00    +0.020 A 
ATOM     33  C   UNL     1       3.075  -0.653  -0.833  0.00  0.00    +0.047 A 
ATOM     34  C   UNL     1       1.871  -1.313  -1.000  0.00  0.00    +0.008 A 
ATOM     35  C   UNL     1       0.903  -0.785  -1.835  0.00  0.00    +0.008 A 
ATOM     36 CL   UNL     1       4.290  -1.316   0.214  0.00  0.00    -0.083 Cl
ENDBRANCH  29  34
ENDBRANCH  28  29
ENDBRANCH  22  28
ENDBRANCH   1  26
TORSDOF 5
