REMARK  Name = ZINC35867285
REMARK  8 active torsions:
REMARK  status: ('A' for Active; 'I' for Inactive)
REMARK    1  A    between atoms: C_1  and  C_2
REMARK    2  A    between atoms: C_2  and  C_3
REMARK    3  A    between atoms: C_8  and  N_9
REMARK    4  A    between atoms: C_25  and  C_27
REMARK    5  A    between atoms: C_27  and  C_29
REMARK    6  A    between atoms: C_27  and  C_30
REMARK    7  A    between atoms: C_30  and  C_31
REMARK    8  A    between atoms: C_33  and  C_37
REMARK                            x       y       z     vdW  Elec       q    Type
REMARK                         _______ _______ _______ _____ _____    ______ ____
ROOT
ATOM      1  N   UNL     1       2.471  -2.149   0.703  0.00  0.00    -0.269 N 
ATOM      2  C   UNL     1       3.201  -1.016   0.697  0.00  0.00    +0.307 C 
ATOM      3  O   UNL     1       3.140  -0.258  -0.252  0.00  0.00    -0.252 OA
ATOM      4  N   UNL     1       3.999  -0.723   1.743  0.00  0.00    -0.282 N 
ATOM      5  C   UNL     1       4.171  -1.681   2.844  0.00  0.00    +0.128 C 
ATOM      6  C   UNL     1       5.669  -1.960   3.020  0.00  0.00    +0.125 C 
ATOM      7  N   UNL     1       6.382  -0.677   3.080  0.00  0.00    -0.312 N 
ATOM      8  C   UNL     1       6.210   0.282   1.979  0.00  0.00    +0.125 C 
ATOM      9  C   UNL     1       4.716   0.559   1.800  0.00  0.00    +0.128 C 
ATOM     10  C   UNL     1       7.201  -0.376   4.154  0.00  0.00    +0.133 A 
ATOM     11  C   UNL     1       8.608  -0.567   4.063  0.00  0.00    +0.051 A 
ATOM     12  C   UNL     1       9.394  -1.066   2.934  0.00  0.00    -0.025 A 
ATOM     13  C   UNL     1      10.729  -1.152   3.108  0.00  0.00    -0.004 A 
ATOM     14  S   UNL     1      11.017  -0.583   4.762  0.00  0.00    -0.073 S 
ATOM     15  C   UNL     1       9.340  -0.227   5.218  0.00  0.00    +0.114 A 
ATOM     16  N   UNL     1       8.745   0.236   6.300  0.00  0.00    -0.224 NA
ATOM     17  C   UNL     1       7.436   0.393   6.325  0.00  0.00    +0.135 A 
ATOM     18  N   UNL     1       6.687   0.098   5.277  0.00  0.00    -0.216 NA
ATOM     19  C   UNL     1      11.745  -1.627   2.115  0.00  0.00    +0.046 C 
ATOM     20  C   UNL     1      11.090  -1.655   0.727  0.00  0.00    -0.009 C 
ATOM     21  C   UNL     1       9.734  -2.358   0.839  0.00  0.00    +0.008 C 
ATOM     22  C   UNL     1       8.753  -1.476   1.611  0.00  0.00    +0.037 C 
ATOM     23  C   UNL     1      11.989  -2.417  -0.249  0.00  0.00    +0.008 C 
ATOM     24  H   UNL     1       2.494  -2.736   1.474  0.00  0.00    +0.156 HD
ENDROOT
BRANCH   1  30
ATOM     25  C   UNL     1       1.315  -3.798  -0.630  0.00  0.00    -0.026 A 
ATOM     26  C   UNL     1       0.531  -4.119  -1.721  0.00  0.00    +0.005 A 
ATOM     27  C   UNL     1       0.115  -3.128  -2.591  0.00  0.00    +0.000 A 
ATOM     28  C   UNL     1       0.483  -1.813  -2.372  0.00  0.00    +0.002 A 
ATOM     29  C   UNL     1       1.267  -1.486  -1.284  0.00  0.00    +0.023 A 
ATOM     30  C   UNL     1       1.681  -2.478  -0.405  0.00  0.00    +0.038 A 
BRANCH  25  32
ATOM     31  C   UNL     1       0.796  -4.965   1.495  0.00  0.00    +0.009 C 
ATOM     32  C   UNL     1       1.768  -4.879   0.317  0.00  0.00    +0.033 C 
ENDBRANCH  25  32
ENDBRANCH   1  30
BRANCH  17  33
ATOM     33  C   UNL     1       6.780   0.924   7.573  0.00  0.00    +0.054 C 
ATOM     34  C   UNL     1       7.334   2.314   7.888  0.00  0.00    +0.015 C 
BRANCH  33  35
ATOM     35  C   UNL     1       7.072  -0.018   8.743  0.00  0.00    +0.007 C 
ATOM     36  C   UNL     1       6.305   0.452   9.980  0.00  0.00    +0.004 C 
ENDBRANCH  33  35
ENDBRANCH  17  33
TORSDOF 4
