REMARK  Name = ZINC10040394
REMARK  13 active torsions:
REMARK  status: ('A' for Active; 'I' for Inactive)
REMARK    1  A    between atoms: C_1  and  C_2
REMARK    2  A    between atoms: C_2  and  C_3
REMARK    3  A    between atoms: C_2  and  C_4
REMARK    4  A    between atoms: C_4  and  C_6
REMARK    5  A    between atoms: C_4  and  N_24
REMARK    6  A    between atoms: N_8  and  N_9
REMARK    7  A    between atoms: C_10  and  C_11
REMARK    8  A    between atoms: C_14  and  O_19
REMARK    9  A    between atoms: C_15  and  O_17
REMARK   10  A    between atoms: O_17  and  C_18
REMARK   11  A    between atoms: O_19  and  C_20
REMARK   12  A    between atoms: C_20  and  C_21
REMARK   13  A    between atoms: C_25  and  C_27
REMARK                            x       y       z     vdW  Elec       q    Type
REMARK                         _______ _______ _______ _____ _____    ______ ____
ROOT
ATOM      1  C   UNL     1       4.789   5.537  -0.731  0.00  0.00    +0.253 C 
ATOM      2  O   UNL     1       3.695   5.966  -1.034  0.00  0.00    -0.272 OA
ATOM      3  N   UNL     1       5.898   6.235  -1.046  0.00  0.00    -0.205 N 
ATOM      4  H   UNL     1       6.766   5.929  -0.741  0.00  0.00    +0.177 HD
ENDROOT
BRANCH   3   5
ATOM      5  N   UNL     1       5.796   7.403  -1.814  0.00  0.00    -0.188 NA
ATOM      6  C   UNL     1       6.864   8.075  -2.117  0.00  0.00    +0.138 C 
BRANCH   6   7
ATOM      7  C   UNL     1       6.757   9.303  -2.925  0.00  0.00    -0.002 A 
ATOM      8  C   UNL     1       5.507   9.742  -3.370  0.00  0.00    +0.013 A 
ATOM      9  C   UNL     1       5.409  10.895  -4.121  0.00  0.00    +0.050 A 
ATOM     10  C   UNL     1       6.549  11.615  -4.445  0.00  0.00    +0.163 A 
ATOM     11  C   UNL     1       7.799  11.180  -4.010  0.00  0.00    +0.162 A 
ATOM     12  C   UNL     1       7.905  10.029  -3.252  0.00  0.00    +0.059 A 
BRANCH  11  13
ATOM     13  O   UNL     1       8.915  11.888  -4.331  0.00  0.00    -0.491 OA
ATOM     14  C   UNL     1      10.163  11.384  -3.851  0.00  0.00    +0.277 C 
ENDBRANCH  11  13
BRANCH  10  15
ATOM     15  O   UNL     1       6.447  12.747  -5.190  0.00  0.00    -0.479 OA
BRANCH  15  16
ATOM     16  C   UNL     1       5.136  13.136  -5.603  0.00  0.00    +0.324 C 
BRANCH  16  17
ATOM     17  C   UNL     1       5.219  14.405  -6.413  0.00  0.00    +0.248 C 
ATOM     18  O   UNL     1       6.296  14.924  -6.616  0.00  0.00    -0.272 OA
ATOM     19  N   UNL     1       4.097  14.961  -6.911  0.00  0.00    -0.327 N 
ATOM     20  H   UNL     1       3.236  14.545  -6.748  0.00  0.00    +0.145 HD
ATOM     21  H   UNL     1       4.151  15.777  -7.432  0.00  0.00    +0.145 HD
ENDBRANCH  16  17
ENDBRANCH  15  16
ENDBRANCH  10  15
ENDBRANCH   6   7
ENDBRANCH   3   5
BRANCH   1  22
ATOM     22  C   UNL     1       4.907   4.223  -0.003  0.00  0.00    +0.163 C 
BRANCH  22  23
ATOM     23  N   UNL     1       3.661   3.467  -0.154  0.00  0.00    -0.300 N 
ATOM     24  C   UNL     1       3.672   2.123  -0.052  0.00  0.00    +0.245 C 
ATOM     25  O   UNL     1       4.715   1.538   0.165  0.00  0.00    -0.270 OA
ATOM     26  H   UNL     1       2.829   3.933  -0.328  0.00  0.00    +0.150 HD
BRANCH  24  27
ATOM     27  C   UNL     1       2.415   1.360  -0.205  0.00  0.00    +0.038 A 
ATOM     28  C   UNL     1       1.216   2.029  -0.455  0.00  0.00    +0.014 A 
ATOM     29  C   UNL     1       0.046   1.313  -0.595  0.00  0.00    +0.022 A 
ATOM     30  C   UNL     1       0.059  -0.068  -0.490  0.00  0.00    +0.059 A 
ATOM     31  C   UNL     1       1.246  -0.738  -0.242  0.00  0.00    +0.060 A 
ATOM     32  C   UNL     1       2.423  -0.032  -0.100  0.00  0.00    +0.034 A 
ATOM     33 CL   UNL     1       1.254  -2.469  -0.112  0.00  0.00    -0.082 Cl
ATOM     34 CL   UNL     1      -1.418  -0.963  -0.668  0.00  0.00    -0.082 Cl
ENDBRANCH  24  27
ENDBRANCH  22  23
BRANCH  22  36
ATOM     35  C   UNL     1       3.961   5.199   2.093  0.00  0.00    +0.009 C 
ATOM     36  C   UNL     1       5.168   4.484   1.482  0.00  0.00    +0.012 C 
ATOM     37  C   UNL     1       5.392   3.153   2.202  0.00  0.00    +0.009 C 
ENDBRANCH  22  36
ENDBRANCH   1  22
TORSDOF 10
