REMARK  Name = ZINC12149137
REMARK  10 active torsions:
REMARK  status: ('A' for Active; 'I' for Inactive)
REMARK    1  A    between atoms: C_1  and  O_2
REMARK    2  A    between atoms: O_2  and  C_3
REMARK    3  A    between atoms: C_6  and  C_9
REMARK    4  A    between atoms: C_9  and  C_10
REMARK    5  A    between atoms: C_10  and  N_62
REMARK    6  A    between atoms: C_11  and  N_62
REMARK    7  A    between atoms: N_22  and  C_25
REMARK    8  A    between atoms: C_25  and  C_26
REMARK    9  A    between atoms: C_31  and  O_32
REMARK   10  A    between atoms: O_32  and  C_33
REMARK                            x       y       z     vdW  Elec       q    Type
REMARK                         _______ _______ _______ _____ _____    ______ ____
ROOT
ATOM      1  C   UNL     1       0.891  -0.518   1.138  0.00  0.00    -0.067 C 
ATOM      2  C   UNL     1       0.002  -0.004   0.002  0.00  0.00    -0.011 C 
ATOM      3  C   UNL     1      -0.019   1.524   0.010  0.00  0.00    +0.035 C 
ATOM      4  C   UNL     1       1.419   2.039  -0.001  0.00  0.00    -0.023 A 
ATOM      5  C   UNL     1       2.441   1.228   0.360  0.00  0.00    -0.006 A 
ATOM      6  S   UNL     1       3.902   2.224   0.199  0.00  0.00    -0.073 S 
ATOM      7  C   UNL     1       3.141   3.720  -0.348  0.00  0.00    +0.116 A 
ATOM      8  C   UNL     1       1.767   3.393  -0.388  0.00  0.00    +0.076 A 
ATOM      9  C   UNL     1       0.864   4.428  -0.807  0.00  0.00    +0.263 A 
ATOM     10  O   UNL     1      -0.340   4.249  -0.875  0.00  0.00    -0.267 OA
ATOM     11  N   UNL     1       1.435   5.615  -1.119  0.00  0.00    -0.294 N 
ATOM     12  C   UNL     1       2.770   5.835  -1.049  0.00  0.00    +0.203 A 
ATOM     13  N   UNL     1       3.629   4.913  -0.671  0.00  0.00    -0.230 NA
ATOM     14  C   UNL     1       2.355  -0.201   0.798  0.00  0.00    +0.027 C 
ENDROOT
BRANCH   1  15
ATOM     15  N   UNL     1       0.718  -1.977   1.270  0.00  0.00    +0.381 N 
ATOM     16  H   UNL     1      -0.257  -2.223   1.062  0.00  0.00    -0.086 HD
ATOM     17  H   UNL     1       1.341  -2.454   0.607  0.00  0.00    -0.086 HD
BRANCH  15  18
ATOM     18  C   UNL     1       1.047  -2.409   2.642  0.00  0.00    -0.078 C 
BRANCH  18  19
ATOM     19  C   UNL     1       0.858  -3.924   2.749  0.00  0.00    +0.016 C 
BRANCH  19  23
ATOM     20  C   UNL     1       1.804  -5.200   6.716  0.00  0.00    +0.120 A 
ATOM     21  C   UNL     1       0.507  -4.827   6.397  0.00  0.00    +0.046 A 
ATOM     22  C   UNL     1       0.203  -4.415   5.114  0.00  0.00    +0.007 A 
ATOM     23  C   UNL     1       1.192  -4.374   4.148  0.00  0.00    -0.049 A 
ATOM     24  C   UNL     1       2.485  -4.751   4.462  0.00  0.00    +0.007 A 
ATOM     25  C   UNL     1       2.794  -5.158   5.745  0.00  0.00    +0.046 A 
BRANCH  20  27
ATOM     26  C   UNL     1       3.462  -5.975   8.234  0.00  0.00    +0.277 C 
ATOM     27  O   UNL     1       2.105  -5.606   7.978  0.00  0.00    -0.495 OA
ENDBRANCH  20  27
ENDBRANCH  19  23
ENDBRANCH  18  19
ENDBRANCH  15  18
ENDBRANCH   1  15
BRANCH  11  28
ATOM     28  C   UNL     1       0.569   6.714  -1.554  0.00  0.00    +0.165 C 
BRANCH  28  29
ATOM     29  C   UNL     1       0.131   7.513  -0.354  0.00  0.00    +0.014 A 
ATOM     30  C   UNL     1      -1.122   7.310   0.192  0.00  0.00    +0.009 A 
ATOM     31  C   UNL     1      -1.524   8.044   1.293  0.00  0.00    +0.001 A 
ATOM     32  C   UNL     1      -0.674   8.982   1.850  0.00  0.00    +0.004 A 
ATOM     33  C   UNL     1       0.579   9.188   1.308  0.00  0.00    +0.046 A 
ATOM     34  C   UNL     1       0.987   8.450   0.206  0.00  0.00    +0.125 A 
BRANCH  34  35
ATOM     35  O   UNL     1       2.222   8.647  -0.327  0.00  0.00    -0.495 OA
ATOM     36  C   UNL     1       3.050   9.627   0.302  0.00  0.00    +0.277 C 
ENDBRANCH  34  35
ENDBRANCH  28  29
ENDBRANCH  11  28
TORSDOF 8
