REMARK  Name = ZINC09966210
REMARK  12 active torsions:
REMARK  status: ('A' for Active; 'I' for Inactive)
REMARK    1  A    between atoms: C_1  and  C_2
REMARK    2  A    between atoms: C_5  and  C_34
REMARK    3  A    between atoms: C_6  and  N_8
REMARK    4  A    between atoms: C_17  and  S_18
REMARK    5  A    between atoms: S_18  and  C_19
REMARK    6  A    between atoms: C_19  and  C_20
REMARK    7  A    between atoms: N_22  and  C_23
REMARK    8  A    between atoms: C_23  and  C_24
REMARK    9  A    between atoms: C_24  and  C_25
REMARK   10  A    between atoms: C_25  and  C_26
REMARK   11  A    between atoms: C_26  and  O_28
REMARK   12  A    between atoms: O_28  and  C_29
REMARK                            x       y       z     vdW  Elec       q    Type
REMARK                         _______ _______ _______ _____ _____    ______ ____
ROOT
ATOM      1  N   UNL     1       4.379   1.813  -0.030  0.00  0.00    -0.255 N 
ATOM      2  C   UNL     1       3.696   0.645  -0.030  0.00  0.00    +0.268 A 
ATOM      3  O   UNL     1       4.261  -0.435  -0.041  0.00  0.00    -0.267 OA
ATOM      4  C   UNL     1       2.267   0.755  -0.015  0.00  0.00    +0.076 A 
ATOM      5  C   UNL     1       1.312  -0.341  -0.012  0.00  0.00    -0.023 A 
ATOM      6  C   UNL     1       0.002  -0.004   0.002  0.00  0.00    -0.004 A 
ATOM      7  S   UNL     1      -0.022   1.771   0.012  0.00  0.00    -0.073 S 
ATOM      8  C   UNL     1       1.719   2.058  -0.003  0.00  0.00    +0.117 A 
ATOM      9  N   UNL     1       2.446   3.168  -0.004  0.00  0.00    -0.215 NA
ATOM     10  C   UNL     1       3.765   3.031  -0.018  0.00  0.00    +0.178 A 
ATOM     11  C   UNL     1      -1.173  -0.932   0.007  0.00  0.00    +0.043 C 
ATOM     12  C   UNL     1      -0.687  -2.336  -0.379  0.00  0.00    +0.005 C 
ATOM     13  C   UNL     1       0.560  -2.666   0.446  0.00  0.00    +0.005 C 
ATOM     14  C   UNL     1       1.735  -1.808  -0.023  0.00  0.00    +0.037 C 
ENDROOT
BRANCH   1  20
ATOM     15  C   UNL     1       8.585   1.696  -2.577  0.00  0.00    +0.044 C 
ATOM     16  C   UNL     1       7.843   1.712  -1.265  0.00  0.00    -0.048 A 
ATOM     17  C   UNL     1       8.545   1.685  -0.074  0.00  0.00    +0.004 A 
ATOM     18  C   UNL     1       7.867   1.701   1.131  0.00  0.00    +0.005 A 
ATOM     19  C   UNL     1       6.487   1.747   1.149  0.00  0.00    -0.026 A 
ATOM     20  C   UNL     1       5.779   1.770  -0.045  0.00  0.00    +0.055 A 
ATOM     21  C   UNL     1       6.462   1.755  -1.254  0.00  0.00    +0.030 A 
ATOM     22  C   UNL     1       5.750   1.769   2.463  0.00  0.00    +0.046 C 
ENDBRANCH   1  20
BRANCH  10  23
ATOM     23  S   UNL     1       4.766   4.482  -0.019  0.00  0.00    -0.078 S 
BRANCH  23  24
ATOM     24  C   UNL     1       3.477   5.753  -0.000  0.00  0.00    +0.173 C 
BRANCH  24  25
ATOM     25  C   UNL     1       4.117   7.117   0.001  0.00  0.00    +0.223 C 
ATOM     26  O   UNL     1       5.325   7.220  -0.009  0.00  0.00    -0.275 OA
ATOM     27  N   UNL     1       3.346   8.223   0.015  0.00  0.00    -0.315 N 
ATOM     28  H   UNL     1       2.250   8.129   0.025  0.00  0.00    +0.149 HD
BRANCH  27  29
ATOM     29  C   UNL     1       3.968   9.549   0.016  0.00  0.00    +0.105 C 
BRANCH  29  30
ATOM     30  C   UNL     1       2.879  10.623   0.033  0.00  0.00    +0.030 C 
BRANCH  30  31
ATOM     31  C   UNL     1       3.528  12.008   0.034  0.00  0.00    +0.122 C 
BRANCH  31  32
ATOM     32  C   UNL     1       2.455  13.066   0.050  0.00  0.00    +0.307 C 
ATOM     33  O   UNL     1       1.290  12.745   0.059  0.00  0.00    -0.251 OA
BRANCH  32  34
ATOM     34  O   UNL     1       2.793  14.365   0.054  0.00  0.00    -0.468 OA
ATOM     35  C   UNL     1       1.708  15.329   0.070  0.00  0.00    +0.280 C 
ENDBRANCH  32  34
ENDBRANCH  31  32
ENDBRANCH  30  31
ENDBRANCH  29  30
ENDBRANCH  27  29
ENDBRANCH  24  25
ENDBRANCH  23  24
ENDBRANCH  10  23
TORSDOF 9
