REMARK  Name = ZINC03335957
REMARK  4 active torsions:
REMARK  status: ('A' for Active; 'I' for Inactive)
REMARK    1  A    between atoms: C_1  and  N_2
REMARK    2  A    between atoms: C_6  and  S_7
REMARK    3  A    between atoms: S_7  and  C_8
REMARK    4  A    between atoms: C_13  and  N_14
REMARK                            x       y       z     vdW  Elec       q    Type
REMARK                         _______ _______ _______ _____ _____    ______ ____
ROOT
ATOM      1  C   UNL     1       0.922  -0.713  -0.068  0.00  0.00    +0.036 A 
ATOM      2  C   UNL     1       1.968   0.194  -0.146  0.00  0.00    +0.018 A 
ATOM      3  C   UNL     1       1.706   1.551  -0.181  0.00  0.00    +0.021 A 
ATOM      4  C   UNL     1       0.401   2.009  -0.139  0.00  0.00    +0.043 A 
ATOM      5  C   UNL     1      -0.649   1.110  -0.061  0.00  0.00    +0.043 A 
ATOM      6  C   UNL     1      -0.394  -0.252  -0.026  0.00  0.00    +0.040 A 
ATOM      7 CL   UNL     1       0.079   3.714  -0.184  0.00  0.00    -0.083 Cl
ENDROOT
BRANCH   6   8
ATOM      8  N   UNL     1      -1.454  -1.163   0.053  0.00  0.00    -0.357 N 
ATOM      9  H   UNL     1      -2.369  -0.841   0.082  0.00  0.00    +0.142 HD
ATOM     10  H   UNL     1      -1.274  -2.115   0.078  0.00  0.00    +0.142 HD
ENDBRANCH   6   8
BRANCH   1  11
ATOM     11  S   UNL     1       1.254  -2.443  -0.024  0.00  0.00    -0.048 S 
BRANCH  11  17
ATOM     12  C   UNL     1       1.243  -5.285   1.668  0.00  0.00    +0.152 C 
ATOM     13  N   UNL     1       0.992  -3.986   2.296  0.00  0.00    -0.311 N 
ATOM     14  C   UNL     1       0.726  -3.745   3.615  0.00  0.00    +0.225 A 
ATOM     15  N   UNL     1       0.566  -2.458   3.751  0.00  0.00    -0.137 NA
ATOM     16  N   UNL     1       0.717  -1.873   2.616  0.00  0.00    -0.122 NA
ATOM     17  C   UNL     1       0.975  -2.764   1.686  0.00  0.00    +0.196 A 
ENDBRANCH  11  17
ENDBRANCH   1  11
TORSDOF 3
