REMARK  Name = ZINC35747368
REMARK  15 active torsions:
REMARK  status: ('A' for Active; 'I' for Inactive)
REMARK    1  A    between atoms: C_1  and  C_2
REMARK    2  A    between atoms: C_7  and  O_8
REMARK    3  A    between atoms: O_8  and  C_9
REMARK    4  A    between atoms: C_9  and  C_10
REMARK    5  A    between atoms: C_10  and  C_12
REMARK    6  A    between atoms: C_10  and  O_38
REMARK    7  A    between atoms: C_12  and  N_13
REMARK    8  A    between atoms: N_13  and  C_14
REMARK    9  A    between atoms: N_13  and  C_19
REMARK   10  A    between atoms: C_14  and  C_15
REMARK   11  A    between atoms: C_15  and  C_16
REMARK   12  A    between atoms: C_16  and  C_17
REMARK   13  A    between atoms: C_16  and  C_18
REMARK   14  A    between atoms: C_19  and  C_20
REMARK   15  A    between atoms: C_26  and  C_31
REMARK                            x       y       z     vdW  Elec       q    Type
REMARK                         _______ _______ _______ _____ _____    ______ ____
ROOT
ATOM      1  N   UNL     1       0.147   0.238   7.402  0.00  0.00    +0.386 N 
ATOM      2  H   UNL     1       0.793   0.784   6.851  0.00  0.00    -0.081 HD
ENDROOT
BRANCH   1   3
ATOM      3  C   UNL     1      -0.431  -0.824   6.567  0.00  0.00    -0.043 C 
BRANCH   3   4
ATOM      4  C   UNL     1      -1.050  -0.206   5.312  0.00  0.00    +0.135 C 
BRANCH   4   5
ATOM      5  O   UNL     1      -2.190   0.574   5.677  0.00  0.00    -0.390 OA
ATOM      6  H   UNL     1      -2.886   0.070   6.120  0.00  0.00    +0.210 HD
ENDBRANCH   4   5
BRANCH   4   7
ATOM      7  C   UNL     1      -1.479  -1.320   4.354  0.00  0.00    +0.258 C 
BRANCH   7   8
ATOM      8  O   UNL     1      -1.950  -0.744   3.134  0.00  0.00    -0.489 OA
BRANCH   8  15
ATOM      9  C   UNL     1      -2.885   0.375   0.715  0.00  0.00    +0.047 C 
ATOM     10  C   UNL     1      -2.842  -1.111   0.960  0.00  0.00    -0.009 A 
ATOM     11  C   UNL     1      -3.265  -1.986  -0.022  0.00  0.00    +0.007 A 
ATOM     12  C   UNL     1      -3.227  -3.350   0.203  0.00  0.00    +0.000 A 
ATOM     13  C   UNL     1      -2.765  -3.842   1.410  0.00  0.00    +0.004 A 
ATOM     14  C   UNL     1      -2.340  -2.971   2.394  0.00  0.00    +0.046 A 
ATOM     15  C   UNL     1      -2.372  -1.602   2.169  0.00  0.00    +0.124 A 
ENDBRANCH   8  15
ENDBRANCH   7   8
ENDBRANCH   4   7
ENDBRANCH   3   4
ENDBRANCH   1   3
BRANCH   1  16
ATOM     16  C   UNL     1      -0.927   1.108   7.901  0.00  0.00    -0.078 C 
BRANCH  16  17
ATOM     17  C   UNL     1      -1.988   0.257   8.601  0.00  0.00    -0.016 C 
BRANCH  17  18
ATOM     18  C   UNL     1      -3.160   1.147   9.020  0.00  0.00    -0.019 C 
ATOM     19  C   UNL     1      -4.274   0.279   9.608  0.00  0.00    +0.007 C 
ATOM     20  C   UNL     1      -2.686   2.151  10.073  0.00  0.00    +0.007 C 
ENDBRANCH  17  18
ENDBRANCH  16  17
ENDBRANCH   1  16
BRANCH   1  21
ATOM     21  C   UNL     1       0.858  -0.363   8.538  0.00  0.00    -0.003 C 
BRANCH  21  22
ATOM     22  C   UNL     1       1.587   0.713   9.301  0.00  0.00    +0.094 A 
ATOM     23  N   UNL     1       2.270   0.385  10.428  0.00  0.00    -0.312 N 
ATOM     24  H   UNL     1       2.280  -0.538  10.726  0.00  0.00    +0.170 HD
ATOM     25  C   UNL     1       2.935   1.315  11.138  0.00  0.00    +0.260 A 
ATOM     26  O   UNL     1       3.544   1.005  12.147  0.00  0.00    -0.267 OA
ATOM     27  C   UNL     1       2.915   2.675  10.690  0.00  0.00    +0.080 A 
ATOM     28  C   UNL     1       3.548   3.849  11.278  0.00  0.00    +0.004 A 
ATOM     29  C   UNL     1       3.389   5.049  10.669  0.00  0.00    +0.056 A 
ATOM     30  S   UNL     1       2.369   4.663   9.259  0.00  0.00    -0.076 S 
ATOM     31  C   UNL     1       2.183   2.918   9.517  0.00  0.00    +0.116 A 
ATOM     32  N   UNL     1       1.554   1.943   8.865  0.00  0.00    -0.229 NA
BRANCH  28  33
ATOM     33  C   UNL     1       4.351   3.732  12.519  0.00  0.00    -0.016 A 
ATOM     34  C   UNL     1       3.832   3.067  13.628  0.00  0.00    +0.010 A 
ATOM     35  C   UNL     1       4.583   2.961  14.780  0.00  0.00    +0.020 A 
ATOM     36  C   UNL     1       5.851   3.514  14.836  0.00  0.00    +0.041 A 
ATOM     37  C   UNL     1       6.372   4.176  13.738  0.00  0.00    +0.020 A 
ATOM     38  C   UNL     1       5.630   4.283  12.579  0.00  0.00    +0.010 A 
ATOM     39 CL   UNL     1       6.791   3.377  16.289  0.00  0.00    -0.084 Cl
ENDBRANCH  28  33
ENDBRANCH  21  22
ENDBRANCH   1  21
TORSDOF 12
