REMARK  Name = ZINC36603340
REMARK  20 active torsions:
REMARK  status: ('A' for Active; 'I' for Inactive)
REMARK    1  A    between atoms: C_1  and  C_2
REMARK    2  A    between atoms: C_5  and  C_7
REMARK    3  A    between atoms: C_7  and  N_8
REMARK    4  A    between atoms: N_8  and  C_9
REMARK    5  A    between atoms: C_9  and  C_11
REMARK    6  A    between atoms: C_9  and  C_21
REMARK    7  A    between atoms: C_14  and  O_19
REMARK    8  A    between atoms: C_15  and  O_17
REMARK    9  A    between atoms: O_17  and  C_18
REMARK   10  A    between atoms: O_19  and  C_20
REMARK   11  A    between atoms: N_23  and  C_24
REMARK   12  A    between atoms: C_24  and  C_25
REMARK   13  A    between atoms: C_24  and  C_26
REMARK   14  A    between atoms: C_24  and  C_27
REMARK   15  A    between atoms: C_27  and  C_28
REMARK   16  A    between atoms: C_28  and  C_29
REMARK   17  A    between atoms: C_28  and  C_30
REMARK   18  A    between atoms: C_28  and  C_31
REMARK   19  A    between atoms: C_32  and  C_34
REMARK   20  A    between atoms: C_34  and  C_35
REMARK                            x       y       z     vdW  Elec       q    Type
REMARK                         _______ _______ _______ _____ _____    ______ ____
ROOT
ATOM      1  C   UNL     1       2.601  -1.562  -1.927  0.00  0.00    +0.193 C 
ENDROOT
BRANCH   1   2
ATOM      2  C   UNL     1       3.583  -1.858  -0.823  0.00  0.00    -0.015 A 
ATOM      3  C   UNL     1       3.469  -1.212   0.394  0.00  0.00    +0.010 A 
ATOM      4  C   UNL     1       4.367  -1.480   1.409  0.00  0.00    +0.050 A 
ATOM      5  C   UNL     1       5.385  -2.399   1.209  0.00  0.00    +0.162 A 
ATOM      6  C   UNL     1       5.500  -3.049  -0.016  0.00  0.00    +0.162 A 
ATOM      7  C   UNL     1       4.593  -2.779  -1.028  0.00  0.00    +0.055 A 
BRANCH   6   8
ATOM      8  O   UNL     1       6.497  -3.951  -0.217  0.00  0.00    -0.491 OA
ATOM      9  C   UNL     1       6.554  -4.580  -1.499  0.00  0.00    +0.277 C 
ENDBRANCH   6   8
BRANCH   5  10
ATOM     10  O   UNL     1       6.270  -2.663   2.207  0.00  0.00    -0.491 OA
ATOM     11  C   UNL     1       6.091  -1.958   3.437  0.00  0.00    +0.277 C 
ENDBRANCH   5  10
ENDBRANCH   1   2
BRANCH   1  12
ATOM     12  C   UNL     1       2.916  -0.218  -2.533  0.00  0.00    +0.239 C 
ATOM     13  O   UNL     1       2.114   0.688  -2.450  0.00  0.00    -0.273 OA
ATOM     14  N   UNL     1       4.090  -0.024  -3.167  0.00  0.00    -0.308 N 
ATOM     15  H   UNL     1       4.731  -0.749  -3.233  0.00  0.00    +0.149 HD
BRANCH  14  16
ATOM     16  C   UNL     1       4.396   1.282  -3.756  0.00  0.00    +0.030 C 
ATOM     17  C   UNL     1       3.449   1.548  -4.928  0.00  0.00    +0.031 C 
ATOM     18  C   UNL     1       4.219   2.373  -2.699  0.00  0.00    +0.031 C 
BRANCH  16  19
ATOM     19  C   UNL     1       5.842   1.288  -4.258  0.00  0.00    +0.031 C 
BRANCH  19  20
ATOM     20  C   UNL     1       6.723   0.504  -3.284  0.00  0.00    -0.036 C 
ATOM     21  C   UNL     1       6.685  -0.983  -3.644  0.00  0.00    +0.010 C 
ATOM     22  C   UNL     1       8.163   1.014  -3.375  0.00  0.00    +0.010 C 
ATOM     23  C   UNL     1       6.204   0.697  -1.857  0.00  0.00    +0.010 C 
ENDBRANCH  19  20
ENDBRANCH  16  19
ENDBRANCH  14  16
ENDBRANCH   1  12
BRANCH   1  24
ATOM     24  N   UNL     1       1.242  -1.543  -1.379  0.00  0.00    -0.278 N 
ATOM     25  C   UNL     1       0.672  -2.687  -0.953  0.00  0.00    +0.221 C 
ATOM     26  O   UNL     1       1.283  -3.732  -1.022  0.00  0.00    -0.275 OA
BRANCH  24  27
ATOM     27  C   UNL     1       0.503  -0.281  -1.296  0.00  0.00    +0.183 C 
BRANCH  27  32
ATOM     28  C   UNL     1      -0.527   1.444  -5.922  0.00  0.00    +0.086 C 
ATOM     29  C   UNL     1      -0.664   0.718  -4.608  0.00  0.00    +0.102 A 
ATOM     30  C   UNL     1      -1.709  -0.041  -4.234  0.00  0.00    +0.045 A 
ATOM     31  C   UNL     1      -1.420  -0.525  -2.937  0.00  0.00    +0.046 A 
ATOM     32  C   UNL     1      -0.215  -0.032  -2.597  0.00  0.00    +0.122 A 
ATOM     33  O   UNL     1       0.240   0.716  -3.615  0.00  0.00    -0.463 OA
ENDBRANCH  27  32
ENDBRANCH  24  27
BRANCH  25  34
ATOM     34  C   UNL     1      -0.726  -2.668  -0.390  0.00  0.00    +0.131 C 
BRANCH  34  35
ATOM     35  C   UNL     1      -1.125  -4.065   0.011  0.00  0.00    -0.039 A 
ATOM     36  C   UNL     1      -1.747  -4.895  -0.903  0.00  0.00    +0.004 A 
ATOM     37  C   UNL     1      -2.114  -6.176  -0.536  0.00  0.00    +0.000 A 
ATOM     38  C   UNL     1      -1.857  -6.628   0.745  0.00  0.00    +0.000 A 
ATOM     39  C   UNL     1      -1.234  -5.799   1.659  0.00  0.00    +0.000 A 
ATOM     40  C   UNL     1      -0.864  -4.519   1.290  0.00  0.00    +0.004 A 
ENDBRANCH  34  35
ENDBRANCH  25  34
ENDBRANCH   1  24
TORSDOF 12
