REMARK  Name = ZINC22613329
REMARK  7 active torsions:
REMARK  status: ('A' for Active; 'I' for Inactive)
REMARK    1  A    between atoms: C_1  and  C_2
REMARK    2  A    between atoms: C_5  and  C_9
REMARK    3  A    between atoms: C_7  and  O_8
REMARK    4  A    between atoms: C_9  and  O_11
REMARK    5  A    between atoms: O_11  and  C_12
REMARK    6  A    between atoms: C_12  and  C_14
REMARK    7  A    between atoms: C_12  and  C_15
REMARK                            x       y       z     vdW  Elec       q    Type
REMARK                         _______ _______ _______ _____ _____    ______ ____
ROOT
ATOM      1  C   UNL     1      -2.527  -2.774  -0.011  0.00  0.00    +0.259 C 
ATOM      2  C   UNL     1      -2.910  -3.013   1.450  0.00  0.00    +0.062 C 
ENDROOT
BRANCH   1   3
ATOM      3  C   UNL     1      -2.403  -4.097  -0.721  0.00  0.00    +0.260 C 
ATOM      4  O   UNL     1      -1.308  -4.522  -1.025  0.00  0.00    -0.271 OA
ATOM      5  N   UNL     1      -3.508  -4.809  -1.019  0.00  0.00    -0.268 N 
ATOM      6  C   UNL     1      -4.844  -4.270  -0.727  0.00  0.00    +0.114 C 
ATOM      7  C   UNL     1      -5.677  -5.389  -0.096  0.00  0.00    +0.024 C 
ATOM      8  C   UNL     1      -5.837  -6.521  -1.109  0.00  0.00    +0.038 C 
ATOM      9  C   UNL     1      -4.497  -6.926  -1.665  0.00  0.00    -0.026 A 
ATOM     10  C   UNL     1      -3.403  -6.077  -1.606  0.00  0.00    +0.040 A 
ATOM     11  C   UNL     1      -2.181  -6.480  -2.134  0.00  0.00    +0.024 A 
ATOM     12  C   UNL     1      -2.056  -7.726  -2.714  0.00  0.00    +0.002 A 
ATOM     13  C   UNL     1      -3.147  -8.573  -2.769  0.00  0.00    +0.000 A 
ATOM     14  C   UNL     1      -4.363  -8.175  -2.247  0.00  0.00    +0.005 A 
ENDBRANCH   1   3
BRANCH   1  15
ATOM     15  O   UNL     1      -1.257  -2.072  -0.070  0.00  0.00    -0.449 OA
BRANCH  15  16
ATOM     16  C   UNL     1      -1.302  -0.726  -0.075  0.00  0.00    +0.340 C 
ATOM     17  O   UNL     1      -2.373  -0.154  -0.031  0.00  0.00    -0.245 OA
BRANCH  16  22
ATOM     18  C   UNL     1       3.587   2.307  -0.305  0.00  0.00    +0.047 C 
ATOM     19  C   UNL     1       2.306   1.514  -0.244  0.00  0.00    -0.009 A 
ATOM     20  C   UNL     1       2.351   0.132  -0.239  0.00  0.00    +0.008 A 
ATOM     21  C   UNL     1       1.183  -0.600  -0.184  0.00  0.00    +0.015 A 
ATOM     22  C   UNL     1      -0.049   0.055  -0.133  0.00  0.00    +0.062 A 
ATOM     23  C   UNL     1      -0.093   1.450  -0.138  0.00  0.00    +0.060 A 
ATOM     24  C   UNL     1       1.086   2.174  -0.194  0.00  0.00    +0.121 A 
BRANCH  24  25
ATOM     25  O   UNL     1       1.048   3.533  -0.199  0.00  0.00    -0.506 OA
ATOM     26  H   UNL     1       0.082   4.056  -0.159  0.00  0.00    +0.292 HD
ENDBRANCH  24  25
ENDBRANCH  16  22
ENDBRANCH  15  16
ENDBRANCH   1  15
TORSDOF 5
