REMARK  Name = ZINC28955946
REMARK  7 active torsions:
REMARK  status: ('A' for Active; 'I' for Inactive)
REMARK    1  A    between atoms: C_5  and  C_6
REMARK    2  A    between atoms: C_7  and  S_8
REMARK    3  A    between atoms: S_8  and  N_11
REMARK    4  A    between atoms: N_11  and  C_12
REMARK    5  A    between atoms: C_12  and  C_13
REMARK    6  A    between atoms: C_19  and  C_21
REMARK    7  A    between atoms: N_24  and  C_27
REMARK                            x       y       z     vdW  Elec       q    Type
REMARK                         _______ _______ _______ _____ _____    ______ ____
ROOT
ATOM      1  C   UNL     1      -0.455   3.279  -1.843  0.00  0.00    +0.023 C 
ATOM      2  C   UNL     1      -2.003   3.177  -1.875  0.00  0.00    +0.025 C 
ATOM      3  C   UNL     1      -2.281   2.583  -3.273  0.00  0.00    +0.108 C 
ATOM      4  N   UNL     1      -1.054   1.899  -3.709  0.00  0.00    -0.301 N 
ATOM      5  C   UNL     1      -0.043   2.018  -2.643  0.00  0.00    +0.112 C 
ATOM      6  C   UNL     1      -0.882   1.270  -4.888  0.00  0.00    +0.219 C 
ATOM      7  O   UNL     1       0.204   0.817  -5.181  0.00  0.00    -0.275 OA
ENDROOT
BRANCH   6   8
ATOM      8  C   UNL     1      -2.040   1.128  -5.842  0.00  0.00    +0.078 C 
ATOM      9  C   UNL     1      -2.731  -0.219  -5.612  0.00  0.00    +0.031 C 
ATOM     10  C   UNL     1      -3.866  -0.385  -6.625  0.00  0.00    +0.106 C 
ATOM     11  N   UNL     1      -3.323  -0.318  -7.988  0.00  0.00    -0.330 N 
ATOM     12  C   UNL     1      -2.698   0.986  -8.246  0.00  0.00    +0.106 C 
ATOM     13  C   UNL     1      -1.527   1.191  -7.283  0.00  0.00    +0.031 C 
BRANCH  11  14
ATOM     14  C   UNL     1      -4.309  -0.594  -8.931  0.00  0.00    +0.032 A 
ATOM     15  C   UNL     1      -4.598   0.313  -9.950  0.00  0.00    +0.040 A 
ATOM     16  C   UNL     1      -5.577  -0.001 -10.868  0.00  0.00    +0.084 A 
ATOM     17  N   UNL     1      -6.244  -1.137 -10.785  0.00  0.00    -0.367 N 
ATOM     18  C   UNL     1      -6.003  -2.019  -9.832  0.00  0.00    +0.084 A 
ATOM     19  C   UNL     1      -5.036  -1.783  -8.879  0.00  0.00    +0.040 A 
ATOM     20  H   UNL     1      -7.026  -1.372 -11.522  0.00  0.00    +0.165 HD
ENDBRANCH  11  14
ENDBRANCH   6   8
BRANCH   1  21
ATOM     21  C   UNL     1       0.069   3.214  -0.407  0.00  0.00    +0.111 C 
BRANCH  21  22
ATOM     22  N   UNL     1      -0.303   4.439   0.304  0.00  0.00    -0.190 NA
ATOM     23  H   UNL     1      -0.489   5.366  -0.257  0.00  0.00    +0.148 HD
BRANCH  22  24
ATOM     24  S   UNL     1      -0.202   4.500   1.956  0.00  0.00    +0.052 S 
ATOM     25  O   UNL     1      -0.598   5.810   2.339  0.00  0.00    -0.154 OA
ATOM     26  O   UNL     1      -0.851   3.335   2.446  0.00  0.00    -0.154 OA
BRANCH  24  28
ATOM     27  C   UNL     1       2.135   5.355   2.968  0.00  0.00    +0.035 C 
ATOM     28  C   UNL     1       1.501   4.344   2.381  0.00  0.00    +0.154 C 
BRANCH  27  33
ATOM     29  C   UNL     1       4.383   6.138   3.926  0.00  0.00    +0.017 A 
ATOM     30  C   UNL     1       5.694   5.788   4.162  0.00  0.00    +0.028 A 
ATOM     31  C   UNL     1       6.127   4.553   3.791  0.00  0.00    +0.079 A 
ATOM     32  S   UNL     1       4.652   3.835   3.087  0.00  0.00    -0.077 S 
ATOM     33  C   UNL     1       3.556   5.225   3.323  0.00  0.00    +0.015 A 
ATOM     34 CL   UNL     1       7.706   3.853   3.962  0.00  0.00    -0.076 Cl
ENDBRANCH  27  33
ENDBRANCH  24  28
ENDBRANCH  22  24
ENDBRANCH  21  22
ENDBRANCH   1  21
TORSDOF 7
