REMARK  Name = ZINC09361294
REMARK  4 active torsions:
REMARK  status: ('A' for Active; 'I' for Inactive)
REMARK    1  A    between atoms: C_15  and  C_17
REMARK    2  A    between atoms: C_17  and  C_19
REMARK    3  A    between atoms: C_23  and  N_25
REMARK    4  A    between atoms: N_30  and  C_33
REMARK                            x       y       z     vdW  Elec       q    Type
REMARK                         _______ _______ _______ _____ _____    ______ ____
ROOT
ATOM      1  C   UNL     1       1.208  -0.684  -0.013  0.00  0.00    +0.001 A 
ATOM      2  C   UNL     1       0.002  -0.004   0.002  0.00  0.00    +0.000 A 
ATOM      3  C   UNL     1      -0.017   1.380   0.010  0.00  0.00    +0.006 A 
ATOM      4  C   UNL     1       1.164   2.088   0.002  0.00  0.00    -0.021 A 
ATOM      5  C   UNL     1       2.387   1.410  -0.009  0.00  0.00    -0.019 A 
ATOM      6  C   UNL     1       2.398   0.013  -0.017  0.00  0.00    +0.008 A 
ATOM      7  C   UNL     1       3.663   2.153  -0.009  0.00  0.00    +0.022 C 
ATOM      8  C   UNL     1       3.661   3.459   0.328  0.00  0.00    +0.054 C 
ATOM      9  C   UNL     1       1.155   3.600  -0.009  0.00  0.00    +0.100 C 
ATOM     10  C   UNL     1       0.112   4.199   0.830  0.00  0.00    +0.113 C 
ATOM     11  C   UNL     1       0.799   4.494   2.216  0.00  0.00    +0.116 C 
ATOM     12  C   UNL     1       2.120   5.034   1.671  0.00  0.00    +0.141 C 
ATOM     13  C   UNL     1      -0.266   5.408   2.735  0.00  0.00    +0.232 C 
ATOM     14  O   UNL     1      -0.116   6.401   3.415  0.00  0.00    -0.274 OA
ATOM     15  N   UNL     1      -1.447   4.884   2.277  0.00  0.00    -0.210 N 
ATOM     16  C   UNL     1      -1.268   4.024   1.220  0.00  0.00    +0.232 C 
ATOM     17  O   UNL     1      -2.088   3.282   0.724  0.00  0.00    -0.274 OA
ATOM     18  N   UNL     1       2.372   4.271   0.390  0.00  0.00    -0.384 NA
ATOM     19  H   UNL     1       2.509   4.993  -0.327  0.00  0.00    +0.127 HD
ENDROOT
BRANCH  15  20
ATOM     20  C   UNL     1      -2.701   5.192   2.827  0.00  0.00    +0.048 A 
ATOM     21  C   UNL     1      -3.850   4.620   2.299  0.00  0.00    +0.028 A 
ATOM     22  C   UNL     1      -5.085   4.918   2.842  0.00  0.00    +0.051 A 
ATOM     23  C   UNL     1      -5.181   5.797   3.910  0.00  0.00    +0.166 A 
ATOM     24  C   UNL     1      -4.029   6.376   4.439  0.00  0.00    +0.168 A 
ATOM     25  C   UNL     1      -2.792   6.072   3.896  0.00  0.00    +0.073 A 
ATOM     26  O   UNL     1      -4.388   7.194   5.471  0.00  0.00    -0.453 OA
ATOM     27  C   UNL     1      -5.723   6.796   5.832  0.00  0.00    +0.466 C 
ATOM     28  O   UNL     1      -6.260   6.253   4.611  0.00  0.00    -0.453 OA
ENDBRANCH  15  20
BRANCH  12  29
ATOM     29  C   UNL     1       1.934   6.392   1.046  0.00  0.00    +0.183 C 
ATOM     30  O   UNL     1       1.718   6.488  -0.143  0.00  0.00    -0.290 OA
BRANCH  29  31
ATOM     31  C   UNL     1       2.015   7.603   1.879  0.00  0.00    +0.021 A 
ATOM     32  C   UNL     1       2.259   7.497   3.252  0.00  0.00    +0.011 A 
ATOM     33  C   UNL     1       2.338   8.636   4.024  0.00  0.00    +0.003 A 
ATOM     34  C   UNL     1       2.166   9.882   3.446  0.00  0.00    +0.033 A 
ATOM     35  C   UNL     1       1.920   9.995   2.089  0.00  0.00    +0.127 A 
ATOM     36  C   UNL     1       1.843   8.865   1.302  0.00  0.00    +0.044 A 
BRANCH  35  37
ATOM     37  N   UNL     1       1.739  11.332   1.481  0.00  0.00    +0.056 N 
ATOM     38  O   UNL     1       1.522  11.434   0.287  0.00  0.00    -0.126 OA
ATOM     39  O   UNL     1       1.806  12.331   2.175  0.00  0.00    -0.126 OA
ENDBRANCH  35  37
ENDBRANCH  29  31
ENDBRANCH  12  29
TORSDOF 4
