REMARK  Name = ZINC09253245
REMARK  7 active torsions:
REMARK  status: ('A' for Active; 'I' for Inactive)
REMARK    1  A    between atoms: C_3  and  C_6
REMARK    2  A    between atoms: C_6  and  C_8
REMARK    3  A    between atoms: C_6  and  N_72
REMARK    4  A    between atoms: C_8  and  N_9
REMARK    5  A    between atoms: C_10  and  C_12
REMARK    6  A    between atoms: N_15  and  S_18
REMARK    7  A    between atoms: S_18  and  C_21
REMARK                            x       y       z     vdW  Elec       q    Type
REMARK                         _______ _______ _______ _____ _____    ______ ____
ROOT
ATOM      1  C   UNL     1      -1.834   4.732  -5.139  0.00  0.00    +0.077 C 
ATOM      2  C   UNL     1      -2.499   5.411  -3.940  0.00  0.00    +0.030 C 
ATOM      3  C   UNL     1      -2.517   6.927  -4.162  0.00  0.00    +0.110 C 
ATOM      4  N   UNL     1      -3.164   7.208  -5.450  0.00  0.00    -0.177 NA
ATOM      5  C   UNL     1      -2.661   6.536  -6.656  0.00  0.00    +0.110 C 
ATOM      6  C   UNL     1      -2.641   5.024  -6.405  0.00  0.00    +0.030 C 
ENDROOT
BRANCH   1   8
ATOM      7  N   UNL     1      -1.122   2.748  -3.844  0.00  0.00    -0.316 N 
ATOM      8  C   UNL     1      -1.784   3.243  -4.908  0.00  0.00    +0.216 C 
ATOM      9  O   UNL     1      -2.340   2.491  -5.681  0.00  0.00    -0.276 OA
ATOM     10  H   UNL     1      -0.678   3.350  -3.226  0.00  0.00    +0.149 HD
BRANCH   7  11
ATOM     11  C   UNL     1      -1.074   1.301  -3.619  0.00  0.00    +0.096 C 
BRANCH  11  12
ATOM     12  C   UNL     1      -0.169   1.000  -2.423  0.00  0.00    +0.016 C 
BRANCH  12  18
ATOM     13  C   UNL     1      -2.014   1.415  -0.912  0.00  0.00    -0.078 C 
ATOM     14  C   UNL     1      -2.508   2.329   0.211  0.00  0.00    -0.019 C 
ATOM     15  C   UNL     1      -1.602   2.163   1.434  0.00  0.00    -0.004 C 
ATOM     16  C   UNL     1      -0.159   2.485   1.037  0.00  0.00    -0.019 C 
ATOM     17  C   UNL     1       0.267   1.567  -0.110  0.00  0.00    -0.078 C 
ATOM     18  N   UNL     1      -0.629   1.793  -1.264  0.00  0.00    +0.387 N 
ATOM     19  H   UNL     1      -0.608   2.789  -1.512  0.00  0.00    -0.081 HD
ENDBRANCH  12  18
BRANCH  12  22
ATOM     20  C   UNL     1       0.296  -2.617  -1.894  0.00  0.00    +0.041 A 
ATOM     21  C   UNL     1       0.767  -1.359  -2.335  0.00  0.00    +0.043 A 
ATOM     22  C   UNL     1      -0.220  -0.473  -2.112  0.00  0.00    +0.093 A 
ATOM     23  O   UNL     1      -1.262  -1.126  -1.571  0.00  0.00    -0.469 OA
ATOM     24  C   UNL     1      -0.955  -2.426  -1.436  0.00  0.00    +0.195 A 
ENDBRANCH  12  22
ENDBRANCH  11  12
ENDBRANCH   7  11
ENDBRANCH   1   8
BRANCH   4  25
ATOM     25  S   UNL     1      -4.437   8.264  -5.543  0.00  0.00    +0.061 S 
ATOM     26  O   UNL     1      -4.327   9.131  -4.422  0.00  0.00    -0.153 OA
ATOM     27  O   UNL     1      -4.469   8.746  -6.879  0.00  0.00    -0.153 OA
BRANCH  25  28
ATOM     28  C   UNL     1      -5.910   7.325  -5.310  0.00  0.00    +0.106 A 
ATOM     29  C   UNL     1      -6.561   6.776  -6.399  0.00  0.00    +0.029 A 
ATOM     30  C   UNL     1      -7.712   6.039  -6.209  0.00  0.00    +0.006 A 
ATOM     31  C   UNL     1      -8.229   5.855  -4.933  0.00  0.00    -0.044 A 
ATOM     32  C   UNL     1      -7.582   6.404  -3.849  0.00  0.00    -0.042 A 
ATOM     33  C   UNL     1      -6.421   7.141  -4.042  0.00  0.00    +0.032 A 
ATOM     34  C   UNL     1      -8.080   6.237  -2.437  0.00  0.00    +0.035 C 
ATOM     35  C   UNL     1      -9.543   5.797  -2.432  0.00  0.00    +0.005 C 
ATOM     36  C   UNL     1      -9.686   4.583  -3.358  0.00  0.00    +0.005 C 
ATOM     37  C   UNL     1      -9.497   5.052  -4.799  0.00  0.00    +0.035 C 
ENDBRANCH  25  28
ENDBRANCH   4  25
TORSDOF 7
