REMARK  Name = ZINC39667117
REMARK  9 active torsions:
REMARK  status: ('A' for Active; 'I' for Inactive)
REMARK    1  A    between atoms: C_1  and  C_2
REMARK    2  A    between atoms: C_5  and  C_9
REMARK    3  A    between atoms: C_6  and  C_8
REMARK    4  A    between atoms: C_9  and  C_10
REMARK    5  A    between atoms: C_10  and  N_11
REMARK    6  A    between atoms: C_12  and  C_14
REMARK    7  A    between atoms: C_25  and  C_27
REMARK    8  A    between atoms: C_32  and  O_33
REMARK    9  A    between atoms: O_33  and  C_34
REMARK                            x       y       z     vdW  Elec       q    Type
REMARK                         _______ _______ _______ _____ _____    ______ ____
ROOT
ATOM      1  C   UNL     1      -2.711  -7.960   0.325  0.00  0.00    +0.100 C 
ATOM      2  C   UNL     1      -1.754  -8.635   1.334  0.00  0.00    +0.121 C 
ATOM      3  N   UNL     1      -2.630  -9.073   2.446  0.00  0.00    -0.296 N 
ATOM      4  C   UNL     1      -3.857  -9.566   1.775  0.00  0.00    +0.115 C 
ATOM      5  C   UNL     1      -4.089  -8.577   0.615  0.00  0.00    -0.004 C 
ATOM      6  C   UNL     1      -4.607  -9.317  -0.614  0.00  0.00    -0.010 C 
ATOM      7  C   UNL     1      -6.004  -9.872  -0.321  0.00  0.00    -0.082 C 
ATOM      8  N   UNL     1      -6.907  -8.768   0.028  0.00  0.00    +0.379 N 
ATOM      9  C   UNL     1      -6.453  -8.121   1.264  0.00  0.00    -0.082 C 
ATOM     10  C   UNL     1      -5.075  -7.492   1.038  0.00  0.00    -0.010 C 
ATOM     11  C   UNL     1      -2.370  -9.033   3.767  0.00  0.00    +0.252 C 
ATOM     12  O   UNL     1      -3.157  -9.519   4.557  0.00  0.00    -0.270 OA
ATOM     13  H   UNL     1      -6.914  -8.092  -0.721  0.00  0.00    -0.086 HD
ATOM     14  H   UNL     1      -7.840  -9.129   0.161  0.00  0.00    -0.086 HD
ENDROOT
BRANCH  11  15
ATOM     15  C   UNL     1      -1.131  -8.399   4.257  0.00  0.00    +0.099 A 
ATOM     16  C   UNL     1       0.053  -8.484   3.516  0.00  0.00    +0.020 A 
ATOM     17  C   UNL     1       1.188  -7.872   4.018  0.00  0.00    +0.021 A 
ATOM     18  C   UNL     1       1.120  -7.200   5.226  0.00  0.00    +0.114 A 
ATOM     19  N   UNL     1      -0.006  -7.133   5.908  0.00  0.00    -0.220 NA
ATOM     20  C   UNL     1      -1.121  -7.695   5.470  0.00  0.00    +0.233 A 
BRANCH  20  21
ATOM     21  O   UNL     1      -2.256  -7.596   6.201  0.00  0.00    -0.437 OA
BRANCH  21  22
ATOM     22  C   UNL     1      -2.183  -6.992   7.416  0.00  0.00    +0.130 A 
ATOM     23  C   UNL     1      -2.167  -7.758   8.573  0.00  0.00    +0.046 A 
ATOM     24  C   UNL     1      -2.091  -7.141   9.807  0.00  0.00    +0.004 A 
ATOM     25  C   UNL     1      -2.031  -5.763   9.890  0.00  0.00    +0.000 A 
ATOM     26  C   UNL     1      -2.047  -4.997   8.739  0.00  0.00    +0.004 A 
ATOM     27  C   UNL     1      -2.117  -5.609   7.502  0.00  0.00    +0.046 A 
ENDBRANCH  21  22
ENDBRANCH  20  21
ENDBRANCH  11  15
BRANCH   1  29
ATOM     28  N   UNL     1      -3.006  -5.640  -0.480  0.00  0.00    -0.315 N 
ATOM     29  C   UNL     1      -2.745  -6.471   0.549  0.00  0.00    +0.218 C 
ATOM     30  O   UNL     1      -2.537  -6.019   1.655  0.00  0.00    -0.275 OA
ATOM     31  H   UNL     1      -3.172  -6.001  -1.364  0.00  0.00    +0.149 HD
BRANCH  28  32
ATOM     32  C   UNL     1      -3.039  -4.192  -0.262  0.00  0.00    +0.109 C 
BRANCH  32  33
ATOM     33  C   UNL     1      -3.354  -3.485  -1.581  0.00  0.00    +0.054 C 
BRANCH  33  38
ATOM     34  C   UNL     1      -3.484   2.228  -0.719  0.00  0.00    +0.044 C 
ATOM     35  C   UNL     1      -3.450   0.738  -0.944  0.00  0.00    -0.050 A 
ATOM     36  C   UNL     1      -4.622   0.006  -0.904  0.00  0.00    +0.003 A 
ATOM     37  C   UNL     1      -4.591  -1.360  -1.111  0.00  0.00    +0.004 A 
ATOM     38  C   UNL     1      -3.388  -1.995  -1.357  0.00  0.00    -0.043 A 
ATOM     39  C   UNL     1      -2.216  -1.263  -1.398  0.00  0.00    -0.047 A 
ATOM     40  C   UNL     1      -2.248   0.104  -1.195  0.00  0.00    +0.007 A 
ATOM     41  C   UNL     1      -0.905  -1.955  -1.666  0.00  0.00    +0.044 C 
ENDBRANCH  33  38
ENDBRANCH  32  33
ENDBRANCH  28  32
ENDBRANCH   1  29
TORSDOF 7
