REMARK  Name = ZINC21141709
REMARK  10 active torsions:
REMARK  status: ('A' for Active; 'I' for Inactive)
REMARK    1  A    between atoms: C_1  and  C_2
REMARK    2  A    between atoms: C_7  and  C_8
REMARK    3  A    between atoms: C_11  and  S_14
REMARK    4  A    between atoms: N_12  and  C_13
REMARK    5  A    between atoms: S_14  and  C_15
REMARK    6  A    between atoms: C_15  and  C_17
REMARK    7  A    between atoms: C_15  and  C_18
REMARK    8  A    between atoms: N_20  and  C_21
REMARK    9  A    between atoms: C_21  and  C_22
REMARK   10  A    between atoms: C_21  and  C_28
REMARK                            x       y       z     vdW  Elec       q    Type
REMARK                         _______ _______ _______ _____ _____    ______ ____
ROOT
ATOM      1  C   UNL     1       0.620  -8.310   0.782  0.00  0.00    +0.227 C 
ATOM      2  O   UNL     1      -0.486  -8.466   1.253  0.00  0.00    -0.275 OA
ATOM      3  N   UNL     1       1.358  -9.380   0.424  0.00  0.00    -0.304 N 
ATOM      4  H   UNL     1       2.361  -9.238  -0.004  0.00  0.00    +0.150 HD
ENDROOT
BRANCH   1   5
ATOM      5  C   UNL     1       1.170  -6.919   0.595  0.00  0.00    +0.137 C 
ATOM      6  C   UNL     1       2.130  -6.592   1.741  0.00  0.00    +0.029 C 
BRANCH   5   7
ATOM      7  S   UNL     1      -0.192  -5.727   0.590  0.00  0.00    -0.074 S 
BRANCH   7  11
ATOM      8  C   UNL     1       1.226  -2.176  -0.212  0.00  0.00    +0.165 A 
ATOM      9  N   UNL     1       2.301  -2.928  -0.240  0.00  0.00    -0.128 NA
ATOM     10  N   UNL     1       1.988  -4.149   0.011  0.00  0.00    -0.122 NA
ATOM     11  C   UNL     1       0.694  -4.252   0.214  0.00  0.00    +0.192 A 
ATOM     12  N   UNL     1       0.164  -2.999   0.085  0.00  0.00    -0.305 N 
ATOM     13  C   UNL     1      -1.242  -2.614   0.230  0.00  0.00    +0.153 C 
BRANCH   8  20
ATOM     14  C   UNL     1       3.111  -0.433   1.122  0.00  0.00    +0.044 C 
ATOM     15  C   UNL     1       2.072   0.133   0.189  0.00  0.00    -0.040 A 
ATOM     16  C   UNL     1       2.012   1.492  -0.037  0.00  0.00    +0.004 A 
ATOM     17  C   UNL     1       1.059   2.013  -0.893  0.00  0.00    +0.000 A 
ATOM     18  C   UNL     1       0.159   1.176  -1.528  0.00  0.00    +0.001 A 
ATOM     19  C   UNL     1       0.208  -0.186  -1.311  0.00  0.00    +0.012 A 
ATOM     20  C   UNL     1       1.167  -0.718  -0.449  0.00  0.00    +0.022 A 
ENDBRANCH   8  20
ENDBRANCH   7  11
ENDBRANCH   5   7
ENDBRANCH   1   5
BRANCH   3  21
ATOM     21  C   UNL     1       0.824 -10.732   0.606  0.00  0.00    +0.134 C 
BRANCH  21  22
ATOM     22  C   UNL     1       1.488 -11.669  -0.369  0.00  0.00    -0.023 A 
ATOM     23  C   UNL     1       2.839 -11.548  -0.634  0.00  0.00    +0.006 A 
ATOM     24  C   UNL     1       3.449 -12.412  -1.524  0.00  0.00    +0.000 A 
ATOM     25  C   UNL     1       2.706 -13.390  -2.158  0.00  0.00    +0.000 A 
ATOM     26  C   UNL     1       1.353 -13.507  -1.898  0.00  0.00    +0.000 A 
ATOM     27  C   UNL     1       0.744 -12.647  -1.003  0.00  0.00    +0.006 A 
ENDBRANCH  21  22
BRANCH  21  28
ATOM     28  C   UNL     1       1.096 -11.195   2.014  0.00  0.00    -0.023 A 
ATOM     29  C   UNL     1       2.310 -10.911   2.612  0.00  0.00    +0.006 A 
ATOM     30  C   UNL     1       2.558 -11.331   3.905  0.00  0.00    +0.000 A 
ATOM     31  C   UNL     1       1.597 -12.045   4.596  0.00  0.00    +0.000 A 
ATOM     32  C   UNL     1       0.386 -12.334   3.996  0.00  0.00    +0.000 A 
ATOM     33  C   UNL     1       0.136 -11.909   2.705  0.00  0.00    +0.006 A 
ENDBRANCH  21  28
ENDBRANCH   3  21
TORSDOF 7
