REMARK  Name = ZINC39870454
REMARK  11 active torsions:
REMARK  status: ('A' for Active; 'I' for Inactive)
REMARK    1  A    between atoms: C_1  and  C_2
REMARK    2  A    between atoms: C_3  and  C_31
REMARK    3  A    between atoms: N_6  and  C_19
REMARK    4  A    between atoms: C_8  and  N_9
REMARK    5  A    between atoms: N_10  and  C_11
REMARK    6  A    between atoms: C_19  and  C_20
REMARK    7  A    between atoms: C_20  and  C_21
REMARK    8  A    between atoms: C_24  and  O_29
REMARK    9  A    between atoms: C_25  and  O_27
REMARK   10  A    between atoms: O_27  and  C_28
REMARK   11  A    between atoms: O_29  and  C_30
REMARK                            x       y       z     vdW  Elec       q    Type
REMARK                         _______ _______ _______ _____ _____    ______ ____
ROOT
ATOM      1  C   UNL     1      -0.018   1.503   0.010  0.00  0.00    +0.048 C 
ATOM      2  C   UNL     1       0.002  -0.004   0.002  0.00  0.00    +0.005 A 
ATOM      3  C   UNL     1       0.006  -0.705  -1.200  0.00  0.00    +0.121 A 
ATOM      4  C   UNL     1       0.026  -2.123  -1.178  0.00  0.00    +0.272 A 
ATOM      5  O   UNL     1       0.030  -2.745  -2.226  0.00  0.00    -0.266 OA
ATOM      6  N   UNL     1       0.041  -2.786  -0.008  0.00  0.00    -0.273 N 
ATOM      7  C   UNL     1       0.037  -2.123   1.175  0.00  0.00    +0.282 A 
ATOM      8  C   UNL     1       0.023  -0.725   1.208  0.00  0.00    +0.155 A 
ATOM      9  O   UNL     1       0.052  -2.817   2.329  0.00  0.00    -0.265 OA
ENDROOT
BRANCH   8  10
ATOM     10  N   UNL     1       0.026  -0.066   2.400  0.00  0.00    -0.144 NA
ATOM     11  N   UNL     1       0.045  -0.733   3.504  0.00  0.00    -0.149 NA
BRANCH  11  12
ATOM     12  C   UNL     1       0.048  -0.072   4.702  0.00  0.00    +0.086 A 
ATOM     13  C   UNL     1       0.023   1.325   4.732  0.00  0.00    +0.030 A 
ATOM     14  C   UNL     1       0.025   1.985   5.943  0.00  0.00    +0.017 A 
ATOM     15  C   UNL     1       0.051   1.267   7.127  0.00  0.00    +0.018 A 
ATOM     16  C   UNL     1       0.076  -0.118   7.104  0.00  0.00    +0.017 A 
ATOM     17  C   UNL     1       0.069  -0.790   5.900  0.00  0.00    +0.030 A 
ATOM     18 BR   UNL     1       0.055   2.181   8.782  0.00  0.00    -0.050 Br
ENDBRANCH  11  12
ENDBRANCH   8  10
BRANCH   3  19
ATOM     19  C   UNL     1      -0.010  -0.001  -2.447  0.00  0.00    +0.105 C 
ATOM     20  N   UNL     1      -0.023   0.557  -3.437  0.00  0.00    -0.191 NA
ENDBRANCH   3  19
BRANCH   6  21
ATOM     21  C   UNL     1       0.061  -4.251  -0.011  0.00  0.00    +0.133 C 
BRANCH  21  22
ATOM     22  C   UNL     1       1.510  -4.741  -0.019  0.00  0.00    +0.057 C 
BRANCH  22  23
ATOM     23  C   UNL     1       1.530  -6.248  -0.023  0.00  0.00    -0.042 A 
ATOM     24  C   UNL     1       1.540  -6.941   1.174  0.00  0.00    +0.007 A 
ATOM     25  C   UNL     1       1.559  -8.323   1.176  0.00  0.00    +0.049 A 
ATOM     26  C   UNL     1       1.568  -9.018  -0.023  0.00  0.00    +0.161 A 
ATOM     27  C   UNL     1       1.558  -8.321  -1.227  0.00  0.00    +0.162 A 
ATOM     28  C   UNL     1       1.534  -6.935  -1.222  0.00  0.00    +0.053 A 
BRANCH  27  29
ATOM     29  O   UNL     1       1.566  -8.998  -2.407  0.00  0.00    -0.491 OA
ATOM     30  C   UNL     1       1.555  -8.217  -3.603  0.00  0.00    +0.277 C 
ENDBRANCH  27  29
BRANCH  26  31
ATOM     31  O   UNL     1       1.587 -10.377  -0.022  0.00  0.00    -0.491 OA
ATOM     32  C   UNL     1       1.597 -11.026   1.251  0.00  0.00    +0.277 C 
ENDBRANCH  26  31
ENDBRANCH  22  23
ENDBRANCH  21  22
ENDBRANCH   6  21
TORSDOF 8
