REMARK  Name = ZINC20527891
REMARK  9 active torsions:
REMARK  status: ('A' for Active; 'I' for Inactive)
REMARK    1  A    between atoms: C_1  and  C_2
REMARK    2  A    between atoms: C_5  and  N_9
REMARK    3  A    between atoms: C_6  and  C_8
REMARK    4  A    between atoms: C_10  and  C_12
REMARK    5  A    between atoms: C_12  and  S_13
REMARK    6  A    between atoms: S_13  and  C_14
REMARK    7  A    between atoms: N_18  and  N_19
REMARK    8  A    between atoms: N_20  and  N_21
REMARK    9  A    between atoms: C_22  and  C_23
REMARK                            x       y       z     vdW  Elec       q    Type
REMARK                         _______ _______ _______ _____ _____    ______ ____
ROOT
ATOM      1  C   UNL     1       1.824   5.510   0.045  0.00  0.00    +0.210 A 
ATOM      2  N   UNL     1       0.513   5.493   0.064  0.00  0.00    -0.119 NA
ATOM      3  N   UNL     1       0.097   4.155   0.066  0.00  0.00    -0.109 NA
ATOM      4  C   UNL     1       1.168   3.399   0.056  0.00  0.00    +0.254 A 
ATOM      5  N   UNL     1       2.263   4.217   0.039  0.00  0.00    -0.211 N 
ATOM      6  N   UNL     1       1.187   2.011   0.057  0.00  0.00    -0.204 N 
ATOM      7  H   UNL     1       2.147   1.474   0.043  0.00  0.00    +0.177 HD
ENDROOT
BRANCH   5   8
ATOM      8  N   UNL     1       3.568   3.812   0.021  0.00  0.00    -0.294 N 
ATOM      9  H   UNL     1       3.811   2.740   0.018  0.00  0.00    +0.163 HD
ATOM     10  H   UNL     1       4.375   4.559   0.009  0.00  0.00    +0.163 HD
ENDBRANCH   5   8
BRANCH   6  11
ATOM     11  N   UNL     1      -0.017   1.295   0.075  0.00  0.00    -0.187 NA
ATOM     12  C   UNL     1       0.001  -0.004   0.076  0.00  0.00    +0.139 C 
BRANCH  12  13
ATOM     13  C   UNL     1      -1.266  -0.758   0.095  0.00  0.00    +0.013 A 
ATOM     14  C   UNL     1      -1.251  -2.155   0.096  0.00  0.00    +0.012 A 
ATOM     15  C   UNL     1      -2.439  -2.855   0.114  0.00  0.00    +0.021 A 
ATOM     16  C   UNL     1      -3.646  -2.176   0.131  0.00  0.00    +0.042 A 
ATOM     17  C   UNL     1      -3.670  -0.791   0.131  0.00  0.00    +0.040 A 
ATOM     18  C   UNL     1      -2.487  -0.078   0.119  0.00  0.00    +0.051 A 
ATOM     19 CL   UNL     1      -2.518   1.657   0.126  0.00  0.00    -0.083 Cl
ATOM     20 CL   UNL     1      -5.137  -3.065   0.153  0.00  0.00    -0.083 Cl
ENDBRANCH  12  13
ENDBRANCH   6  11
BRANCH   1  21
ATOM     21  S   UNL     1       2.841   6.949   0.028  0.00  0.00    -0.075 S 
BRANCH  21  22
ATOM     22  C   UNL     1       1.656   8.323   0.044  0.00  0.00    +0.173 C 
BRANCH  22  24
ATOM     23  N   UNL     1       1.726  10.796   0.040  0.00  0.00    -0.285 N 
ATOM     24  C   UNL     1       2.404   9.632   0.031  0.00  0.00    +0.227 C 
ATOM     25  O   UNL     1       3.617   9.637   0.013  0.00  0.00    -0.275 OA
ATOM     26  H   UNL     1       0.628  10.794  -0.035  0.00  0.00    +0.155 HD
BRANCH  23  31
ATOM     27  C   UNL     1       4.529  15.710   0.465  0.00  0.00    +0.044 C 
ATOM     28  C   UNL     1       3.785  14.405   0.352  0.00  0.00    -0.050 A 
ATOM     29  C   UNL     1       4.352  13.242   0.841  0.00  0.00    +0.005 A 
ATOM     30  C   UNL     1       3.672  12.044   0.739  0.00  0.00    +0.024 A 
ATOM     31  C   UNL     1       2.417  12.008   0.145  0.00  0.00    +0.036 A 
ATOM     32  C   UNL     1       1.853  13.176  -0.350  0.00  0.00    -0.029 A 
ATOM     33  C   UNL     1       2.536  14.372  -0.240  0.00  0.00    +0.008 A 
ATOM     34  C   UNL     1       0.494  13.140  -1.001  0.00  0.00    +0.045 C 
ENDBRANCH  23  31
ENDBRANCH  22  24
ENDBRANCH  21  22
ENDBRANCH   1  21
TORSDOF 7
