REMARK  Name = ZINC41001507
REMARK  6 active torsions:
REMARK  status: ('A' for Active; 'I' for Inactive)
REMARK    1  A    between atoms: C_1  and  C_2
REMARK    2  A    between atoms: C_5  and  C_8
REMARK    3  A    between atoms: C_10  and  C_13
REMARK    4  A    between atoms: C_14  and  C_32
REMARK    5  A    between atoms: C_19  and  C_21
REMARK    6  A    between atoms: C_21  and  C_22
REMARK                            x       y       z     vdW  Elec       q    Type
REMARK                         _______ _______ _______ _____ _____    ______ ____
ROOT
ATOM      1  C   UNL     1       0.102  -7.463   1.608  0.00  0.00    +0.101 A 
ATOM      2  C   UNL     1       0.126  -8.807   1.316  0.00  0.00    +0.060 A 
ATOM      3  N   UNL     1       0.135  -9.630   2.337  0.00  0.00    -0.229 NA
ATOM      4  C   UNL     1       0.123  -9.185   3.579  0.00  0.00    +0.165 A 
ATOM      5  S   UNL     1       0.104  -7.512   3.393  0.00  0.00    -0.047 S 
ATOM      6  N   UNL     1       0.131  -9.918   4.755  0.00  0.00    -0.264 N 
ATOM      7  C   UNL     1       0.154 -11.264   4.709  0.00  0.00    +0.223 C 
ATOM      8  O   UNL     1       0.168 -11.835   3.639  0.00  0.00    -0.275 OA
ATOM      9  C   UNL     1       0.139  -9.309  -0.105  0.00  0.00    +0.067 C 
ATOM     10  H   UNL     1       0.120  -9.462   5.611  0.00  0.00    +0.157 HD
ENDROOT
BRANCH   1  13
ATOM     11  C   UNL     1       0.059  -4.256  -0.021  0.00  0.00    +0.202 A 
ATOM     12  N   UNL     1       0.070  -5.042   1.066  0.00  0.00    -0.187 NA
ATOM     13  C   UNL     1       0.086  -6.308   0.703  0.00  0.00    +0.267 A 
ATOM     14  O   UNL     1       0.087  -6.359  -0.643  0.00  0.00    -0.332 OA
ATOM     15  N   UNL     1       0.064  -5.013  -1.093  0.00  0.00    -0.056 NA
BRANCH  11  20
ATOM     16  C   UNL     1      -0.018   1.503   0.010  0.00  0.00    +0.044 C 
ATOM     17  C   UNL     1       0.002  -0.004   0.002  0.00  0.00    -0.050 A 
ATOM     18  C   UNL     1       0.006  -0.687  -1.201  0.00  0.00    +0.004 A 
ATOM     19  C   UNL     1       0.024  -2.067  -1.214  0.00  0.00    +0.012 A 
ATOM     20  C   UNL     1       0.040  -2.772  -0.013  0.00  0.00    +0.022 A 
ATOM     21  C   UNL     1       0.036  -2.080   1.196  0.00  0.00    +0.012 A 
ATOM     22  C   UNL     1       0.023  -0.700   1.198  0.00  0.00    +0.004 A 
ENDBRANCH  11  20
ENDBRANCH   1  13
BRANCH   7  23
ATOM     23  C   UNL     1       0.162 -12.062   5.987  0.00  0.00    +0.131 C 
BRANCH  23  24
ATOM     24  C   UNL     1       0.189 -13.533   5.662  0.00  0.00    -0.031 A 
ATOM     25  C   UNL     1      -0.972 -14.242   5.604  0.00  0.00    +0.005 A 
ATOM     26  C   UNL     1      -0.968 -15.603   5.304  0.00  0.00    +0.001 A 
ATOM     27  C   UNL     1       0.198 -16.263   5.061  0.00  0.00    +0.008 A 
ATOM     28  C   UNL     1       1.416 -15.565   5.112  0.00  0.00    -0.018 A 
ATOM     29  C   UNL     1       1.411 -14.179   5.411  0.00  0.00    -0.014 A 
ATOM     30  C   UNL     1       2.629 -13.479   5.456  0.00  0.00    +0.009 A 
ATOM     31  C   UNL     1       3.793 -14.139   5.207  0.00  0.00    +0.001 A 
ATOM     32  C   UNL     1       3.798 -15.500   4.907  0.00  0.00    +0.001 A 
ATOM     33  C   UNL     1       2.639 -16.212   4.868  0.00  0.00    +0.008 A 
ENDBRANCH  23  24
ENDBRANCH   7  23
TORSDOF 4
