REMARK  Name = ZINC06326876
REMARK  7 active torsions:
REMARK  status: ('A' for Active; 'I' for Inactive)
REMARK    1  A    between atoms: C_1  and  C_2
REMARK    2  A    between atoms: C_2  and  C_4
REMARK    3  A    between atoms: C_2  and  S_15
REMARK    4  A    between atoms: N_6  and  C_7
REMARK    5  A    between atoms: C_7  and  C_13
REMARK    6  A    between atoms: S_15  and  C_16
REMARK    7  A    between atoms: C_19  and  C_21
REMARK                            x       y       z     vdW  Elec       q    Type
REMARK                         _______ _______ _______ _____ _____    ______ ____
ROOT
ATOM      1  C   UNL     1       3.646   3.577   1.607  0.00  0.00    +0.029 C 
ATOM      2  C   UNL     1       3.614   2.177   0.990  0.00  0.00    +0.138 C 
ENDROOT
BRANCH   2   3
ATOM      3  C   UNL     1       2.200   1.655   1.001  0.00  0.00    +0.227 C 
ATOM      4  O   UNL     1       1.822   0.948   1.910  0.00  0.00    -0.275 OA
ATOM      5  N   UNL     1       1.357   1.975  -0.000  0.00  0.00    -0.296 N 
ATOM      6  H   UNL     1       1.659   2.541  -0.728  0.00  0.00    +0.150 HD
BRANCH   5   7
ATOM      7  C   UNL     1      -0.018   1.468   0.010  0.00  0.00    +0.121 C 
ATOM      8  C   UNL     1      -0.734   1.961   1.269  0.00  0.00    +0.041 C 
ATOM      9  C   UNL     1      -2.169   1.432   1.280  0.00  0.00    +0.003 C 
ATOM     10  C   UNL     1      -2.909   1.938   0.040  0.00  0.00    +0.000 C 
ATOM     11  C   UNL     1      -2.193   1.445  -1.219  0.00  0.00    +0.003 C 
ATOM     12  C   UNL     1      -0.758   1.975  -1.229  0.00  0.00    +0.041 C 
BRANCH   7  13
ATOM     13  C   UNL     1       0.002  -0.004   0.002  0.00  0.00    +0.088 C 
ATOM     14  N   UNL     1       0.018  -1.140  -0.004  0.00  0.00    -0.194 NA
ENDBRANCH   7  13
ENDBRANCH   5   7
ENDBRANCH   2   3
BRANCH   2  15
ATOM     15  S   UNL     1       4.673   1.069   1.953  0.00  0.00    -0.053 S 
BRANCH  15  16
ATOM     16  C   UNL     1       6.244   1.810   1.653  0.00  0.00    +0.278 A 
ATOM     17  N   UNL     1       6.474   2.873   0.918  0.00  0.00    -0.101 NA
ATOM     18  N   UNL     1       7.734   3.131   0.920  0.00  0.00    -0.106 NA
ATOM     19  C   UNL     1       8.359   2.244   1.657  0.00  0.00    +0.249 A 
ATOM     20  O   UNL     1       7.428   1.393   2.141  0.00  0.00    -0.411 OA
BRANCH  19  21
ATOM     21  C   UNL     1       9.812   2.190   1.915  0.00  0.00    +0.039 A 
ATOM     22  C   UNL     1      10.343   1.187   2.728  0.00  0.00    +0.014 A 
ATOM     23  C   UNL     1      11.701   1.139   2.962  0.00  0.00    +0.021 A 
ATOM     24  C   UNL     1      12.537   2.089   2.400  0.00  0.00    +0.041 A 
ATOM     25  C   UNL     1      12.017   3.090   1.597  0.00  0.00    +0.021 A 
ATOM     26  C   UNL     1      10.661   3.146   1.351  0.00  0.00    +0.014 A 
ATOM     27 CL   UNL     1      14.245   2.026   2.704  0.00  0.00    -0.084 Cl
ENDBRANCH  19  21
ENDBRANCH  15  16
ENDBRANCH   2  15
TORSDOF 6
