REMARK  Name = ZINC34947802
REMARK  9 active torsions:
REMARK  status: ('A' for Active; 'I' for Inactive)
REMARK    1  A    between atoms: C_1  and  C_2
REMARK    2  A    between atoms: C_6  and  C_8
REMARK    3  A    between atoms: C_8  and  N_9
REMARK    4  A    between atoms: N_9  and  C_10
REMARK    5  A    between atoms: N_9  and  S_23
REMARK    6  A    between atoms: N_13  and  C_16
REMARK    7  A    between atoms: C_16  and  C_17
REMARK    8  A    between atoms: S_23  and  C_26
REMARK    9  A    between atoms: C_29  and  N_32
REMARK                            x       y       z     vdW  Elec       q    Type
REMARK                         _______ _______ _______ _____ _____    ______ ____
ROOT
ATOM      1  N   UNL     1       1.437  -2.892   2.944  0.00  0.00    -0.168 NA
ENDROOT
BRANCH   1   2
ATOM      2  C   UNL     1       2.117  -1.875   3.749  0.00  0.00    +0.077 C 
ATOM      3  C   UNL     1       1.423  -1.749   5.108  0.00  0.00    +0.002 C 
ATOM      4  C   UNL     1       2.089  -0.630   5.912  0.00  0.00    -0.077 C 
ATOM      5  N   UNL     1       1.973   0.638   5.183  0.00  0.00    +0.382 N 
ATOM      6  C   UNL     1       2.697   0.548   3.909  0.00  0.00    -0.077 C 
ATOM      7  C   UNL     1       2.055  -0.525   3.028  0.00  0.00    +0.002 C 
ATOM      8  H   UNL     1       1.000   0.833   5.002  0.00  0.00    -0.081 HD
BRANCH   5   9
ATOM      9  C   UNL     1       2.544   1.722   5.993  0.00  0.00    -0.043 C 
BRANCH   9  10
ATOM     10  C   UNL     1       2.316   3.041   5.301  0.00  0.00    -0.064 A 
ATOM     11  C   UNL     1       3.253   3.522   4.405  0.00  0.00    +0.002 A 
ATOM     12  C   UNL     1       3.044   4.732   3.770  0.00  0.00    +0.000 A 
ATOM     13  C   UNL     1       1.898   5.460   4.030  0.00  0.00    +0.000 A 
ATOM     14  C   UNL     1       0.961   4.979   4.925  0.00  0.00    +0.000 A 
ATOM     15  C   UNL     1       1.168   3.767   5.557  0.00  0.00    +0.002 A 
ENDBRANCH   9  10
ENDBRANCH   5   9
ENDBRANCH   1   2
BRANCH   1  16
ATOM     16  S   UNL     1       2.226  -4.289   2.535  0.00  0.00    +0.061 S 
ATOM     17  O   UNL     1       3.245  -4.479   3.507  0.00  0.00    -0.153 OA
ATOM     18  O   UNL     1       1.223  -5.264   2.282  0.00  0.00    -0.153 OA
BRANCH  16  19
ATOM     19  C   UNL     1       3.042  -3.996   1.000  0.00  0.00    +0.106 A 
ATOM     20  C   UNL     1       2.388  -4.253  -0.190  0.00  0.00    +0.031 A 
ATOM     21  C   UNL     1       3.028  -4.023  -1.394  0.00  0.00    +0.034 A 
ATOM     22  C   UNL     1       4.321  -3.536  -1.407  0.00  0.00    +0.126 A 
ATOM     23  C   UNL     1       4.975  -3.279  -0.216  0.00  0.00    +0.034 A 
ATOM     24  C   UNL     1       4.334  -3.504   0.987  0.00  0.00    +0.031 A 
BRANCH  22  25
ATOM     25  N   UNL     1       5.007  -3.291  -2.696  0.00  0.00    +0.056 N 
ATOM     26  O   UNL     1       4.435  -3.517  -3.737  0.00  0.00    -0.126 OA
ATOM     27  O   UNL     1       6.138  -2.865  -2.707  0.00  0.00    -0.126 OA
ENDBRANCH  22  25
ENDBRANCH  16  19
ENDBRANCH   1  16
BRANCH   1  28
ATOM     28  C   UNL     1       0.057  -2.674   2.501  0.00  0.00    +0.165 C 
BRANCH  28  34
ATOM     29  C   UNL     1       0.277   1.544   0.056  0.00  0.00    +0.065 C 
ATOM     30  C   UNL     1       0.166   0.041   0.025  0.00  0.00    +0.039 A 
ATOM     31  C   UNL     1       0.075  -0.613  -1.189  0.00  0.00    +0.023 A 
ATOM     32  C   UNL     1      -0.026  -1.995  -1.206  0.00  0.00    +0.004 A 
ATOM     33  C   UNL     1      -0.032  -2.671   0.005  0.00  0.00    +0.025 A 
ATOM     34  C   UNL     1       0.063  -1.950   1.180  0.00  0.00    +0.057 A 
ATOM     35  N   UNL     1       0.163  -0.635   1.157  0.00  0.00    -0.255 NA
ENDBRANCH  28  34
ENDBRANCH   1  28
TORSDOF 8
