REMARK  Name = ZINC36612753
REMARK  10 active torsions:
REMARK  status: ('A' for Active; 'I' for Inactive)
REMARK    1  A    between atoms: C_1  and  N_2
REMARK    2  A    between atoms: N_2  and  C_3
REMARK    3  A    between atoms: N_2  and  C_4
REMARK    4  A    between atoms: C_4  and  C_5
REMARK    5  A    between atoms: C_5  and  N_6
REMARK    6  A    between atoms: C_7  and  C_28
REMARK    7  A    between atoms: C_8  and  O_18
REMARK    8  A    between atoms: O_18  and  C_19
REMARK    9  A    between atoms: C_19  and  C_21
REMARK   10  A    between atoms: C_28  and  C_30
REMARK                            x       y       z     vdW  Elec       q    Type
REMARK                         _______ _______ _______ _____ _____    ______ ____
ROOT
ATOM      1  N   UNL     1      -3.801  -1.780   0.417  0.00  0.00    -0.197 N 
ATOM      2  C   UNL     1      -4.277  -2.890   1.133  0.00  0.00    +0.141 C 
ATOM      3  C   UNL     1      -5.127  -3.794   0.591  0.00  0.00    +0.167 C 
ATOM      4  C   UNL     1      -5.646  -3.721  -0.780  0.00  0.00    +0.046 A 
ATOM      5  C   UNL     1      -6.757  -4.482  -1.157  0.00  0.00    +0.013 A 
ATOM      6  C   UNL     1      -7.236  -4.405  -2.448  0.00  0.00    +0.001 A 
ATOM      7  C   UNL     1      -6.626  -3.578  -3.375  0.00  0.00    +0.002 A 
ATOM      8  C   UNL     1      -5.524  -2.820  -3.013  0.00  0.00    +0.029 A 
ATOM      9  C   UNL     1      -5.038  -2.890  -1.731  0.00  0.00    +0.119 A 
ATOM     10  S   UNL     1      -3.640  -1.938  -1.235  0.00  0.00    +0.076 S 
ATOM     11  O   UNL     1      -2.492  -2.742  -1.466  0.00  0.00    -0.150 OA
ATOM     12  O   UNL     1      -3.799  -0.642  -1.795  0.00  0.00    -0.150 OA
ENDROOT
BRANCH   2  13
ATOM     13  C   UNL     1      -3.852  -3.071   2.473  0.00  0.00    +0.212 C 
ATOM     14  O   UNL     1      -2.664  -3.162   2.728  0.00  0.00    -0.285 OA
BRANCH  13  15
ATOM     15  C   UNL     1      -4.850  -3.149   3.561  0.00  0.00    +0.024 A 
ATOM     16  C   UNL     1      -6.214  -3.128   3.264  0.00  0.00    +0.012 A 
ATOM     17  C   UNL     1      -7.140  -3.202   4.284  0.00  0.00    +0.001 A 
ATOM     18  C   UNL     1      -6.720  -3.296   5.599  0.00  0.00    +0.000 A 
ATOM     19  C   UNL     1      -5.369  -3.317   5.900  0.00  0.00    +0.001 A 
ATOM     20  C   UNL     1      -4.433  -3.250   4.890  0.00  0.00    +0.012 A 
ENDBRANCH  13  15
ENDBRANCH   2  13
BRANCH   1  21
ATOM     21  C   UNL     1      -3.463  -0.526   1.095  0.00  0.00    +0.113 C 
BRANCH  21  22
ATOM     22  C   UNL     1      -4.729   0.080   1.706  0.00  0.00    -0.059 C 
BRANCH  22  24
ATOM     23  C   UNL     1      -5.620   1.979   2.869  0.00  0.00    -0.097 C 
ATOM     24  N   UNL     1      -4.390   1.337   2.386  0.00  0.00    +0.377 N 
ATOM     25  C   UNL     1      -3.506   1.056   3.525  0.00  0.00    -0.097 C 
ATOM     26  H   UNL     1      -3.921   1.954   1.740  0.00  0.00    -0.083 HD
ENDBRANCH  22  24
ENDBRANCH  21  22
ENDBRANCH   1  21
BRANCH   3  27
ATOM     27  O   UNL     1      -5.524  -4.833   1.363  0.00  0.00    -0.420 OA
BRANCH  27  28
ATOM     28  C   UNL     1      -5.124  -6.072   1.012  0.00  0.00    +0.345 C 
ATOM     29  O   UNL     1      -4.478  -6.236  -0.004  0.00  0.00    -0.245 OA
BRANCH  28  30
ATOM     30  C   UNL     1      -5.471  -7.228   1.862  0.00  0.00    +0.059 A 
ATOM     31  C   UNL     1      -6.293  -7.056   2.978  0.00  0.00    +0.016 A 
ATOM     32  C   UNL     1      -6.613  -8.140   3.768  0.00  0.00    +0.021 A 
ATOM     33  C   UNL     1      -6.122  -9.397   3.456  0.00  0.00    +0.041 A 
ATOM     34  C   UNL     1      -5.307  -9.574   2.350  0.00  0.00    +0.021 A 
ATOM     35  C   UNL     1      -4.984  -8.499   1.549  0.00  0.00    +0.016 A 
ATOM     36 CL   UNL     1      -6.529 -10.757   4.456  0.00  0.00    -0.084 Cl
ENDBRANCH  28  30
ENDBRANCH  27  28
ENDBRANCH   3  27
TORSDOF 8
