REMARK  Name = ZINC40035989
REMARK  10 active torsions:
REMARK  status: ('A' for Active; 'I' for Inactive)
REMARK    1  A    between atoms: C_1  and  C_2
REMARK    2  A    between atoms: C_2  and  C_3
REMARK    3  A    between atoms: C_3  and  C_4
REMARK    4  A    between atoms: C_4  and  C_37
REMARK    5  A    between atoms: N_16  and  C_30
REMARK    6  A    between atoms: N_19  and  N_20
REMARK    7  A    between atoms: C_21  and  C_22
REMARK    8  A    between atoms: C_25  and  O_28
REMARK    9  A    between atoms: O_28  and  C_29
REMARK   10  A    between atoms: C_33  and  C_36
REMARK                            x       y       z     vdW  Elec       q    Type
REMARK                         _______ _______ _______ _____ _____    ______ ____
ROOT
ATOM      1  C   UNL     1      -1.786  -2.931  -0.043  0.00  0.00    +0.004 C 
ATOM      2  C   UNL     1      -3.171  -3.520   0.214  0.00  0.00    +0.047 C 
ATOM      3  C   UNL     1      -3.756  -2.958   1.482  0.00  0.00    -0.037 A 
ATOM      4  C   UNL     1      -5.112  -2.717   1.579  0.00  0.00    +0.004 A 
ATOM      5  C   UNL     1      -5.643  -2.204   2.749  0.00  0.00    +0.000 A 
ATOM      6  C   UNL     1      -4.823  -1.930   3.829  0.00  0.00    +0.001 A 
ATOM      7  C   UNL     1      -3.465  -2.165   3.744  0.00  0.00    +0.010 A 
ATOM      8  C   UNL     1      -2.926  -2.679   2.568  0.00  0.00    +0.004 A 
ATOM      9  C   UNL     1      -1.473  -2.932   2.444  0.00  0.00    +0.084 A 
ATOM     10  C   UNL     1      -0.920  -3.059   1.178  0.00  0.00    +0.050 A 
ATOM     11  C   UNL     1       0.453  -3.307   1.062  0.00  0.00    +0.264 A 
ATOM     12  O   UNL     1       0.975  -3.426  -0.035  0.00  0.00    -0.267 OA
ATOM     13  N   UNL     1       1.189  -3.411   2.190  0.00  0.00    -0.248 N 
ATOM     14  C   UNL     1       0.597  -3.273   3.411  0.00  0.00    +0.223 A 
ATOM     15  N   UNL     1      -0.695  -3.040   3.526  0.00  0.00    -0.214 NA
ATOM     16  N   UNL     1       1.362  -3.379   4.543  0.00  0.00    -0.206 N 
ATOM     17  C   UNL     1      -1.130  -3.677  -1.207  0.00  0.00    +0.017 C 
ATOM     18  H   UNL     1       2.302  -3.608   4.473  0.00  0.00    +0.177 HD
ENDROOT
BRANCH  13  19
ATOM     19  C   UNL     1       2.564  -3.662   2.106  0.00  0.00    +0.053 A 
ATOM     20  C   UNL     1       3.035  -4.968   2.122  0.00  0.00    +0.026 A 
ATOM     21  C   UNL     1       4.392  -5.213   2.038  0.00  0.00    +0.005 A 
ATOM     22  C   UNL     1       5.281  -4.158   1.938  0.00  0.00    -0.050 A 
ATOM     23  C   UNL     1       4.815  -2.856   1.922  0.00  0.00    +0.005 A 
ATOM     24  C   UNL     1       3.459  -2.606   2.000  0.00  0.00    +0.026 A 
ATOM     25  C   UNL     1       6.761  -4.428   1.847  0.00  0.00    +0.044 C 
ENDBRANCH  13  19
BRANCH  16  26
ATOM     26  N   UNL     1       0.787  -3.155   5.801  0.00  0.00    -0.188 NA
ATOM     27  C   UNL     1       1.512  -3.256   6.873  0.00  0.00    +0.138 C 
BRANCH  27  28
ATOM     28  C   UNL     1       0.907  -3.021   8.197  0.00  0.00    -0.005 A 
ATOM     29  C   UNL     1      -0.448  -2.696   8.300  0.00  0.00    +0.013 A 
ATOM     30  C   UNL     1      -1.010  -2.478   9.540  0.00  0.00    +0.046 A 
ATOM     31  C   UNL     1      -0.231  -2.580  10.685  0.00  0.00    +0.120 A 
ATOM     32  C   UNL     1       1.117  -2.902  10.587  0.00  0.00    +0.046 A 
ATOM     33  C   UNL     1       1.685  -3.128   9.352  0.00  0.00    +0.013 A 
BRANCH  31  34
ATOM     34  O   UNL     1      -0.788  -2.363  11.905  0.00  0.00    -0.495 OA
ATOM     35  C   UNL     1       0.070  -2.484  13.041  0.00  0.00    +0.277 C 
ENDBRANCH  31  34
ENDBRANCH  27  28
ENDBRANCH  16  26
BRANCH   1  36
ATOM     36  C   UNL     1      -1.927  -1.452  -0.408  0.00  0.00    +0.011 C 
BRANCH  36  38
ATOM     37  C   UNL     1      -0.686   0.616  -1.061  0.00  0.00    +0.004 C 
ATOM     38  C   UNL     1      -0.544  -0.863  -0.696  0.00  0.00    -0.003 C 
ENDBRANCH  36  38
ENDBRANCH   1  36
TORSDOF 6
