REMARK  Name = ZINC13617696
REMARK  11 active torsions:
REMARK  status: ('A' for Active; 'I' for Inactive)
REMARK    1  A    between atoms: C_1  and  C_2
REMARK    2  A    between atoms: C_2  and  C_3
REMARK    3  A    between atoms: C_3  and  C_4
REMARK    4  A    between atoms: C_4  and  C_5
REMARK    5  A    between atoms: C_5  and  C_6
REMARK    6  A    between atoms: C_6  and  N_7
REMARK    7  A    between atoms: C_11  and  C_12
REMARK    8  A    between atoms: C_13  and  N_24
REMARK    9  A    between atoms: C_16  and  C_23
REMARK   10  A    between atoms: C_29  and  C_30
REMARK   11  A    between atoms: C_29  and  N_67
REMARK                            x       y       z     vdW  Elec       q    Type
REMARK                         _______ _______ _______ _____ _____    ______ ____
ROOT
ATOM      1  C   UNL     1       4.779   0.182   0.104  0.00  0.00    +0.081 A 
ATOM      2  C   UNL     1       4.838   1.549   0.462  0.00  0.00    +0.136 A 
ATOM      3  N   UNL     1       3.719   2.257   0.526  0.00  0.00    -0.213 NA
ATOM      4  C   UNL     1       2.531   1.713   0.260  0.00  0.00    +0.145 A 
ATOM      5  C   UNL     1       1.378   2.514   0.343  0.00  0.00    -0.007 A 
ATOM      6  C   UNL     1       0.159   1.966   0.074  0.00  0.00    +0.008 A 
ATOM      7  C   UNL     1       0.072   0.613  -0.282  0.00  0.00    +0.019 A 
ATOM      8  C   UNL     1       1.191  -0.141  -0.358  0.00  0.00    +0.096 A 
ATOM      9  N   UNL     1       2.415   0.397  -0.091  0.00  0.00    -0.267 N 
ATOM     10  C   UNL     1       3.513  -0.385  -0.176  0.00  0.00    +0.267 A 
ATOM     11  O   UNL     1       3.415  -1.560  -0.487  0.00  0.00    -0.267 OA
ATOM     12  C   UNL     1       1.489   3.966   0.727  0.00  0.00    +0.047 C 
ENDROOT
BRANCH   1  17
ATOM     13  N   UNL     1       9.104  -0.218  -1.806  0.00  0.00    -0.255 N 
ATOM     14  C   UNL     1       8.269  -0.794  -0.960  0.00  0.00    +0.258 C 
ATOM     15  O   UNL     1       8.586  -1.805  -0.358  0.00  0.00    -0.269 OA
ATOM     16  C   UNL     1       6.987  -0.203  -0.774  0.00  0.00    +0.077 C 
ATOM     17  C   UNL     1       5.956  -0.599   0.027  0.00  0.00    +0.037 C 
ATOM     18  S   UNL     1       7.098   1.204  -1.871  0.00  0.00    -0.061 S 
ATOM     19  C   UNL     1       8.756   0.908  -2.469  0.00  0.00    +0.121 C 
ATOM     20  S   UNL     1       9.671   1.819  -3.593  0.00  0.00    -0.027 S 
BRANCH  13  21
ATOM     21  C   UNL     1      10.429  -0.803  -2.025  0.00  0.00    +0.115 C 
BRANCH  21  22
ATOM     22  C   UNL     1      11.421  -0.209  -1.023  0.00  0.00    +0.019 C 
BRANCH  22  23
ATOM     23  C   UNL     1      12.805  -0.821  -1.252  0.00  0.00    +0.002 C 
BRANCH  23  24
ATOM     24  C   UNL     1      13.797  -0.227  -0.250  0.00  0.00    -0.000 C 
BRANCH  24  26
ATOM     25  C   UNL     1      16.173  -0.245   0.523  0.00  0.00    +0.004 C 
ATOM     26  C   UNL     1      15.181  -0.839  -0.479  0.00  0.00    -0.003 C 
ENDBRANCH  24  26
ENDBRANCH  23  24
ENDBRANCH  22  23
ENDBRANCH  21  22
ENDBRANCH  13  21
ENDBRANCH   1  17
BRANCH   2  27
ATOM     27  N   UNL     1       6.050   2.141   0.744  0.00  0.00    -0.318 N 
ATOM     28  C   UNL     1       6.660   1.547   1.941  0.00  0.00    +0.088 C 
ATOM     29  C   UNL     1       8.037   2.174   2.173  0.00  0.00    -0.060 C 
ATOM     30  C   UNL     1       7.280   4.222   1.129  0.00  0.00    -0.060 C 
ATOM     31  C   UNL     1       5.903   3.595   0.897  0.00  0.00    +0.088 C 
ATOM     32  N   UNL     1       7.873   3.633   2.348  0.00  0.00    +0.382 N 
ATOM     33  H   UNL     1       7.245   3.805   3.142  0.00  0.00    -0.082 HD
BRANCH  32  34
ATOM     34  C   UNL     1       9.182   4.259   2.627  0.00  0.00    -0.082 C 
ATOM     35  C   UNL     1       9.900   3.460   3.716  0.00  0.00    -0.017 C 
ENDBRANCH  32  34
ENDBRANCH   2  27
TORSDOF 8
