REMARK  Name = ZINC55183034
REMARK  9 active torsions:
REMARK  status: ('A' for Active; 'I' for Inactive)
REMARK    1  A    between atoms: C_1  and  N_2
REMARK    2  A    between atoms: N_2  and  C_3
REMARK    3  A    between atoms: N_2  and  C_32
REMARK    4  A    between atoms: C_3  and  C_4
REMARK    5  A    between atoms: C_8  and  O_10
REMARK    6  A    between atoms: O_10  and  C_11
REMARK    7  A    between atoms: C_17  and  C_19
REMARK    8  A    between atoms: C_23  and  C_25
REMARK    9  A    between atoms: C_32  and  C_33
REMARK                            x       y       z     vdW  Elec       q    Type
REMARK                         _______ _______ _______ _____ _____    ______ ____
ROOT
ATOM      1  C   UNL     1       5.898   2.163   2.045  0.00  0.00    +0.176 C 
ATOM      2  C   UNL     1       6.803   1.659   3.172  0.00  0.00    +0.063 C 
ATOM      3  C   UNL     1       8.267   1.900   2.793  0.00  0.00    +0.111 C 
ATOM      4  N   UNL     1       8.443   3.322   2.468  0.00  0.00    -0.297 N 
ATOM      5  C   UNL     1       7.563   3.931   1.461  0.00  0.00    +0.111 C 
ATOM      6  C   UNL     1       6.106   3.667   1.855  0.00  0.00    +0.063 C 
ATOM      7  C   UNL     1       9.394   4.054   3.082  0.00  0.00    +0.247 C 
ATOM      8  O   UNL     1       9.466   5.250   2.879  0.00  0.00    -0.270 OA
ENDROOT
BRANCH   7   9
ATOM      9  C   UNL     1      10.350   3.401   4.002  0.00  0.00    +0.037 A 
ATOM     10  C   UNL     1      10.895   2.157   3.679  0.00  0.00    +0.013 A 
ATOM     11  C   UNL     1      11.787   1.548   4.538  0.00  0.00    +0.001 A 
ATOM     12  C   UNL     1      12.147   2.165   5.721  0.00  0.00    +0.008 A 
ATOM     13  C   UNL     1      11.610   3.407   6.054  0.00  0.00    -0.017 A 
ATOM     14  C   UNL     1      10.714   4.030   5.191  0.00  0.00    +0.021 A 
BRANCH  13  15
ATOM     15  C   UNL     1      11.998   4.067   7.326  0.00  0.00    -0.015 A 
ATOM     16  C   UNL     1      11.458   5.307   7.663  0.00  0.00    +0.009 A 
ATOM     17  C   UNL     1      11.821   5.917   8.847  0.00  0.00    +0.003 A 
ATOM     18  C   UNL     1      12.720   5.301   9.698  0.00  0.00    +0.038 A 
ATOM     19  C   UNL     1      13.261   4.069   9.369  0.00  0.00    +0.124 A 
ATOM     20  C   UNL     1      12.899   3.447   8.188  0.00  0.00    +0.046 A 
ATOM     21  F   UNL     1      14.139   3.472  10.204  0.00  0.00    -0.205 F 
ENDBRANCH  13  15
ENDBRANCH   7   9
BRANCH   1  22
ATOM     22  O   UNL     1       4.532   1.910   2.381  0.00  0.00    -0.489 OA
BRANCH  22  27
ATOM     23  C   UNL     1       2.207  -0.862   1.999  0.00  0.00    -0.030 A 
ATOM     24  C   UNL     1       3.052  -1.841   1.509  0.00  0.00    +0.005 A 
ATOM     25  C   UNL     1       4.392  -1.565   1.311  0.00  0.00    +0.004 A 
ATOM     26  C   UNL     1       4.891  -0.309   1.602  0.00  0.00    +0.045 A 
ATOM     27  C   UNL     1       4.045   0.674   2.094  0.00  0.00    +0.121 A 
ATOM     28  C   UNL     1       2.699   0.396   2.286  0.00  0.00    +0.050 A 
BRANCH  23  29
ATOM     29  C   UNL     1       0.747  -1.167   2.215  0.00  0.00    +0.119 C 
BRANCH  29  31
ATOM     30  C   UNL     1       0.016   0.579   0.704  0.00  0.00    +0.105 C 
ATOM     31  N   UNL     1      -0.002  -0.863   0.988  0.00  0.00    -0.294 NA
BRANCH  31  32
ATOM     32  C   UNL     1      -1.380  -1.365   1.075  0.00  0.00    +0.156 C 
BRANCH  32  33
ATOM     33  C   UNL     1      -1.967  -1.464  -0.309  0.00  0.00    +0.099 A 
ATOM     34  N   UNL     1      -2.575  -0.485  -0.960  0.00  0.00    -0.349 N 
ATOM     35  H   UNL     1      -2.718   0.415  -0.628  0.00  0.00    +0.166 HD
ATOM     36  C   UNL     1      -2.960  -0.954  -2.165  0.00  0.00    +0.101 A 
ATOM     37  C   UNL     1      -2.574  -2.244  -2.236  0.00  0.00    +0.101 A 
ATOM     38  N   UNL     1      -1.954  -2.543  -1.076  0.00  0.00    -0.349 N 
ATOM     39  H   UNL     1      -1.567  -3.401  -0.843  0.00  0.00    +0.166 HD
ENDBRANCH  32  33
ENDBRANCH  31  32
ENDBRANCH  29  31
ENDBRANCH  23  29
ENDBRANCH  22  27
ENDBRANCH   1  22
TORSDOF 8
