REMARK  Name = ZINC64061399
REMARK  10 active torsions:
REMARK  status: ('A' for Active; 'I' for Inactive)
REMARK    1  A    between atoms: C_1  and  C_2
REMARK    2  A    between atoms: C_6  and  C_21
REMARK    3  A    between atoms: C_8  and  C_18
REMARK    4  A    between atoms: N_10  and  C_11
REMARK    5  A    between atoms: C_11  and  C_12
REMARK    6  A    between atoms: C_18  and  O_19
REMARK    7  A    between atoms: O_19  and  C_20
REMARK    8  A    between atoms: N_23  and  C_24
REMARK    9  A    between atoms: C_24  and  C_25
REMARK   10  A    between atoms: C_25  and  C_26
REMARK                            x       y       z     vdW  Elec       q    Type
REMARK                         _______ _______ _______ _____ _____    ______ ____
ROOT
ATOM      1  C   UNL     1      -0.840   1.256   0.310  0.00  0.00    +0.060 C 
ATOM      2  C   UNL     1      -0.335  -0.154   0.146  0.00  0.00    +0.007 C 
ATOM      3  C   UNL     1      -0.389  -0.759  -1.064  0.00  0.00    +0.065 C 
ATOM      4  C   UNL     1       0.091  -2.062  -1.240  0.00  0.00    +0.171 C 
ATOM      5  O   UNL     1       0.014  -2.592  -2.331  0.00  0.00    -0.292 OA
ATOM      6  C   UNL     1       0.705  -2.814  -0.086  0.00  0.00    +0.168 C 
ATOM      7  C   UNL     1       0.099  -2.296   1.225  0.00  0.00    +0.118 C 
ATOM      8  N   UNL     1       0.185  -0.826   1.216  0.00  0.00    -0.327 N 
ENDROOT
BRANCH   6   9
ATOM      9  C   UNL     1       2.196  -2.594  -0.076  0.00  0.00    +0.226 C 
ATOM     10  O   UNL     1       2.727  -2.082   0.886  0.00  0.00    -0.275 OA
ATOM     11  N   UNL     1       2.939  -2.966  -1.137  0.00  0.00    -0.315 N 
ATOM     12  H   UNL     1       2.514  -3.376  -1.907  0.00  0.00    +0.149 HD
BRANCH  11  13
ATOM     13  C   UNL     1       4.388  -2.752  -1.128  0.00  0.00    +0.108 C 
BRANCH  13  14
ATOM     14  C   UNL     1       4.987  -3.260  -2.442  0.00  0.00    +0.065 C 
BRANCH  14  15
ATOM     15  C   UNL     1       6.500  -3.036  -2.432  0.00  0.00    +0.175 C 
ATOM     16  N   UNL     1       6.798  -1.600  -2.360  0.00  0.00    -0.363 N 
ATOM     17  C   UNL     1       7.469  -1.286  -3.430  0.00  0.00    +0.060 A 
ATOM     18  C   UNL     1       8.038  -0.022  -3.918  0.00  0.00    +0.027 A 
ATOM     19  C   UNL     1       8.700  -0.000  -5.092  0.00  0.00    +0.002 A 
ATOM     20  C   UNL     1       8.874  -1.148  -5.886  0.00  0.00    +0.002 A 
ATOM     21  C   UNL     1       8.392  -2.356  -5.533  0.00  0.00    +0.027 A 
ATOM     22  C   UNL     1       7.654  -2.501  -4.271  0.00  0.00    +0.060 A 
ATOM     23  N   UNL     1       7.089  -3.519  -3.688  0.00  0.00    -0.363 N 
ATOM     24  H   UNL     1       6.540  -0.996  -1.647  0.00  0.00    +0.162 HD
ATOM     25  H   UNL     1       7.062  -4.429  -4.021  0.00  0.00    +0.162 HD
ENDBRANCH  14  15
ENDBRANCH  13  14
ENDBRANCH  11  13
ENDBRANCH   6   9
BRANCH   8  26
ATOM     26  C   UNL     1       0.807  -0.101   2.327  0.00  0.00    +0.108 C 
BRANCH  26  27
ATOM     27  C   UNL     1      -0.124  -0.130   3.541  0.00  0.00    +0.006 C 
ATOM     28  C   UNL     1      -1.392   0.669   3.230  0.00  0.00    +0.005 C 
ATOM     29  C   UNL     1      -2.323   0.639   4.444  0.00  0.00    +0.000 C 
ATOM     30  C   UNL     1      -1.611   1.260   5.648  0.00  0.00    +0.000 C 
ATOM     31  C   UNL     1      -0.344   0.461   5.958  0.00  0.00    +0.000 C 
ATOM     32  C   UNL     1       0.588   0.490   4.745  0.00  0.00    +0.005 C 
ENDBRANCH  26  27
ENDBRANCH   8  26
BRANCH   7  33
ATOM     33  C   UNL     1      -1.363  -2.733   1.326  0.00  0.00    +0.183 C 
BRANCH  33  34
ATOM     34  O   UNL     1      -2.072  -2.299   0.163  0.00  0.00    -0.381 OA
ATOM     35  C   UNL     1      -3.455  -2.658   0.157  0.00  0.00    +0.194 C 
ENDBRANCH  33  34
ENDBRANCH   7  33
TORSDOF 8
