REMARK  Name = ZINC66305003
REMARK  11 active torsions:
REMARK  status: ('A' for Active; 'I' for Inactive)
REMARK    1  A    between atoms: C_1  and  C_2
REMARK    2  A    between atoms: C_2  and  C_3
REMARK    3  A    between atoms: C_2  and  C_4
REMARK    4  A    between atoms: C_4  and  C_5
REMARK    5  A    between atoms: C_8  and  N_14
REMARK    6  A    between atoms: C_9  and  C_10
REMARK    7  A    between atoms: C_10  and  O_12
REMARK    8  A    between atoms: O_12  and  C_13
REMARK    9  A    between atoms: C_15  and  C_17
REMARK   10  A    between atoms: N_20  and  C_25
REMARK   11  A    between atoms: C_21  and  C_22
REMARK                            x       y       z     vdW  Elec       q    Type
REMARK                         _______ _______ _______ _____ _____    ______ ____
ROOT
ATOM      1  C   UNL     1      -1.079  -1.635  -0.499  0.00  0.00    -0.024 A 
ATOM      2  C   UNL     1      -1.108  -1.984  -1.798  0.00  0.00    +0.051 A 
ATOM      3  S   UNL     1      -1.218  -3.759  -1.746  0.00  0.00    -0.081 S 
ATOM      4  C   UNL     1      -1.224  -4.006  -0.086  0.00  0.00    +0.086 A 
ATOM      5  C   UNL     1      -1.136  -2.727   0.447  0.00  0.00    +0.091 A 
ENDROOT
BRANCH   4   6
ATOM      6  N   UNL     1      -1.296  -5.210   0.595  0.00  0.00    -0.275 N 
ATOM      7  C   UNL     1      -1.372  -6.368  -0.090  0.00  0.00    +0.252 C 
ATOM      8  O   UNL     1      -1.377  -6.356  -1.306  0.00  0.00    -0.270 OA
ATOM      9  H   UNL     1      -1.292  -5.219   1.565  0.00  0.00    +0.156 HD
BRANCH   7  10
ATOM     10  C   UNL     1      -1.448  -7.649   0.635  0.00  0.00    +0.083 A 
ATOM     11  C   UNL     1      -1.458  -7.820   2.038  0.00  0.00    +0.148 A 
ATOM     12  N   UNL     1      -1.536  -9.098   2.288  0.00  0.00    -0.179 NA
ATOM     13  N   UNL     1      -1.578  -9.796   1.076  0.00  0.00    -0.265 N 
ATOM     14  C   UNL     1      -1.530  -8.907   0.071  0.00  0.00    +0.116 A 
ATOM     15  C   UNL     1      -1.666 -11.251   0.929  0.00  0.00    +0.173 C 
BRANCH  14  16
ATOM     16  C   UNL     1      -1.557  -9.223  -1.402  0.00  0.00    +0.390 C 
ATOM     17  F   UNL     1      -2.292 -10.395  -1.614  0.00  0.00    -0.202 F 
ATOM     18  F   UNL     1      -2.155  -8.166  -2.095  0.00  0.00    -0.202 F 
ENDBRANCH  14  16
ENDBRANCH   7  10
ENDBRANCH   4   6
BRANCH   5  19
ATOM     19  C   UNL     1      -1.107  -2.495   1.893  0.00  0.00    +0.342 C 
ATOM     20  O   UNL     1      -2.148  -2.428   2.519  0.00  0.00    -0.245 OA
BRANCH  19  21
ATOM     21  O   UNL     1       0.073  -2.357   2.530  0.00  0.00    -0.464 OA
ATOM     22  C   UNL     1       0.027  -2.134   3.941  0.00  0.00    +0.280 C 
ENDBRANCH  19  21
ENDBRANCH   5  19
BRANCH   1  23
ATOM     23  C   UNL     1      -0.987  -0.198  -0.058  0.00  0.00    +0.039 C 
BRANCH  23  25
ATOM     24  C   UNL     1      -2.269   1.725   0.892  0.00  0.00    +0.007 C 
ATOM     25  C   UNL     1      -2.380   0.309   0.323  0.00  0.00    -0.013 C 
ATOM     26  C   UNL     1      -3.273   0.326  -0.919  0.00  0.00    +0.007 C 
ENDBRANCH  23  25
ENDBRANCH   1  23
TORSDOF 7
