REMARK  Name = ZINC22785064
REMARK  10 active torsions:
REMARK  status: ('A' for Active; 'I' for Inactive)
REMARK    1  A    between atoms: C_1  and  C_2
REMARK    2  A    between atoms: C_5  and  S_8
REMARK    3  A    between atoms: S_8  and  N_11
REMARK    4  A    between atoms: N_11  and  C_12
REMARK    5  A    between atoms: C_12  and  C_14
REMARK    6  A    between atoms: C_12  and  C_15
REMARK    7  A    between atoms: C_15  and  C_17
REMARK    8  A    between atoms: C_15  and  N_22
REMARK    9  A    between atoms: N_25  and  C_28
REMARK   10  A    between atoms: C_28  and  C_29
REMARK                            x       y       z     vdW  Elec       q    Type
REMARK                         _______ _______ _______ _____ _____    ______ ____
ROOT
ATOM      1  C   UNL     1       0.918   5.160   0.021  0.00  0.00    +0.112 C 
ENDROOT
BRANCH   1   2
ATOM      2  N   UNL     1       2.013   5.294   0.990  0.00  0.00    -0.297 NA
ATOM      3  C   UNL     1       3.167   4.473   0.598  0.00  0.00    +0.066 C 
ATOM      4  C   UNL     1       4.312   4.701   1.588  0.00  0.00    -0.063 C 
ATOM      5  N   UNL     1       3.860   4.357   2.943  0.00  0.00    +0.384 N 
ATOM      6  C   UNL     1       2.706   5.178   3.335  0.00  0.00    -0.063 C 
ATOM      7  C   UNL     1       1.561   4.950   2.346  0.00  0.00    +0.066 C 
ATOM      8  H   UNL     1       3.542   3.304   2.938  0.00  0.00    -0.081 HD
BRANCH   5   9
ATOM      9  C   UNL     1       4.955   4.490   3.913  0.00  0.00    -0.043 C 
BRANCH   9  10
ATOM     10  C   UNL     1       6.015   3.460   3.620  0.00  0.00    -0.064 A 
ATOM     11  C   UNL     1       5.953   2.215   4.218  0.00  0.00    +0.002 A 
ATOM     12  C   UNL     1       6.923   1.268   3.945  0.00  0.00    +0.000 A 
ATOM     13  C   UNL     1       7.959   1.569   3.081  0.00  0.00    +0.000 A 
ATOM     14  C   UNL     1       8.024   2.816   2.487  0.00  0.00    +0.000 A 
ATOM     15  C   UNL     1       7.052   3.761   2.756  0.00  0.00    +0.002 A 
ENDBRANCH   9  10
ENDBRANCH   5   9
ENDBRANCH   1   2
BRANCH   1  16
ATOM     16  C   UNL     1       0.350   3.766   0.093  0.00  0.00    +0.008 A 
ATOM     17  C   UNL     1      -0.945   3.376   0.185  0.00  0.00    +0.013 A 
ATOM     18  C   UNL     1      -1.235   2.025   0.234  0.00  0.00    +0.008 A 
ATOM     19  C   UNL     1      -0.217   1.132   0.200  0.00  0.00    +0.045 A 
ATOM     20  S   UNL     1       1.208   2.201   0.081  0.00  0.00    -0.100 S 
ENDBRANCH   1  16
BRANCH   1  21
ATOM     21  C   UNL     1       1.451   5.421  -1.390  0.00  0.00    +0.095 C 
ATOM     22  C   UNL     1       2.027   6.836  -1.464  0.00  0.00    +0.027 C 
BRANCH  21  23
ATOM     23  N   UNL     1       0.359   5.287  -2.357  0.00  0.00    -0.185 NA
ATOM     24  H   UNL     1      -0.682   5.445  -2.037  0.00  0.00    +0.148 HD
BRANCH  23  25
ATOM     25  S   UNL     1       0.656   4.662  -3.861  0.00  0.00    +0.059 S 
ATOM     26  O   UNL     1      -0.589   4.638  -4.545  0.00  0.00    -0.153 OA
ATOM     27  O   UNL     1       1.791   5.350  -4.370  0.00  0.00    -0.153 OA
BRANCH  25  32
ATOM     28  C   UNL     1       2.322  -1.088  -3.105  0.00  0.00    +0.044 C 
ATOM     29  C   UNL     1       1.906   0.348  -3.294  0.00  0.00    -0.050 A 
ATOM     30  C   UNL     1       0.571   0.665  -3.464  0.00  0.00    +0.005 A 
ATOM     31  C   UNL     1       0.190   1.982  -3.638  0.00  0.00    +0.029 A 
ATOM     32  C   UNL     1       1.143   2.983  -3.640  0.00  0.00    +0.105 A 
ATOM     33  C   UNL     1       2.478   2.666  -3.475  0.00  0.00    +0.029 A 
ATOM     34  C   UNL     1       2.859   1.349  -3.297  0.00  0.00    +0.005 A 
ENDBRANCH  25  32
ENDBRANCH  23  25
ENDBRANCH  21  23
ENDBRANCH   1  21
TORSDOF 8
