REMARK  Name = ZINC13552169
REMARK  5 active torsions:
REMARK  status: ('A' for Active; 'I' for Inactive)
REMARK    1  A    between atoms: C_1  and  C_2
REMARK    2  A    between atoms: C_2  and  C_23
REMARK    3  A    between atoms: N_3  and  N_4
REMARK    4  A    between atoms: C_10  and  C_13
REMARK    5  A    between atoms: N_15  and  C_16
REMARK                            x       y       z     vdW  Elec       q    Type
REMARK                         _______ _______ _______ _____ _____    ______ ____
ROOT
ATOM      1  N   UNL     1       0.050   0.012   2.340  0.00  0.00    -0.126 NA
ATOM      2  C   UNL     1       0.061  -0.647   3.479  0.00  0.00    +0.183 C 
ATOM      3  N   UNL     1       0.082  -2.030   3.511  0.00  0.00    -0.264 N 
ATOM      4  C   UNL     1       0.402  -2.746   4.578  0.00  0.00    +0.220 C 
ATOM      5  O   UNL     1       0.500  -3.941   4.399  0.00  0.00    -0.275 OA
ATOM      6  C   UNL     1       0.657  -2.278   5.970  0.00  0.00    +0.120 C 
ATOM      7  C   UNL     1       1.182  -0.842   6.016  0.00  0.00    +0.149 C 
ATOM      8  S   UNL     1       0.060   0.201   5.036  0.00  0.00    -0.075 S 
ATOM      9  H   UNL     1      -0.153  -2.506   2.699  0.00  0.00    +0.157 HD
ENDROOT
BRANCH   7  10
ATOM     10  C   UNL     1       1.215  -0.357   7.443  0.00  0.00    +0.231 C 
ATOM     11  O   UNL     1       0.413  -0.784   8.247  0.00  0.00    -0.274 OA
ATOM     12  N   UNL     1       2.135   0.550   7.826  0.00  0.00    -0.285 N 
ATOM     13  H   UNL     1       2.818   0.841   7.201  0.00  0.00    +0.155 HD
BRANCH  12  14
ATOM     14  C   UNL     1       2.106   1.072   9.123  0.00  0.00    +0.035 A 
ATOM     15  C   UNL     1       2.460   2.396   9.349  0.00  0.00    +0.023 A 
ATOM     16  C   UNL     1       2.429   2.909  10.631  0.00  0.00    +0.003 A 
ATOM     17  C   UNL     1       2.048   2.106  11.690  0.00  0.00    +0.020 A 
ATOM     18  C   UNL     1       1.694   0.786  11.469  0.00  0.00    +0.043 A 
ATOM     19  C   UNL     1       1.717   0.269  10.187  0.00  0.00    +0.043 A 
ATOM     20 CL   UNL     1       1.216  -0.218  12.802  0.00  0.00    -0.083 Cl
ENDBRANCH  12  14
ENDBRANCH   7  10
BRANCH   1  23
ATOM     21  C   UNL     1       0.024   1.475  -0.004  0.00  0.00    +0.069 C 
ATOM     22  C   UNL     1       0.039  -0.032  -0.006  0.00  0.00    +0.074 C 
ATOM     23  N   UNL     1       0.051  -0.687   1.126  0.00  0.00    -0.151 NA
BRANCH  22  24
ATOM     24  C   UNL     1       0.041  -0.762  -1.274  0.00  0.00    +0.035 A 
ATOM     25  C   UNL     1       0.049  -2.131  -1.494  0.00  0.00    +0.017 A 
ATOM     26  C   UNL     1       0.049  -2.583  -2.793  0.00  0.00    +0.008 A 
ATOM     27  C   UNL     1       0.042  -1.682  -3.811  0.00  0.00    +0.046 A 
ATOM     28  S   UNL     1       0.026  -0.124  -2.941  0.00  0.00    -0.095 S 
ENDBRANCH  22  24
ENDBRANCH   1  23
TORSDOF 4
