REMARK  Name = ZINC09310765
REMARK  5 active torsions:
REMARK  status: ('A' for Active; 'I' for Inactive)
REMARK    1  A    between atoms: C_1  and  C_2
REMARK    2  A    between atoms: C_7  and  C_8
REMARK    3  A    between atoms: C_11  and  C_13
REMARK    4  A    between atoms: N_20  and  C_23
REMARK    5  A    between atoms: C_28  and  C_29
REMARK                            x       y       z     vdW  Elec       q    Type
REMARK                         _______ _______ _______ _____ _____    ______ ____
ROOT
ATOM      1  C   UNL     1       4.606   7.110  -1.208  0.00  0.00    +0.064 C 
ATOM      2  C   UNL     1       4.021   7.709  -2.321  0.00  0.00    +0.103 C 
ATOM      3  C   UNL     1       2.669   7.338  -2.772  0.00  0.00    +0.257 C 
ATOM      4  O   UNL     1       2.023   6.494  -2.180  0.00  0.00    -0.270 OA
ATOM      5  N   UNL     1       2.164   7.964  -3.855  0.00  0.00    -0.235 N 
ATOM      6  C   UNL     1       2.867   8.892  -4.519  0.00  0.00    +0.320 C 
ATOM      7  O   UNL     1       2.357   9.415  -5.490  0.00  0.00    -0.251 OA
ATOM      8  N   UNL     1       4.103   9.274  -4.168  0.00  0.00    -0.190 N 
ATOM      9  C   UNL     1       4.731   8.736  -3.102  0.00  0.00    +0.264 C 
ATOM     10  O   UNL     1       5.853   9.092  -2.793  0.00  0.00    -0.269 OA
ATOM     11  H   UNL     1       1.274   7.734  -4.163  0.00  0.00    +0.159 HD
ENDROOT
BRANCH   8  12
ATOM     12  C   UNL     1       4.759  10.253  -4.926  0.00  0.00    +0.049 A 
ATOM     13  C   UNL     1       5.553   9.883  -6.004  0.00  0.00    +0.025 A 
ATOM     14  C   UNL     1       6.193  10.851  -6.753  0.00  0.00    +0.017 A 
ATOM     15  C   UNL     1       6.053  12.188  -6.423  0.00  0.00    +0.018 A 
ATOM     16  C   UNL     1       5.267  12.559  -5.347  0.00  0.00    +0.020 A 
ATOM     17  C   UNL     1       4.620  11.595  -4.598  0.00  0.00    -0.028 A 
ATOM     18  C   UNL     1       3.763  12.000  -3.426  0.00  0.00    +0.046 C 
ATOM     19 BR   UNL     1       6.938  13.509  -7.446  0.00  0.00    -0.050 Br
ENDBRANCH   8  12
BRANCH   1  23
ATOM     20  C   UNL     1       2.150   5.469   0.767  0.00  0.00    +0.136 A 
ATOM     21  C   UNL     1       3.210   4.606   0.961  0.00  0.00    +0.050 A 
ATOM     22  C   UNL     1       4.286   5.113   0.237  0.00  0.00    +0.050 A 
ATOM     23  C   UNL     1       3.843   6.277  -0.379  0.00  0.00    +0.129 A 
ATOM     24  O   UNL     1       2.547   6.462  -0.045  0.00  0.00    -0.455 OA
BRANCH  20  31
ATOM     25  C   UNL     1       0.927   7.710   2.128  0.00  0.00    +0.044 C 
ATOM     26  C   UNL     1       0.201   6.396   2.009  0.00  0.00    -0.040 A 
ATOM     27  C   UNL     1      -1.060   6.250   2.550  0.00  0.00    +0.005 A 
ATOM     28  C   UNL     1      -1.731   5.046   2.437  0.00  0.00    +0.020 A 
ATOM     29  C   UNL     1      -1.139   3.974   1.789  0.00  0.00    +0.042 A 
ATOM     30  C   UNL     1       0.121   4.105   1.242  0.00  0.00    +0.031 A 
ATOM     31  C   UNL     1       0.802   5.321   1.349  0.00  0.00    +0.022 A 
ATOM     32 CL   UNL     1      -1.988   2.465   1.659  0.00  0.00    -0.084 Cl
ENDBRANCH  20  31
ENDBRANCH   1  23
TORSDOF 3
