REMARK  Name = ZINC61888134
REMARK  5 active torsions:
REMARK  status: ('A' for Active; 'I' for Inactive)
REMARK    1  A    between atoms: C_2  and  S_8
REMARK    2  A    between atoms: S_8  and  N_11
REMARK    3  A    between atoms: N_11  and  C_12
REMARK    4  A    between atoms: C_17  and  C_19
REMARK    5  A    between atoms: N_20  and  O_21
REMARK                            x       y       z     vdW  Elec       q    Type
REMARK                         _______ _______ _______ _____ _____    ______ ____
ROOT
ATOM      1  N   UNL     1       1.835   4.582   1.688  0.00  0.00    -0.186 NA
ATOM      2  H   UNL     1       1.331   5.131   2.309  0.00  0.00    +0.148 HD
ENDROOT
BRANCH   1   3
ATOM      3  C   UNL     1       3.244   4.281   1.953  0.00  0.00    +0.087 C 
ATOM      4  C   UNL     1       4.070   5.579   1.946  0.00  0.00    +0.021 C 
ATOM      5  C   UNL     1       4.698   5.710   3.349  0.00  0.00    +0.002 C 
ATOM      6  C   UNL     1       3.766   4.874   4.261  0.00  0.00    +0.013 C 
ATOM      7  C   UNL     1       3.398   3.668   3.360  0.00  0.00    +0.074 C 
BRANCH   7   8
ATOM      8  C   UNL     1       2.099   3.049   3.811  0.00  0.00    +0.136 C 
ATOM      9  N   UNL     1       1.906   1.780   3.669  0.00  0.00    -0.076 NA
ATOM     10  N   UNL     1       1.120   3.837   4.373  0.00  0.00    -0.344 N 
ATOM     11  H   UNL     1       1.265   4.790   4.479  0.00  0.00    +0.144 HD
ATOM     12  H   UNL     1       0.284   3.438   4.663  0.00  0.00    +0.144 HD
BRANCH   9  13
ATOM     13  O   UNL     1       2.938   0.959   3.155  0.00  0.00    -0.408 OA
ATOM     14  H   UNL     1       2.682   0.034   3.032  0.00  0.00    +0.328 HD
ENDBRANCH   9  13
ENDBRANCH   7   8
ENDBRANCH   1   3
BRANCH   1  15
ATOM     15  S   UNL     1       1.102   3.985   0.329  0.00  0.00    +0.061 S 
ATOM     16  O   UNL     1       1.993   4.224  -0.752  0.00  0.00    -0.153 OA
ATOM     17  O   UNL     1      -0.233   4.473   0.339  0.00  0.00    -0.153 OA
BRANCH  15  19
ATOM     18  C   UNL     1      -0.208   1.632   0.825  0.00  0.00    +0.057 A 
ATOM     19  C   UNL     1       0.999   2.236   0.518  0.00  0.00    +0.132 A 
ATOM     20  C   UNL     1       2.101   1.461   0.366  0.00  0.00    +0.106 A 
ATOM     21  S   UNL     1       1.447  -0.174   0.657  0.00  0.00    -0.063 S 
ATOM     22  C   UNL     1      -0.251   0.284   0.963  0.00  0.00    +0.081 A 
ATOM     23 CL   UNL     1      -1.607  -0.733   1.341  0.00  0.00    -0.076 Cl
ATOM     24 CL   UNL     1       3.727   1.935  -0.015  0.00  0.00    -0.074 Cl
ENDBRANCH  15  19
ENDBRANCH   1  15
TORSDOF 5
