REMARK  Name = ZINC39752804
REMARK  17 active torsions:
REMARK  status: ('A' for Active; 'I' for Inactive)
REMARK    1  A    between atoms: C_1  and  C_2
REMARK    2  A    between atoms: C_2  and  N_3
REMARK    3  A    between atoms: C_4  and  C_23
REMARK    4  A    between atoms: C_7  and  S_8
REMARK    5  A    between atoms: S_8  and  C_9
REMARK    6  A    between atoms: C_9  and  C_10
REMARK    7  A    between atoms: C_10  and  C_12
REMARK    8  A    between atoms: C_15  and  O_21
REMARK    9  A    between atoms: C_16  and  N_18
REMARK   10  A    between atoms: O_21  and  C_22
REMARK   11  A    between atoms: C_23  and  C_25
REMARK   12  A    between atoms: C_23  and  N_28
REMARK   13  A    between atoms: C_25  and  C_26
REMARK   14  A    between atoms: C_25  and  C_27
REMARK   15  A    between atoms: C_29  and  C_31
REMARK   16  A    between atoms: C_36  and  O_37
REMARK   17  A    between atoms: O_37  and  C_38
REMARK                            x       y       z     vdW  Elec       q    Type
REMARK                         _______ _______ _______ _____ _____    ______ ____
ROOT
ATOM      1  N   UNL     1      -1.372  -0.511   0.012  0.00  0.00    -0.305 N 
ATOM      2  C   UNL     1      -2.139  -0.798   1.108  0.00  0.00    +0.155 A 
ATOM      3  N   UNL     1      -3.292  -1.221   0.675  0.00  0.00    -0.132 NA
ATOM      4  N   UNL     1      -3.308  -1.222  -0.610  0.00  0.00    -0.122 NA
ATOM      5  C   UNL     1      -2.156  -0.790  -1.070  0.00  0.00    +0.192 A 
ENDROOT
BRANCH   1   7
ATOM      6  C   UNL     1      -0.019   1.526   0.010  0.00  0.00    +0.027 C 
ATOM      7  C   UNL     1       0.002  -0.004   0.002  0.00  0.00    +0.122 C 
ENDBRANCH   1   7
BRANCH   5   8
ATOM      8  S   UNL     1      -1.707  -0.609  -2.764  0.00  0.00    -0.078 S 
BRANCH   8   9
ATOM      9  C   UNL     1      -3.184  -1.145  -3.670  0.00  0.00    +0.157 C 
BRANCH   9  10
ATOM     10  C   UNL     1      -2.931  -1.038  -5.152  0.00  0.00    +0.173 C 
ATOM     11  O   UNL     1      -1.859  -0.639  -5.557  0.00  0.00    -0.291 OA
BRANCH  10  12
ATOM     12  C   UNL     1      -3.981  -1.417  -6.105  0.00  0.00    +0.021 A 
ATOM     13  C   UNL     1      -5.221  -1.872  -5.640  0.00  0.00    +0.015 A 
ATOM     14  C   UNL     1      -6.197  -2.224  -6.529  0.00  0.00    +0.048 A 
ATOM     15  C   UNL     1      -5.964  -2.132  -7.897  0.00  0.00    +0.150 A 
ATOM     16  C   UNL     1      -4.737  -1.681  -8.370  0.00  0.00    +0.168 A 
ATOM     17  C   UNL     1      -3.749  -1.318  -7.483  0.00  0.00    +0.047 A 
BRANCH  16  18
ATOM     18  N   UNL     1      -4.494  -1.586  -9.827  0.00  0.00    +0.060 N 
ATOM     19  O   UNL     1      -3.427  -1.194 -10.238  0.00  0.00    -0.126 OA
ATOM     20  O   UNL     1      -5.364  -1.900 -10.607  0.00  0.00    -0.126 OA
ENDBRANCH  16  18
BRANCH  15  21
ATOM     21  O   UNL     1      -6.939  -2.483  -8.774  0.00  0.00    -0.493 OA
ATOM     22  C   UNL     1      -8.175  -2.938  -8.221  0.00  0.00    +0.277 C 
ENDBRANCH  15  21
ENDBRANCH  10  12
ENDBRANCH   9  10
ENDBRANCH   8   9
ENDBRANCH   5   8
BRANCH   2  23
ATOM     23  C   UNL     1      -1.725  -0.651   2.550  0.00  0.00    +0.144 C 
BRANCH  23  24
ATOM     24  N   UNL     1      -2.805  -0.011   3.305  0.00  0.00    -0.301 N 
ATOM     25  C   UNL     1      -2.525   0.672   4.433  0.00  0.00    +0.248 C 
ATOM     26  O   UNL     1      -1.377   0.757   4.824  0.00  0.00    -0.270 OA
ATOM     27  H   UNL     1      -3.721  -0.079   2.994  0.00  0.00    +0.150 HD
BRANCH  25  28
ATOM     28  C   UNL     1      -3.613   1.317   5.194  0.00  0.00    +0.078 A 
ATOM     29  C   UNL     1      -4.934   1.217   4.752  0.00  0.00    +0.017 A 
ATOM     30  C   UNL     1      -5.945   1.821   5.467  0.00  0.00    +0.001 A 
ATOM     31  C   UNL     1      -5.658   2.528   6.623  0.00  0.00    +0.004 A 
ATOM     32  C   UNL     1      -4.356   2.634   7.071  0.00  0.00    +0.046 A 
ATOM     33  C   UNL     1      -3.327   2.028   6.367  0.00  0.00    +0.132 A 
BRANCH  33  34
ATOM     34  O   UNL     1      -2.048   2.127   6.809  0.00  0.00    -0.494 OA
ATOM     35  C   UNL     1      -1.833   2.868   8.012  0.00  0.00    +0.277 C 
ENDBRANCH  33  34
ENDBRANCH  25  28
ENDBRANCH  23  24
BRANCH  23  36
ATOM     36  C   UNL     1      -1.439  -2.033   3.141  0.00  0.00    +0.011 C 
ATOM     37  C   UNL     1      -0.311  -2.702   2.353  0.00  0.00    +0.009 C 
ATOM     38  C   UNL     1      -1.019  -1.885   4.605  0.00  0.00    +0.009 C 
ENDBRANCH  23  36
ENDBRANCH   2  23
TORSDOF 12
