REMARK  Name = ZINC36743105
REMARK  6 active torsions:
REMARK  status: ('A' for Active; 'I' for Inactive)
REMARK    1  A    between atoms: C_1  and  C_2
REMARK    2  A    between atoms: C_5  and  N_19
REMARK    3  A    between atoms: C_6  and  N_9
REMARK    4  A    between atoms: C_7  and  C_8
REMARK    5  A    between atoms: N_9  and  S_10
REMARK    6  A    between atoms: S_10  and  C_13
REMARK                            x       y       z     vdW  Elec       q    Type
REMARK                         _______ _______ _______ _____ _____    ______ ____
ROOT
ATOM      1  C   UNL     1       0.256   1.677   0.154  0.00  0.00    +0.044 C 
ATOM      2  C   UNL     1       0.202   0.172   0.081  0.00  0.00    -0.046 A 
ATOM      3  C   UNL     1      -0.237  -0.446  -1.075  0.00  0.00    +0.005 A 
ATOM      4  C   UNL     1      -0.290  -1.826  -1.148  0.00  0.00    +0.025 A 
ATOM      5  C   UNL     1       0.099  -2.593  -0.061  0.00  0.00    +0.047 A 
ATOM      6  C   UNL     1       0.541  -1.969   1.105  0.00  0.00    +0.072 A 
ATOM      7  C   UNL     1       0.596  -0.585   1.169  0.00  0.00    -0.023 A 
ATOM      8  C   UNL     1       1.079   0.093   2.424  0.00  0.00    +0.046 C 
ENDROOT
BRANCH   5   9
ATOM      9  N   UNL     1       0.046  -3.991  -0.133  0.00  0.00    -0.356 N 
ATOM     10  H   UNL     1      -0.019  -4.430  -0.995  0.00  0.00    +0.142 HD
ATOM     11  H   UNL     1       0.074  -4.519   0.680  0.00  0.00    +0.142 HD
ENDBRANCH   5   9
BRANCH   6  12
ATOM     12  N   UNL     1       0.935  -2.738   2.208  0.00  0.00    -0.214 N 
ATOM     13  H   UNL     1       0.436  -2.686   3.038  0.00  0.00    +0.174 HD
BRANCH  12  14
ATOM     14  S   UNL     1       2.250  -3.738   2.093  0.00  0.00    +0.074 S 
ATOM     15  O   UNL     1       2.393  -4.367   3.359  0.00  0.00    -0.150 OA
ATOM     16  O   UNL     1       2.096  -4.475   0.888  0.00  0.00    -0.150 OA
BRANCH  14  17
ATOM     17  C   UNL     1       3.666  -2.712   1.878  0.00  0.00    +0.126 A 
ATOM     18  C   UNL     1       4.152  -2.443   0.607  0.00  0.00    +0.032 A 
ATOM     19  C   UNL     1       5.269  -1.631   0.486  0.00  0.00    +0.022 A 
ATOM     20  C   UNL     1       5.857  -1.119   1.628  0.00  0.00    +0.111 A 
ATOM     21  N   UNL     1       5.368  -1.396   2.820  0.00  0.00    -0.261 NA
ATOM     22  C   UNL     1       4.304  -2.160   2.973  0.00  0.00    +0.139 A 
ENDBRANCH  14  17
ENDBRANCH  12  14
ENDBRANCH   6  12
TORSDOF 4
