REMARK  Name = ZINC02093406
REMARK  13 active torsions:
REMARK  status: ('A' for Active; 'I' for Inactive)
REMARK    1  A    between atoms: C_1  and  C_2
REMARK    2  A    between atoms: C_6  and  O_20
REMARK    3  A    between atoms: C_12  and  C_13
REMARK    4  A    between atoms: C_13  and  C_14
REMARK    5  A    between atoms: O_20  and  C_21
REMARK    6  A    between atoms: C_21  and  C_23
REMARK    7  A    between atoms: C_23  and  C_25
REMARK    8  A    between atoms: C_23  and  N_31
REMARK    9  A    between atoms: C_32  and  O_34
REMARK   10  A    between atoms: O_34  and  C_35
REMARK   11  A    between atoms: C_35  and  C_36
REMARK   12  A    between atoms: C_35  and  C_37
REMARK   13  A    between atoms: C_35  and  C_38
REMARK                            x       y       z     vdW  Elec       q    Type
REMARK                         _______ _______ _______ _____ _____    ______ ____
ROOT
ATOM      1  C   UNL     1      -1.944   2.734  -1.223  0.00  0.00    +0.045 C 
ATOM      2  C   UNL     1      -1.353   2.050  -0.018  0.00  0.00    -0.030 A 
ATOM      3  C   UNL     1      -0.064   1.361  -0.101  0.00  0.00    +0.021 A 
ATOM      4  C   UNL     1       0.657   1.324  -1.300  0.00  0.00    +0.015 A 
ATOM      5  C   UNL     1       1.860   0.679  -1.349  0.00  0.00    +0.047 A 
ATOM      6  C   UNL     1       2.374   0.058  -0.212  0.00  0.00    +0.135 A 
ATOM      7  C   UNL     1       1.674   0.085   0.982  0.00  0.00    +0.093 A 
ATOM      8  C   UNL     1       0.451   0.735   1.050  0.00  0.00    +0.143 A 
ATOM      9  O   UNL     1      -0.248   0.774   2.205  0.00  0.00    -0.422 OA
ATOM     10  C   UNL     1      -1.433   1.399   2.287  0.00  0.00    +0.341 A 
ATOM     11  O   UNL     1      -2.026   1.408   3.350  0.00  0.00    -0.245 OA
ATOM     12  C   UNL     1      -2.007   2.047   1.173  0.00  0.00    +0.045 A 
ENDROOT
BRANCH  12  13
ATOM     13  C   UNL     1      -3.339   2.738   1.305  0.00  0.00    +0.077 C 
BRANCH  13  14
ATOM     14  C   UNL     1      -4.447   1.742   1.078  0.00  0.00    -0.043 A 
ATOM     15  C   UNL     1      -5.010   1.609  -0.177  0.00  0.00    +0.004 A 
ATOM     16  C   UNL     1      -6.023   0.692  -0.387  0.00  0.00    +0.000 A 
ATOM     17  C   UNL     1      -6.479  -0.086   0.661  0.00  0.00    +0.000 A 
ATOM     18  C   UNL     1      -5.920   0.051   1.918  0.00  0.00    +0.000 A 
ATOM     19  C   UNL     1      -4.904   0.965   2.126  0.00  0.00    +0.004 A 
ENDBRANCH  13  14
ENDBRANCH  12  13
BRANCH   6  20
ATOM     20  O   UNL     1       3.571  -0.579  -0.277  0.00  0.00    -0.424 OA
BRANCH  20  21
ATOM     21  C   UNL     1       4.662   0.188  -0.437  0.00  0.00    +0.338 C 
ATOM     22  O   UNL     1       4.563   1.391  -0.411  0.00  0.00    -0.248 OA
BRANCH  21  23
ATOM     23  C   UNL     1       6.010  -0.454  -0.648  0.00  0.00    +0.216 C 
BRANCH  23  24
ATOM     24  C   UNL     1       6.345  -1.321   0.538  0.00  0.00    -0.016 A 
ATOM     25  C   UNL     1       6.842  -0.748   1.694  0.00  0.00    +0.006 A 
ATOM     26  C   UNL     1       7.145  -1.543   2.784  0.00  0.00    +0.000 A 
ATOM     27  C   UNL     1       6.960  -2.911   2.714  0.00  0.00    +0.000 A 
ATOM     28  C   UNL     1       6.467  -3.484   1.557  0.00  0.00    +0.000 A 
ATOM     29  C   UNL     1       6.160  -2.689   0.469  0.00  0.00    +0.006 A 
ENDBRANCH  23  24
BRANCH  23  30
ATOM     30  N   UNL     1       7.029   0.589  -0.794  0.00  0.00    -0.264 N 
ATOM     31  C   UNL     1       8.166   0.329  -1.469  0.00  0.00    +0.402 C 
ATOM     32  O   UNL     1       8.346  -0.770  -1.956  0.00  0.00    -0.226 OA
ATOM     33  H   UNL     1       6.885   1.466  -0.406  0.00  0.00    +0.153 HD
BRANCH  31  34
ATOM     34  O   UNL     1       9.103   1.287  -1.603  0.00  0.00    -0.445 OA
BRANCH  34  35
ATOM     35  C   UNL     1      10.302   0.936  -2.342  0.00  0.00    +0.107 C 
ATOM     36  C   UNL     1       9.923   0.529  -3.768  0.00  0.00    +0.055 C 
ATOM     37  C   UNL     1      11.243   2.143  -2.390  0.00  0.00    +0.055 C 
ATOM     38  C   UNL     1      11.006  -0.232  -1.649  0.00  0.00    +0.055 C 
ENDBRANCH  34  35
ENDBRANCH  31  34
ENDBRANCH  23  30
ENDBRANCH  21  23
ENDBRANCH  20  21
ENDBRANCH   6  20
TORSDOF 9
