REMARK  Name = ZINC61701240
REMARK  4 active torsions:
REMARK  status: ('A' for Active; 'I' for Inactive)
REMARK    1  A    between atoms: C_1  and  C_2
REMARK    2  A    between atoms: C_5  and  N_11
REMARK    3  A    between atoms: C_7  and  N_8
REMARK    4  A    between atoms: C_19  and  N_20
REMARK                            x       y       z     vdW  Elec       q    Type
REMARK                         _______ _______ _______ _____ _____    ______ ____
ROOT
ATOM      1  N   UNL     1       0.642  -4.095   0.105  0.00  0.00    -0.325 N 
ATOM      2  C   UNL     1       0.699  -4.918  -1.115  0.00  0.00    +0.110 C 
ATOM      3  C   UNL     1       2.138  -5.401  -1.289  0.00  0.00    +0.056 C 
ATOM      4  C   UNL     1       2.679  -5.953   0.003  0.00  0.00    -0.021 A 
ATOM      5  C   UNL     1       2.135  -5.651   1.230  0.00  0.00    -0.025 A 
ATOM      6  C   UNL     1       2.694  -6.183   2.385  0.00  0.00    +0.005 A 
ATOM      7  C   UNL     1       3.788  -7.023   2.315  0.00  0.00    +0.002 A 
ATOM      8  C   UNL     1       4.333  -7.339   1.086  0.00  0.00    +0.023 A 
ATOM      9  C   UNL     1       3.782  -6.806  -0.069  0.00  0.00    +0.028 A 
ATOM     10  C   UNL     1       0.932  -4.760   1.380  0.00  0.00    +0.140 C 
ENDROOT
BRANCH   1  15
ATOM     11  C   UNL     1      -0.624   1.428  -0.120  0.00  0.00    +0.046 C 
ATOM     12  C   UNL     1      -0.288  -0.040  -0.061  0.00  0.00    -0.020 A 
ATOM     13  C   UNL     1      -0.361  -0.812  -1.206  0.00  0.00    +0.007 A 
ATOM     14  C   UNL     1      -0.053  -2.157  -1.155  0.00  0.00    +0.023 A 
ATOM     15  C   UNL     1       0.330  -2.735   0.049  0.00  0.00    +0.032 A 
ATOM     16  C   UNL     1       0.402  -1.957   1.197  0.00  0.00    +0.056 A 
ATOM     17  C   UNL     1       0.098  -0.611   1.138  0.00  0.00    +0.131 A 
BRANCH  17  18
ATOM     18  N   UNL     1       0.181   0.220   2.360  0.00  0.00    +0.057 N 
ATOM     19  O   UNL     1       0.584   1.358   2.291  0.00  0.00    -0.126 OA
ATOM     20  O   UNL     1      -0.155  -0.238   3.427  0.00  0.00    -0.126 OA
ENDBRANCH  17  18
ENDBRANCH   1  15
BRANCH   9  21
ATOM     21  N   UNL     1       4.333  -7.124  -1.312  0.00  0.00    -0.358 N 
ATOM     22  H   UNL     1       3.950  -6.752  -2.122  0.00  0.00    +0.142 HD
ATOM     23  H   UNL     1       5.100  -7.716  -1.365  0.00  0.00    +0.142 HD
ENDBRANCH   9  21
TORSDOF 3
