REMARK  Name = ZINC63720192
REMARK  6 active torsions:
REMARK  status: ('A' for Active; 'I' for Inactive)
REMARK    1  A    between atoms: C_4  and  C_7
REMARK    2  A    between atoms: C_7  and  C_9
REMARK    3  A    between atoms: C_7  and  O_41
REMARK    4  A    between atoms: C_9  and  N_10
REMARK    5  A    between atoms: C_30  and  C_32
REMARK    6  A    between atoms: C_36  and  N_38
REMARK                            x       y       z     vdW  Elec       q    Type
REMARK                         _______ _______ _______ _____ _____    ______ ____
ROOT
ATOM      1  N   UNL     1       5.477  -1.579  -1.389  0.00  0.00    -0.288 N 
ATOM      2  C   UNL     1       6.733  -0.866  -1.549  0.00  0.00    +0.203 C 
ATOM      3  C   UNL     1       7.906  -1.789  -1.575  0.00  0.00    +0.234 C 
ATOM      4  O   UNL     1       9.007  -1.297  -1.705  0.00  0.00    -0.274 OA
ATOM      5  N   UNL     1       7.830  -3.121  -1.466  0.00  0.00    -0.279 N 
ATOM      6  C   UNL     1       6.562  -3.828  -1.325  0.00  0.00    +0.167 C 
ATOM      7  C   UNL     1       5.390  -2.904  -1.284  0.00  0.00    +0.237 C 
ATOM      8  O   UNL     1       4.287  -3.392  -1.151  0.00  0.00    -0.274 OA
ATOM      9  C   UNL     1       6.392  -4.837  -2.475  0.00  0.00    +0.065 C 
ATOM     10  C   UNL     1       7.704  -5.572  -2.600  0.00  0.00    -0.034 C 
ATOM     11  C   UNL     1       7.987  -6.868  -2.637  0.00  0.00    -0.001 A 
ATOM     12  C   UNL     1       7.123  -8.059  -2.685  0.00  0.00    +0.010 A 
ATOM     13  C   UNL     1       7.759  -9.261  -2.693  0.00  0.00    +0.001 A 
ATOM     14  C   UNL     1       9.150  -9.395  -2.659  0.00  0.00    +0.002 A 
ATOM     15  C   UNL     1      10.020  -8.355  -2.624  0.00  0.00    +0.026 A 
ATOM     16  C   UNL     1       9.471  -7.040  -2.621  0.00  0.00    +0.043 A 
ATOM     17  N   UNL     1      10.063  -5.881  -2.616  0.00  0.00    -0.375 N 
ATOM     18  C   UNL     1       9.038  -4.840  -2.689  0.00  0.00    +0.131 C 
ATOM     19  C   UNL     1       9.095  -3.889  -1.490  0.00  0.00    +0.133 C 
ATOM     20  H   UNL     1      11.020  -5.733  -2.571  0.00  0.00    +0.160 HD
ENDROOT
BRANCH  19  21
ATOM     21  C   UNL     1       9.236  -4.682  -0.216  0.00  0.00    -0.023 A 
ATOM     22  C   UNL     1       8.271  -5.609   0.132  0.00  0.00    +0.005 A 
ATOM     23  C   UNL     1       8.400  -6.336   1.300  0.00  0.00    +0.003 A 
ATOM     24  C   UNL     1       9.494  -6.136   2.122  0.00  0.00    +0.033 A 
ATOM     25  C   UNL     1      10.459  -5.209   1.774  0.00  0.00    +0.127 A 
ATOM     26  C   UNL     1      10.332  -4.485   0.603  0.00  0.00    +0.038 A 
BRANCH  25  27
ATOM     27  N   UNL     1      11.630  -4.994   2.654  0.00  0.00    +0.056 N 
ATOM     28  O   UNL     1      11.742  -5.630   3.676  0.00  0.00    -0.126 OA
ATOM     29  O   UNL     1      12.474  -4.184   2.349  0.00  0.00    -0.126 OA
ENDBRANCH  25  27
ENDBRANCH  19  21
BRANCH   1  30
ATOM     30  C   UNL     1       4.239  -0.797  -1.335  0.00  0.00    +0.144 C 
BRANCH  30  31
ATOM     31  C   UNL     1       3.937  -0.420   0.116  0.00  0.00    +0.162 C 
BRANCH  31  35
ATOM     32  C   UNL     1       0.328   1.860   0.271  0.00  0.00    +0.000 A 
ATOM     33  C   UNL     1       1.550   2.503   0.220  0.00  0.00    +0.000 A 
ATOM     34  C   UNL     1       2.718   1.766   0.170  0.00  0.00    +0.006 A 
ATOM     35  C   UNL     1       2.664   0.384   0.172  0.00  0.00    -0.018 A 
ATOM     36  C   UNL     1       1.442  -0.259   0.224  0.00  0.00    +0.006 A 
ATOM     37  C   UNL     1       0.274   0.479   0.272  0.00  0.00    +0.000 A 
ENDBRANCH  31  35
BRANCH  31  38
ATOM     38  O   UNL     1       3.784  -1.608   0.896  0.00  0.00    -0.386 OA
ATOM     39  H   UNL     1       3.069  -2.185   0.596  0.00  0.00    +0.210 HD
ENDBRANCH  31  38
ENDBRANCH  30  31
ENDBRANCH   1  30
TORSDOF 6
