REMARK  Name = ZINC37455872
REMARK  3 active torsions:
REMARK  status: ('A' for Active; 'I' for Inactive)
REMARK    1  A    between atoms: C_5  and  C_6
REMARK    2  A    between atoms: N_8  and  C_9
REMARK    3  A    between atoms: C_10  and  C_17
REMARK                            x       y       z     vdW  Elec       q    Type
REMARK                         _______ _______ _______ _____ _____    ______ ____
ROOT
ATOM      1  C   UNL     1      -1.122  -0.942   0.008  0.00  0.00    +0.255 C 
ATOM      2  O   UNL     1      -2.265  -0.523   0.022  0.00  0.00    -0.269 OA
ATOM      3  N   UNL     1      -0.892  -2.270  -0.001  0.00  0.00    -0.275 N 
ATOM      4  H   UNL     1       0.019  -2.604  -0.012  0.00  0.00    +0.156 HD
ENDROOT
BRANCH   3   5
ATOM      5  C   UNL     1      -1.954  -3.156   0.004  0.00  0.00    +0.087 A 
ATOM      6  C   UNL     1      -1.908  -4.542   0.002  0.00  0.00    +0.095 A 
ATOM      7  C   UNL     1      -3.188  -5.252   0.010  0.00  0.00    -0.021 A 
ATOM      8  C   UNL     1      -4.263  -4.445   0.016  0.00  0.00    -0.004 A 
ATOM      9  S   UNL     1      -3.593  -2.802   0.023  0.00  0.00    -0.077 S 
ATOM     10  C   UNL     1      -5.550  -5.226   0.019  0.00  0.00    +0.043 C 
ATOM     11  C   UNL     1      -5.144  -6.650  -0.419  0.00  0.00    +0.010 C 
ATOM     12  C   UNL     1      -3.665  -6.703   0.015  0.00  0.00    +0.037 C 
BRANCH   6  13
ATOM     13  C   UNL     1      -0.675  -5.241  -0.007  0.00  0.00    +0.389 C 
ATOM     14  O   UNL     1       0.381  -4.620  -0.013  0.00  0.00    -0.240 OA
ATOM     15  O   UNL     1      -0.666  -6.466  -0.009  0.00  0.00    -0.240 OA
ENDBRANCH   6  13
ENDBRANCH   3   5
BRANCH   1  20
ATOM     16  C   UNL     1      -0.017   1.383   0.010  0.00  0.00    +0.037 A 
ATOM     17  C   UNL     1       1.213   1.997   0.001  0.00  0.00    +0.040 A 
ATOM     18  C   UNL     1       2.333   1.229  -0.014  0.00  0.00    +0.070 A 
ATOM     19  S   UNL     1       1.751  -0.347  -0.017  0.00  0.00    -0.076 S 
ATOM     20  C   UNL     1       0.002  -0.004   0.002  0.00  0.00    +0.076 A 
ATOM     21 BR   UNL     1       4.134   1.803  -0.029  0.00  0.00    -0.041 Br
ATOM     22 BR   UNL     1       1.343   3.883   0.009  0.00  0.00    -0.049 Br
ENDBRANCH   1  20
TORSDOF 3
