REMARK  Name = ZINC03459301
REMARK  8 active torsions:
REMARK  status: ('A' for Active; 'I' for Inactive)
REMARK    1  A    between atoms: C_1  and  C_2
REMARK    2  A    between atoms: C_7  and  C_9
REMARK    3  A    between atoms: C_7  and  C_10
REMARK    4  A    between atoms: N_13  and  C_17
REMARK    5  A    between atoms: C_17  and  C_18
REMARK    6  A    between atoms: N_20  and  C_21
REMARK    7  A    between atoms: C_21  and  C_22
REMARK    8  A    between atoms: C_21  and  C_28
REMARK                            x       y       z     vdW  Elec       q    Type
REMARK                         _______ _______ _______ _____ _____    ______ ____
ROOT
ATOM      1  C   UNL     1       0.458  -3.241  -4.606  0.00  0.00    +0.213 C 
ENDROOT
BRANCH   1  13
ATOM      2  C   UNL     1      -0.061   1.649   0.498  0.00  0.00    +0.007 C 
ATOM      3  C   UNL     1      -0.046   0.132   0.299  0.00  0.00    -0.011 C 
ATOM      4  C   UNL     1       0.612  -0.200  -1.042  0.00  0.00    +0.038 C 
ATOM      5  C   UNL     1       0.646  -1.713  -1.232  0.00  0.00    +0.113 C 
ATOM      6  C   UNL     1       1.417  -2.381  -0.099  0.00  0.00    +0.041 C 
ATOM      7  C   UNL     1       0.756  -2.041   1.240  0.00  0.00    -0.032 C 
ATOM      8  C   UNL     1       0.748  -0.523   1.431  0.00  0.00    +0.009 C 
ATOM      9  C   UNL     1      -0.682  -2.564   1.246  0.00  0.00    +0.011 C 
ATOM     10  C   UNL     1       1.542  -2.695   2.378  0.00  0.00    +0.011 C 
ATOM     11  C   UNL     1       1.261  -2.063  -2.567  0.00  0.00    +0.247 C 
ATOM     12  O   UNL     1       2.385  -1.813  -2.946  0.00  0.00    -0.273 OA
ATOM     13  N   UNL     1       0.296  -2.715  -3.249  0.00  0.00    -0.215 N 
ATOM     14  C   UNL     1      -0.829  -2.819  -2.531  0.00  0.00    +0.310 C 
ATOM     15  O   UNL     1      -1.838  -3.366  -2.931  0.00  0.00    -0.252 OA
ATOM     16  N   UNL     1      -0.717  -2.252  -1.315  0.00  0.00    -0.285 N 
ATOM     17  H   UNL     1      -1.402  -2.208  -0.629  0.00  0.00    +0.151 HD
ENDBRANCH   1  13
BRANCH   1  18
ATOM     18  C   UNL     1       0.970  -4.657  -4.537  0.00  0.00    +0.232 C 
ATOM     19  O   UNL     1       1.179  -5.175  -3.461  0.00  0.00    -0.274 OA
ATOM     20  N   UNL     1       1.197  -5.348  -5.673  0.00  0.00    -0.303 N 
ATOM     21  H   UNL     1       1.030  -4.933  -6.534  0.00  0.00    +0.150 HD
BRANCH  20  22
ATOM     22  C   UNL     1       1.694  -6.724  -5.606  0.00  0.00    +0.134 C 
BRANCH  22  23
ATOM     23  C   UNL     1       1.297  -7.463  -6.858  0.00  0.00    -0.023 A 
ATOM     24  C   UNL     1       1.359  -6.828  -8.084  0.00  0.00    +0.006 A 
ATOM     25  C   UNL     1       0.995  -7.506  -9.233  0.00  0.00    +0.000 A 
ATOM     26  C   UNL     1       0.569  -8.819  -9.155  0.00  0.00    +0.000 A 
ATOM     27  C   UNL     1       0.507  -9.454  -7.928  0.00  0.00    +0.000 A 
ATOM     28  C   UNL     1       0.876  -8.777  -6.780  0.00  0.00    +0.006 A 
ENDBRANCH  22  23
BRANCH  22  29
ATOM     29  C   UNL     1       3.196  -6.710  -5.486  0.00  0.00    -0.023 A 
ATOM     30  C   UNL     1       3.939  -5.797  -6.213  0.00  0.00    +0.006 A 
ATOM     31  C   UNL     1       5.317  -5.784  -6.103  0.00  0.00    +0.000 A 
ATOM     32  C   UNL     1       5.952  -6.683  -5.267  0.00  0.00    +0.000 A 
ATOM     33  C   UNL     1       5.210  -7.595  -4.540  0.00  0.00    +0.000 A 
ATOM     34  C   UNL     1       3.832  -7.605  -4.646  0.00  0.00    +0.006 A 
ENDBRANCH  22  29
ENDBRANCH  20  22
ENDBRANCH   1  18
TORSDOF 5
