REMARK  Name = ZINC02245707
REMARK  6 active torsions:
REMARK  status: ('A' for Active; 'I' for Inactive)
REMARK    1  A    between atoms: C_1  and  O_2
REMARK    2  A    between atoms: O_2  and  C_3
REMARK    3  A    between atoms: C_6  and  C_9
REMARK    4  A    between atoms: C_20  and  C_22
REMARK    5  A    between atoms: C_34  and  S_36
REMARK    6  A    between atoms: S_36  and  C_37
REMARK                            x       y       z     vdW  Elec       q    Type
REMARK                         _______ _______ _______ _____ _____    ______ ____
ROOT
ATOM      1  C   UNL     1      -4.985  -2.369   0.113  0.00  0.00    +0.159 C 
ATOM      2  C   UNL     1      -5.351  -2.783  -1.295  0.00  0.00    +0.025 C 
ATOM      3  C   UNL     1      -5.511  -4.098  -1.548  0.00  0.00    +0.058 C 
ATOM      4  C   UNL     1      -5.880  -4.489  -2.933  0.00  0.00    +0.042 A 
ATOM      5  C   UNL     1      -5.756  -5.799  -3.374  0.00  0.00    +0.033 A 
ATOM      6  C   UNL     1      -6.109  -6.119  -4.672  0.00  0.00    +0.042 A 
ATOM      7  C   UNL     1      -6.583  -5.137  -5.527  0.00  0.00    +0.023 A 
ATOM      8  C   UNL     1      -6.709  -3.830  -5.094  0.00  0.00    +0.048 A 
ATOM      9  C   UNL     1      -6.361  -3.497  -3.797  0.00  0.00    +0.131 A 
ATOM     10  O   UNL     1      -6.482  -2.223  -3.344  0.00  0.00    -0.479 OA
ATOM     11  C   UNL     1      -5.524  -1.767  -2.386  0.00  0.00    +0.237 C 
ATOM     12 CL   UNL     1      -5.957  -7.755  -5.232  0.00  0.00    -0.084 Cl
ATOM     13  N   UNL     1      -5.344  -5.032  -0.581  0.00  0.00    -0.326 N 
ATOM     14  C   UNL     1      -5.026  -4.760   0.667  0.00  0.00    +0.216 C 
ATOM     15  N   UNL     1      -4.831  -3.461   1.083  0.00  0.00    -0.209 N 
ATOM     16  N   UNL     1      -4.510  -3.516   2.441  0.00  0.00    -0.239 N 
ATOM     17  C   UNL     1      -4.519  -4.842   2.785  0.00  0.00    +0.174 C 
ATOM     18  N   UNL     1      -4.827  -5.556   1.733  0.00  0.00    -0.192 NA
ATOM     19  H   UNL     1      -5.467  -5.963  -0.824  0.00  0.00    +0.169 HD
ATOM     20  H   UNL     1      -4.318  -2.765   3.024  0.00  0.00    +0.172 HD
ENDROOT
BRANCH  11  21
ATOM     21  C   UNL     1      -4.201  -1.542  -3.072  0.00  0.00    +0.032 A 
ATOM     22  C   UNL     1      -3.668  -2.525  -3.885  0.00  0.00    +0.010 A 
ATOM     23  C   UNL     1      -2.455  -2.319  -4.514  0.00  0.00    +0.001 A 
ATOM     24  C   UNL     1      -1.773  -1.130  -4.331  0.00  0.00    +0.003 A 
ATOM     25  C   UNL     1      -2.304  -0.146  -3.519  0.00  0.00    +0.039 A 
ATOM     26  C   UNL     1      -3.522  -0.349  -2.893  0.00  0.00    +0.130 A 
ATOM     27  F   UNL     1      -4.045   0.614  -2.102  0.00  0.00    -0.205 F 
ENDBRANCH  11  21
BRANCH   1  31
ATOM     28  C   UNL     1      -1.305  -0.202  -0.049  0.00  0.00    +0.120 A 
ATOM     29  C   UNL     1      -2.492   0.464   0.220  0.00  0.00    +0.046 A 
ATOM     30  C   UNL     1      -3.680  -0.239   0.272  0.00  0.00    +0.009 A 
ATOM     31  C   UNL     1      -3.687  -1.605   0.056  0.00  0.00    -0.021 A 
ATOM     32  C   UNL     1      -2.505  -2.270  -0.212  0.00  0.00    +0.009 A 
ATOM     33  C   UNL     1      -1.315  -1.571  -0.271  0.00  0.00    +0.046 A 
BRANCH  28  35
ATOM     34  C   UNL     1      -0.200   1.895   0.138  0.00  0.00    +0.277 C 
ATOM     35  O   UNL     1      -0.135   0.487  -0.101  0.00  0.00    -0.495 OA
ENDBRANCH  28  35
ENDBRANCH   1  31
BRANCH  17  36
ATOM     36  S   UNL     1      -4.177  -5.484   4.390  0.00  0.00    -0.092 S 
ATOM     37  C   UNL     1      -4.350  -7.279   4.191  0.00  0.00    +0.093 C 
ENDBRANCH  17  36
TORSDOF 4
