REMARK  Name = ZINC27267343
REMARK  10 active torsions:
REMARK  status: ('A' for Active; 'I' for Inactive)
REMARK    1  A    between atoms: C_1  and  C_2
REMARK    2  A    between atoms: C_7  and  N_12
REMARK    3  A    between atoms: C_9  and  C_11
REMARK    4  A    between atoms: N_12  and  C_13
REMARK    5  A    between atoms: C_13  and  N_15
REMARK    6  A    between atoms: N_15  and  N_16
REMARK    7  A    between atoms: C_17  and  C_19
REMARK    8  A    between atoms: C_20  and  C_21
REMARK    9  A    between atoms: C_24  and  N_27
REMARK   10  A    between atoms: C_28  and  C_30
REMARK                            x       y       z     vdW  Elec       q    Type
REMARK                         _______ _______ _______ _____ _____    ______ ____
ROOT
ATOM      1  N   UNL     1       1.333  10.539   0.505  0.00  0.00    -0.232 N 
ATOM      2  C   UNL     1       0.152   9.890   0.515  0.00  0.00    +0.253 C 
ATOM      3  O   UNL     1      -0.886  10.518   0.610  0.00  0.00    -0.269 OA
ATOM      4  H   UNL     1       2.272   9.972   0.420  0.00  0.00    +0.173 HD
ENDROOT
BRANCH   1   5
ATOM      5  N   UNL     1       1.366  11.937   0.605  0.00  0.00    -0.246 N 
ATOM      6  H   UNL     1       0.427  12.504   0.690  0.00  0.00    +0.172 HD
BRANCH   5   7
ATOM      7  C   UNL     1       2.547  12.586   0.595  0.00  0.00    +0.147 C 
ATOM      8  S   UNL     1       2.586  14.293   0.716  0.00  0.00    -0.017 S 
BRANCH   7   9
ATOM      9  N   UNL     1       3.697  11.891   0.490  0.00  0.00    -0.322 N 
ATOM     10  H   UNL     1       3.671  10.794   0.412  0.00  0.00    +0.148 HD
BRANCH   9  16
ATOM     11  C   UNL     1       7.344  13.611   1.882  0.00  0.00    +0.008 C 
ATOM     12  C   UNL     1       7.424  12.393   0.960  0.00  0.00    -0.009 C 
ATOM     13  C   UNL     1       7.742  12.852  -0.465  0.00  0.00    +0.003 C 
ATOM     14  C   UNL     1       6.640  13.792  -0.956  0.00  0.00    +0.002 C 
ATOM     15  C   UNL     1       5.299  13.055  -0.945  0.00  0.00    +0.022 C 
ATOM     16  C   UNL     1       4.981  12.596   0.479  0.00  0.00    +0.075 C 
ATOM     17  C   UNL     1       6.083  11.656   0.971  0.00  0.00    +0.009 C 
ATOM     18  C   UNL     1       5.765  11.197   2.395  0.00  0.00    +0.009 C 
ENDBRANCH   9  16
ENDBRANCH   7   9
ENDBRANCH   5   7
ENDBRANCH   1   5
BRANCH   2  19
ATOM     19  C   UNL     1       0.118   8.432   0.411  0.00  0.00    +0.069 C 
ATOM     20  C   UNL     1      -1.065   7.782   0.421  0.00  0.00    +0.013 C 
BRANCH  20  21
ATOM     21  C   UNL     1      -1.098   6.316   0.317  0.00  0.00    -0.025 A 
ATOM     22  C   UNL     1      -2.324   5.639   0.327  0.00  0.00    +0.010 A 
ATOM     23  C   UNL     1      -2.351   4.267   0.229  0.00  0.00    +0.024 A 
ATOM     24  C   UNL     1      -1.162   3.552   0.119  0.00  0.00    +0.033 A 
ATOM     25  C   UNL     1       0.059   4.219   0.115  0.00  0.00    +0.024 A 
ATOM     26  C   UNL     1       0.095   5.592   0.207  0.00  0.00    +0.010 A 
BRANCH  24  27
ATOM     27  N   UNL     1      -1.195   2.161   0.019  0.00  0.00    -0.286 N 
ATOM     28  C   UNL     1      -0.268   1.516  -0.716  0.00  0.00    +0.214 C 
ATOM     29  O   UNL     1       0.534   2.149  -1.371  0.00  0.00    -0.276 OA
ATOM     30  C   UNL     1      -0.231   0.010  -0.731  0.00  0.00    +0.109 C 
ATOM     31  H   UNL     1      -1.977   1.590   0.541  0.00  0.00    +0.155 HD
ENDBRANCH  24  27
ENDBRANCH  20  21
ENDBRANCH   2  19
TORSDOF 7
