REMARK  Name = ZINC04795079
REMARK  8 active torsions:
REMARK  status: ('A' for Active; 'I' for Inactive)
REMARK    1  A    between atoms: C_1  and  C_2
REMARK    2  A    between atoms: C_2  and  C_24
REMARK    3  A    between atoms: C_3  and  N_18
REMARK    4  A    between atoms: N_5  and  N_9
REMARK    5  A    between atoms: C_10  and  C_11
REMARK    6  A    between atoms: C_16  and  O_17
REMARK    7  A    between atoms: N_18  and  O_23
REMARK    8  A    between atoms: N_21  and  C_22
REMARK                            x       y       z     vdW  Elec       q    Type
REMARK                         _______ _______ _______ _____ _____    ______ ____
ROOT
ATOM      1  C   UNL     1      -0.141   1.181  -0.971  0.00  0.00    +0.026 C 
ATOM      2  C   UNL     1       0.059  -0.245  -0.456  0.00  0.00    +0.056 C 
ATOM      3  C   UNL     1      -1.227  -0.794   0.215  0.00  0.00    +0.232 C 
ATOM      4  N   UNL     1      -0.912  -1.607   1.375  0.00  0.00    -0.187 N 
ATOM      5  C   UNL     1       0.284  -1.480   1.982  0.00  0.00    +0.132 C 
ATOM      6  S   UNL     1       0.828  -2.292   3.388  0.00  0.00    -0.026 S 
ATOM      7  S   UNL     1       1.181  -0.285   1.006  0.00  0.00    -0.091 S 
ATOM      8  C   UNL     1       0.554  -1.173  -1.568  0.00  0.00    +0.026 C 
ENDROOT
BRANCH   3   9
ATOM      9  N   UNL     1      -2.067   0.331   0.633  0.00  0.00    -0.144 N 
ATOM     10  C   UNL     1      -3.390   0.316   0.377  0.00  0.00    +0.327 C 
ATOM     11  O   UNL     1      -3.902  -0.669  -0.119  0.00  0.00    -0.250 OA
ATOM     12  N   UNL     1      -4.145   1.393   0.669  0.00  0.00    -0.301 N 
ATOM     13  C   UNL     1      -5.598   1.338   0.495  0.00  0.00    +0.130 C 
ATOM     14  H   UNL     1      -3.726   2.205   0.995  0.00  0.00    +0.150 HD
BRANCH   9  15
ATOM     15  O   UNL     1      -1.489   1.433   1.308  0.00  0.00    -0.289 OA
ATOM     16  H   UNL     1      -2.131   2.086   1.618  0.00  0.00    +0.242 HD
ENDBRANCH   9  15
ENDBRANCH   3   9
BRANCH   4  17
ATOM     17  N   UNL     1      -1.851  -2.525   1.864  0.00  0.00    -0.184 NA
ATOM     18  C   UNL     1      -2.301  -3.467   1.092  0.00  0.00    +0.142 C 
BRANCH  18  19
ATOM     19  C   UNL     1      -3.205  -4.496   1.636  0.00  0.00    +0.036 A 
ATOM     20  C   UNL     1      -3.686  -5.515   0.810  0.00  0.00    +0.013 A 
ATOM     21  C   UNL     1      -4.532  -6.475   1.325  0.00  0.00    +0.001 A 
ATOM     22  C   UNL     1      -4.907  -6.433   2.657  0.00  0.00    +0.004 A 
ATOM     23  C   UNL     1      -4.438  -5.430   3.484  0.00  0.00    +0.046 A 
ATOM     24  C   UNL     1      -3.583  -4.461   2.985  0.00  0.00    +0.125 A 
BRANCH  24  25
ATOM     25  O   UNL     1      -3.117  -3.478   3.798  0.00  0.00    -0.506 OA
ATOM     26  H   UNL     1      -3.678  -2.691   3.825  0.00  0.00    +0.292 HD
ENDBRANCH  24  25
ENDBRANCH  18  19
ENDBRANCH   4  17
TORSDOF 5
