REMARK  Name = ZINC23483045
REMARK  11 active torsions:
REMARK  status: ('A' for Active; 'I' for Inactive)
REMARK    1  A    between atoms: C_1  and  C_2
REMARK    2  A    between atoms: C_2  and  C_4
REMARK    3  A    between atoms: C_2  and  N_33
REMARK    4  A    between atoms: C_7  and  S_16
REMARK    5  A    between atoms: N_8  and  C_9
REMARK    6  A    between atoms: S_16  and  C_17
REMARK    7  A    between atoms: C_17  and  C_18
REMARK    8  A    between atoms: N_20  and  C_21
REMARK    9  A    between atoms: N_20  and  C_27
REMARK   10  A    between atoms: N_33  and  C_34
REMARK   11  A    between atoms: N_33  and  C_35
REMARK                            x       y       z     vdW  Elec       q    Type
REMARK                         _______ _______ _______ _____ _____    ______ ____
ROOT
ATOM      1  C   UNL     1      -6.012   2.736   0.949  0.00  0.00    +0.125 A 
ATOM      2  N   UNL     1      -5.149   3.692   0.748  0.00  0.00    -0.135 NA
ATOM      3  N   UNL     1      -3.971   3.199   0.601  0.00  0.00    -0.122 NA
ATOM      4  C   UNL     1      -4.017   1.891   0.702  0.00  0.00    +0.197 A 
ATOM      5  N   UNL     1      -5.324   1.553   0.922  0.00  0.00    -0.275 N 
ENDROOT
BRANCH   5   6
ATOM      6  C   UNL     1      -5.849   0.262   1.088  0.00  0.00    +0.050 A 
ATOM      7  C   UNL     1      -6.741  -0.251   0.155  0.00  0.00    +0.029 A 
ATOM      8  C   UNL     1      -7.252  -1.523   0.317  0.00  0.00    +0.040 A 
ATOM      9  C   UNL     1      -6.886  -2.283   1.416  0.00  0.00    +0.124 A 
ATOM     10  C   UNL     1      -6.001  -1.771   2.350  0.00  0.00    +0.040 A 
ATOM     11  C   UNL     1      -5.483  -0.501   2.188  0.00  0.00    +0.029 A 
ATOM     12  F   UNL     1      -7.392  -3.525   1.576  0.00  0.00    -0.205 F 
ENDBRANCH   5   6
BRANCH   1  14
ATOM     13  C   UNL     1      -7.747   3.427   2.581  0.00  0.00    -0.005 C 
ATOM     14  C   UNL     1      -7.494   2.903   1.165  0.00  0.00    -0.003 C 
BRANCH  14  15
ATOM     15  N   UNL     1      -8.027   3.860   0.187  0.00  0.00    +0.382 N 
ATOM     16  C   UNL     1      -7.720   3.436  -1.186  0.00  0.00    -0.096 C 
ATOM     17  C   UNL     1      -9.473   4.048   0.368  0.00  0.00    -0.096 C 
ATOM     18  H   UNL     1      -7.536   4.829   0.359  0.00  0.00    -0.082 HD
ENDBRANCH  14  15
ENDBRANCH   1  14
BRANCH   4  19
ATOM     19  S   UNL     1      -2.655   0.781   0.570  0.00  0.00    -0.076 S 
BRANCH  19  20
ATOM     20  C   UNL     1      -1.314   1.961   0.279  0.00  0.00    +0.173 C 
BRANCH  20  21
ATOM     21  C   UNL     1      -0.013   1.217   0.131  0.00  0.00    +0.226 C 
ATOM     22  O   UNL     1      -0.005   0.004   0.121  0.00  0.00    -0.275 OA
ATOM     23  N   UNL     1       1.143   1.898   0.002  0.00  0.00    -0.295 N 
BRANCH  23  24
ATOM     24  C   UNL     1       1.124   3.360  -0.099  0.00  0.00    +0.076 C 
ATOM     25  C   UNL     1       1.773   3.788  -1.417  0.00  0.00    +0.022 C 
ATOM     26  C   UNL     1       1.753   5.314  -1.523  0.00  0.00    +0.002 C 
ATOM     27  C   UNL     1       2.531   5.917  -0.351  0.00  0.00    +0.000 C 
ATOM     28  C   UNL     1       1.882   5.489   0.966  0.00  0.00    +0.002 C 
ATOM     29  C   UNL     1       1.902   3.962   1.072  0.00  0.00    +0.022 C 
ENDBRANCH  23  24
BRANCH  23  30
ATOM     30  C   UNL     1       2.418   1.178  -0.036  0.00  0.00    +0.076 C 
ATOM     31  C   UNL     1       2.424   0.214  -1.224  0.00  0.00    +0.022 C 
ATOM     32  C   UNL     1       3.756  -0.539  -1.263  0.00  0.00    +0.002 C 
ATOM     33  C   UNL     1       3.934  -1.328   0.035  0.00  0.00    +0.000 C 
ATOM     34  C   UNL     1       3.928  -0.364   1.223  0.00  0.00    +0.002 C 
ATOM     35  C   UNL     1       2.597   0.389   1.263  0.00  0.00    +0.022 C 
ENDBRANCH  23  30
ENDBRANCH  20  21
ENDBRANCH  19  20
ENDBRANCH   4  19
TORSDOF 8
