REMARK  Name = ZINC36530110
REMARK  13 active torsions:
REMARK  status: ('A' for Active; 'I' for Inactive)
REMARK    1  A    between atoms: C_1  and  C_2
REMARK    2  A    between atoms: C_2  and  C_3
REMARK    3  A    between atoms: C_2  and  C_4
REMARK    4  A    between atoms: C_2  and  N_5
REMARK    5  A    between atoms: C_6  and  C_8
REMARK    6  A    between atoms: C_8  and  C_10
REMARK    7  A    between atoms: C_8  and  N_19
REMARK    8  A    between atoms: C_11  and  O_18
REMARK    9  A    between atoms: C_13  and  O_17
REMARK   10  A    between atoms: C_15  and  O_16
REMARK   11  A    between atoms: N_19  and  C_20
REMARK   12  A    between atoms: C_21  and  C_23
REMARK   13  A    between atoms: C_25  and  N_30
REMARK                            x       y       z     vdW  Elec       q    Type
REMARK                         _______ _______ _______ _____ _____    ______ ____
ROOT
ATOM      1  C   UNL     1       2.349  -0.646  -3.110  0.00  0.00    +0.199 C 
ENDROOT
BRANCH   1   2
ATOM      2  C   UNL     1       1.507   0.186  -4.043  0.00  0.00    +0.065 A 
ATOM      3  C   UNL     1       0.362   0.811  -3.572  0.00  0.00    +0.129 A 
ATOM      4  C   UNL     1      -0.413   1.577  -4.430  0.00  0.00    +0.091 A 
ATOM      5  C   UNL     1      -0.042   1.718  -5.759  0.00  0.00    +0.124 A 
ATOM      6  C   UNL     1       1.103   1.093  -6.230  0.00  0.00    +0.091 A 
ATOM      7  C   UNL     1       1.880   0.331  -5.370  0.00  0.00    +0.129 A 
BRANCH   7   8
ATOM      8  O   UNL     1       3.005  -0.277  -5.830  0.00  0.00    -0.506 OA
ATOM      9  H   UNL     1       2.857  -1.169  -6.175  0.00  0.00    +0.292 HD
ENDBRANCH   7   8
BRANCH   5  10
ATOM     10  O   UNL     1      -0.802   2.467  -6.601  0.00  0.00    -0.507 OA
ATOM     11  H   UNL     1      -0.547   3.399  -6.636  0.00  0.00    +0.292 HD
ENDBRANCH   5  10
BRANCH   3  12
ATOM     12  O   UNL     1      -0.001   0.674  -2.270  0.00  0.00    -0.506 OA
ATOM     13  H   UNL     1       0.287   1.401  -1.702  0.00  0.00    +0.292 HD
ENDBRANCH   3  12
ENDBRANCH   1   2
BRANCH   1  15
ATOM     14  N   UNL     1       0.916  -1.203  -1.172  0.00  0.00    -0.309 N 
ATOM     15  C   UNL     1       1.890  -0.429  -1.691  0.00  0.00    +0.239 C 
ATOM     16  O   UNL     1       2.397   0.442  -1.016  0.00  0.00    -0.273 OA
ATOM     17  H   UNL     1       0.532  -1.919  -1.701  0.00  0.00    +0.149 HD
BRANCH  14  19
ATOM     18  C   UNL     1       0.019   0.502   0.334  0.00  0.00    +0.031 C 
ATOM     19  C   UNL     1       0.438  -0.962   0.192  0.00  0.00    +0.026 C 
ATOM     20  C   UNL     1       1.558  -1.272   1.187  0.00  0.00    +0.031 C 
ATOM     21  C   UNL     1      -0.763  -1.866   0.478  0.00  0.00    +0.031 C 
ENDBRANCH  14  19
ENDBRANCH   1  15
BRANCH   1  22
ATOM     22  N   UNL     1       3.753  -0.249  -3.235  0.00  0.00    -0.285 N 
ATOM     23  C   UNL     1       4.126   1.165  -3.143  0.00  0.00    +0.133 C 
ATOM     24  C   UNL     1       4.703  -1.184  -3.434  0.00  0.00    +0.251 C 
ATOM     25  O   UNL     1       4.386  -2.347  -3.596  0.00  0.00    -0.270 OA
BRANCH  24  26
ATOM     26  C   UNL     1       6.127  -0.798  -3.456  0.00  0.00    +0.086 A 
ATOM     27  C   UNL     1       6.549   0.286  -4.230  0.00  0.00    +0.049 A 
ATOM     28  C   UNL     1       7.880   0.642  -4.246  0.00  0.00    +0.127 A 
ATOM     29  C   UNL     1       8.803  -0.070  -3.497  0.00  0.00    +0.036 A 
ATOM     30  C   UNL     1       8.399  -1.143  -2.728  0.00  0.00    +0.054 A 
ATOM     31  C   UNL     1       7.062  -1.512  -2.695  0.00  0.00    +0.191 A 
ATOM     32  O   UNL     1       6.664  -2.562  -1.935  0.00  0.00    -0.287 OA
BRANCH  28  33
ATOM     33  N   UNL     1       8.325   1.790  -5.067  0.00  0.00    +0.056 N 
ATOM     34  O   UNL     1       7.522   2.413  -5.722  0.00  0.00    -0.126 OA
ATOM     35  O   UNL     1       9.493   2.105  -5.083  0.00  0.00    -0.126 OA
ENDBRANCH  28  33
ENDBRANCH  24  26
ENDBRANCH   1  22
TORSDOF 9
