REMARK  Name = ZINC40427304
REMARK  10 active torsions:
REMARK  status: ('A' for Active; 'I' for Inactive)
REMARK    1  A    between atoms: C_1  and  C_2
REMARK    2  A    between atoms: C_2  and  C_3
REMARK    3  A    between atoms: C_3  and  C_5
REMARK    4  A    between atoms: C_3  and  C_11
REMARK    5  A    between atoms: C_18  and  C_20
REMARK    6  A    between atoms: C_21  and  C_23
REMARK    7  A    between atoms: C_23  and  C_24
REMARK    8  A    between atoms: C_24  and  N_25
REMARK    9  A    between atoms: C_33  and  C_35
REMARK   10  A    between atoms: C_38  and  C_41
REMARK                            x       y       z     vdW  Elec       q    Type
REMARK                         _______ _______ _______ _____ _____    ______ ____
ROOT
ATOM      1  C   UNL     1       2.022   0.011  -1.292  0.00  0.00    +0.223 C 
ATOM      2  O   UNL     1       2.922  -0.774  -1.504  0.00  0.00    -0.275 OA
ATOM      3  N   UNL     1       2.295   1.319  -1.117  0.00  0.00    -0.295 N 
ATOM      4  C   UNL     1       1.207   2.296  -0.968  0.00  0.00    +0.127 C 
ATOM      5  C   UNL     1       1.386   3.393  -2.025  0.00  0.00    +0.127 C 
ATOM      6  N   UNL     1       2.776   3.868  -1.979  0.00  0.00    -0.298 N 
ATOM      7  C   UNL     1       3.863   2.890  -2.128  0.00  0.00    +0.130 C 
ATOM      8  C   UNL     1       3.685   1.792  -1.066  0.00  0.00    +0.090 C 
ATOM      9  C   UNL     1       3.982   2.363   0.322  0.00  0.00    +0.029 C 
ATOM     10  C   UNL     1       3.049   5.176  -1.804  0.00  0.00    +0.214 C 
ATOM     11  O   UNL     1       4.200   5.556  -1.768  0.00  0.00    -0.276 OA
ENDROOT
BRANCH   1  12
ATOM     12  C   UNL     1       0.597  -0.477  -1.226  0.00  0.00    +0.105 C 
BRANCH  12  13
ATOM     13  C   UNL     1       0.017  -0.526  -2.616  0.00  0.00    -0.036 A 
ATOM     14  C   UNL     1       0.597  -1.331  -3.579  0.00  0.00    +0.004 A 
ATOM     15  C   UNL     1       0.065  -1.375  -4.854  0.00  0.00    +0.000 A 
ATOM     16  C   UNL     1      -1.047  -0.614  -5.166  0.00  0.00    +0.000 A 
ATOM     17  C   UNL     1      -1.627   0.190  -4.203  0.00  0.00    +0.000 A 
ATOM     18  C   UNL     1      -1.097   0.231  -2.926  0.00  0.00    +0.004 A 
ENDBRANCH  12  13
BRANCH  12  20
ATOM     19  C   UNL     1       1.022  -1.806   0.847  0.00  0.00    +0.005 C 
ATOM     20  C   UNL     1       0.567  -1.879  -0.612  0.00  0.00    +0.014 C 
ENDBRANCH  12  20
ENDBRANCH   1  12
BRANCH  10  21
ATOM     21  C   UNL     1       1.923   6.167  -1.653  0.00  0.00    +0.077 C 
BRANCH  21  22
ATOM     22  C   UNL     1       2.502   7.571  -1.468  0.00  0.00    -0.068 C 
BRANCH  22  23
ATOM     23  N   UNL     1       1.405   8.537  -1.321  0.00  0.00    +0.388 N 
ATOM     24  C   UNL     1       0.651   8.230  -0.097  0.00  0.00    -0.072 C 
ATOM     25  C   UNL     1      -0.671   9.015  -0.117  0.00  0.00    +0.024 C 
ATOM     26  C   UNL     1      -0.352  10.426  -0.490  0.00  0.00    -0.010 A 
ATOM     27  C   UNL     1       0.824  10.879  -1.009  0.00  0.00    -0.047 A 
ATOM     28  C   UNL     1       0.900  12.244  -1.277  0.00  0.00    +0.010 A 
ATOM     29  C   UNL     1      -0.162  13.043  -1.024  0.00  0.00    +0.045 A 
ATOM     30  S   UNL     1      -1.355  11.880  -0.377  0.00  0.00    -0.101 S 
ATOM     31  C   UNL     1       1.960   9.894  -1.265  0.00  0.00    -0.006 C 
ATOM     32  H   UNL     1       0.788   8.463  -2.116  0.00  0.00    -0.080 HD
BRANCH  31  33
ATOM     33  C   UNL     1       2.628  10.221  -2.575  0.00  0.00    -0.057 A 
ATOM     34  C   UNL     1       2.043   9.830  -3.765  0.00  0.00    +0.002 A 
ATOM     35  C   UNL     1       2.656  10.130  -4.968  0.00  0.00    +0.003 A 
ATOM     36  C   UNL     1       3.852  10.822  -4.980  0.00  0.00    -0.050 A 
ATOM     37  C   UNL     1       4.436  11.214  -3.791  0.00  0.00    +0.003 A 
ATOM     38  C   UNL     1       3.822  10.918  -2.588  0.00  0.00    +0.002 A 
ATOM     39  C   UNL     1       4.520  11.149  -6.291  0.00  0.00    +0.044 C 
ENDBRANCH  31  33
ENDBRANCH  22  23
ENDBRANCH  21  22
ENDBRANCH  10  21
TORSDOF 7
