REMARK  Name = ZINC34849347
REMARK  10 active torsions:
REMARK  status: ('A' for Active; 'I' for Inactive)
REMARK    1  A    between atoms: C_1  and  C_2
REMARK    2  A    between atoms: C_2  and  N_3
REMARK    3  A    between atoms: C_7  and  C_9
REMARK    4  A    between atoms: C_9  and  N_10
REMARK    5  A    between atoms: C_11  and  C_35
REMARK    6  A    between atoms: C_19  and  C_25
REMARK    7  A    between atoms: N_27  and  C_28
REMARK    8  A    between atoms: C_32  and  C_34
REMARK    9  A    between atoms: N_37  and  C_38
REMARK   10  A    between atoms: C_44  and  C_46
REMARK                            x       y       z     vdW  Elec       q    Type
REMARK                         _______ _______ _______ _____ _____    ______ ____
ROOT
ATOM      1  N   UNL     1      -1.692  -2.241  -2.987  0.00  0.00    -0.288 N 
ATOM      2  C   UNL     1      -3.023  -2.657  -2.445  0.00  0.00    +0.198 C 
ATOM      3  C   UNL     1      -3.960  -1.787  -3.224  0.00  0.00    +0.127 C 
ATOM      4  C   UNL     1      -4.074  -2.199  -4.680  0.00  0.00    +0.009 C 
ATOM      5  C   UNL     1      -4.934  -1.352  -5.227  0.00  0.00    +0.004 C 
ATOM      6  C   UNL     1      -5.298  -0.375  -4.102  0.00  0.00    +0.155 C 
ATOM      7  O   UNL     1      -5.229  -1.264  -2.910  0.00  0.00    -0.358 OA
ATOM      8  C   UNL     1      -3.984   0.489  -3.973  0.00  0.00    +0.123 C 
ATOM      9  C   UNL     1      -3.114  -0.453  -3.142  0.00  0.00    +0.128 C 
ATOM     10  C   UNL     1      -1.777  -0.965  -3.491  0.00  0.00    +0.223 C 
ATOM     11  O   UNL     1      -0.916  -0.373  -4.107  0.00  0.00    -0.275 OA
ENDROOT
BRANCH   8  12
ATOM     12  C   UNL     1      -3.380   0.760  -5.327  0.00  0.00    +0.224 C 
ATOM     13  O   UNL     1      -2.266   0.356  -5.586  0.00  0.00    -0.275 OA
ATOM     14  N   UNL     1      -4.077   1.451  -6.250  0.00  0.00    -0.285 N 
ATOM     15  H   UNL     1      -4.996   1.707  -6.072  0.00  0.00    +0.155 HD
BRANCH  14  16
ATOM     16  C   UNL     1      -3.477   1.798  -7.465  0.00  0.00    +0.034 A 
ATOM     17  C   UNL     1      -4.239   1.861  -8.625  0.00  0.00    +0.023 A 
ATOM     18  C   UNL     1      -3.643   2.204  -9.823  0.00  0.00    +0.002 A 
ATOM     19  C   UNL     1      -2.290   2.485  -9.868  0.00  0.00    +0.003 A 
ATOM     20  C   UNL     1      -1.529   2.423  -8.716  0.00  0.00    -0.049 A 
ATOM     21  C   UNL     1      -2.120   2.087  -7.513  0.00  0.00    +0.026 A 
ATOM     22  C   UNL     1      -0.054   2.729  -8.770  0.00  0.00    +0.044 C 
ENDBRANCH  14  16
ENDBRANCH   8  12
BRANCH   2  23
ATOM     23  C   UNL     1      -3.285  -4.115  -2.722  0.00  0.00    +0.237 C 
ATOM     24  O   UNL     1      -2.652  -4.693  -3.581  0.00  0.00    -0.274 OA
ATOM     25  N   UNL     1      -4.223  -4.777  -2.016  0.00  0.00    -0.311 N 
ATOM     26  H   UNL     1      -4.729  -4.316  -1.329  0.00  0.00    +0.149 HD
BRANCH  25  27
ATOM     27  C   UNL     1      -4.478  -6.195  -2.285  0.00  0.00    +0.076 C 
ATOM     28  C   UNL     1      -5.469  -6.324  -3.444  0.00  0.00    +0.022 C 
ATOM     29  C   UNL     1      -6.782  -5.631  -3.071  0.00  0.00    +0.002 C 
ATOM     30  C   UNL     1      -7.369  -6.290  -1.821  0.00  0.00    +0.000 C 
ATOM     31  C   UNL     1      -6.378  -6.161  -0.663  0.00  0.00    +0.005 C 
ATOM     32  C   UNL     1      -5.065  -6.854  -1.036  0.00  0.00    +0.006 C 
ATOM     33  C   UNL     1      -4.074  -6.725   0.122  0.00  0.00    +0.009 C 
ENDBRANCH  25  27
ENDBRANCH   2  23
BRANCH   1  34
ATOM     34  C   UNL     1      -0.481  -3.065  -2.978  0.00  0.00    +0.093 C 
BRANCH  34  39
ATOM     35  N   UNL     1       0.569  -1.378  -1.528  0.00  0.00    +0.382 N 
ATOM     36  C   UNL     1       2.033  -1.177  -1.512  0.00  0.00    -0.078 C 
ATOM     37  C   UNL     1       2.614  -2.535  -1.046  0.00  0.00    -0.020 C 
ATOM     38  C   UNL     1       1.657  -3.540  -1.739  0.00  0.00    -0.016 C 
ATOM     39  C   UNL     1       0.294  -2.818  -1.682  0.00  0.00    -0.051 C 
ATOM     40  H   UNL     1       0.167  -0.871  -2.303  0.00  0.00    -0.081 HD
BRANCH  35  42
ATOM     41  C   UNL     1       0.168   0.621  -0.171  0.00  0.00    -0.017 C 
ATOM     42  C   UNL     1      -0.010  -0.896  -0.267  0.00  0.00    -0.082 C 
ENDBRANCH  35  42
ENDBRANCH  34  39
ENDBRANCH   1  34
TORSDOF 7
