REMARK  Name = ZINC35778919
REMARK  16 active torsions:
REMARK  status: ('A' for Active; 'I' for Inactive)
REMARK    1  A    between atoms: C_1  and  C_2
REMARK    2  A    between atoms: C_6  and  O_8
REMARK    3  A    between atoms: O_8  and  C_9
REMARK    4  A    between atoms: C_9  and  C_10
REMARK    5  A    between atoms: C_20  and  C_22
REMARK    6  A    between atoms: C_22  and  N_23
REMARK    7  A    between atoms: N_23  and  C_24
REMARK    8  A    between atoms: N_23  and  C_37
REMARK    9  A    between atoms: C_24  and  C_25
REMARK   10  A    between atoms: C_25  and  C_27
REMARK   11  A    between atoms: C_25  and  O_36
REMARK   12  A    between atoms: C_27  and  O_28
REMARK   13  A    between atoms: O_28  and  C_29
REMARK   14  A    between atoms: C_29  and  C_30
REMARK   15  A    between atoms: C_37  and  C_38
REMARK   16  A    between atoms: C_37  and  C_39
REMARK                            x       y       z     vdW  Elec       q    Type
REMARK                         _______ _______ _______ _____ _____    ______ ____
ROOT
ATOM      1  C   UNL     1      -0.184  -5.281   4.392  0.00  0.00    +0.144 C 
ATOM      2  C   UNL     1      -1.291  -4.691   5.263  0.00  0.00    -0.014 A 
ATOM      3  C   UNL     1      -2.600  -5.171   5.265  0.00  0.00    +0.013 A 
ATOM      4  C   UNL     1      -3.531  -4.596   6.060  0.00  0.00    +0.046 A 
ATOM      5  S   UNL     1      -2.584  -3.316   6.869  0.00  0.00    -0.101 S 
ATOM      6  C   UNL     1      -1.024  -3.644   6.091  0.00  0.00    -0.004 A 
ATOM      7  C   UNL     1       0.280  -2.944   6.294  0.00  0.00    +0.061 C 
ATOM      8  C   UNL     1       1.220  -3.306   5.133  0.00  0.00    +0.113 C 
ATOM      9  N   UNL     1       1.099  -4.749   4.872  0.00  0.00    -0.292 N 
ATOM     10  C   UNL     1       2.147  -5.571   5.073  0.00  0.00    +0.200 C 
ATOM     11  O   UNL     1       2.036  -6.759   4.856  0.00  0.00    -0.278 OA
ENDROOT
BRANCH   1  12
ATOM     12  C   UNL     1      -0.400  -4.873   2.933  0.00  0.00    +0.256 C 
BRANCH  12  13
ATOM     13  O   UNL     1      -0.510  -3.451   2.847  0.00  0.00    -0.490 OA
BRANCH  13  19
ATOM     14  C   UNL     1      -1.149   0.480   0.026  0.00  0.00    +0.044 C 
ATOM     15  C   UNL     1      -1.022  -1.012   0.197  0.00  0.00    -0.047 A 
ATOM     16  C   UNL     1      -1.106  -1.843  -0.905  0.00  0.00    +0.003 A 
ATOM     17  C   UNL     1      -0.990  -3.212  -0.751  0.00  0.00    +0.004 A 
ATOM     18  C   UNL     1      -0.791  -3.753   0.504  0.00  0.00    +0.045 A 
ATOM     19  C   UNL     1      -0.707  -2.921   1.611  0.00  0.00    +0.121 A 
ATOM     20  C   UNL     1      -0.817  -1.547   1.454  0.00  0.00    +0.049 A 
ENDBRANCH  13  19
ENDBRANCH  12  13
ENDBRANCH   1  12
BRANCH  10  21
ATOM     21  C   UNL     1       3.458  -5.014   5.566  0.00  0.00    +0.019 C 
BRANCH  21  22
ATOM     22  N   UNL     1       4.483  -6.065   5.524  0.00  0.00    +0.389 N 
ATOM     23  H   UNL     1       4.069  -6.949   5.781  0.00  0.00    -0.081 HD
BRANCH  22  24
ATOM     24  C   UNL     1       5.034  -6.159   4.165  0.00  0.00    -0.074 C 
ATOM     25  C   UNL     1       3.910  -6.484   3.180  0.00  0.00    -0.014 C 
ATOM     26  C   UNL     1       5.677  -4.824   3.783  0.00  0.00    -0.014 C 
ENDBRANCH  22  24
BRANCH  22  27
ATOM     27  C   UNL     1       5.560  -5.737   6.468  0.00  0.00    -0.044 C 
BRANCH  27  28
ATOM     28  C   UNL     1       6.550  -6.901   6.537  0.00  0.00    +0.124 C 
BRANCH  28  29
ATOM     29  O   UNL     1       5.873  -8.075   6.989  0.00  0.00    -0.391 OA
ATOM     30  H   UNL     1       5.475  -7.987   7.866  0.00  0.00    +0.210 HD
ENDBRANCH  28  29
BRANCH  28  31
ATOM     31  C   UNL     1       7.677  -6.554   7.513  0.00  0.00    +0.189 C 
BRANCH  31  32
ATOM     32  O   UNL     1       8.661  -7.590   7.491  0.00  0.00    -0.373 OA
BRANCH  32  33
ATOM     33  C   UNL     1       9.763  -7.364   8.371  0.00  0.00    +0.195 C 
BRANCH  33  34
ATOM     34  C   UNL     1      10.734  -8.512   8.267  0.00  0.00    -0.022 A 
ATOM     35  C   UNL     1      10.594  -9.612   9.092  0.00  0.00    +0.006 A 
ATOM     36  C   UNL     1      11.484 -10.665   8.996  0.00  0.00    +0.000 A 
ATOM     37  C   UNL     1      12.515 -10.618   8.076  0.00  0.00    +0.000 A 
ATOM     38  C   UNL     1      12.655  -9.518   7.251  0.00  0.00    +0.000 A 
ATOM     39  C   UNL     1      11.762  -8.466   7.344  0.00  0.00    +0.006 A 
ENDBRANCH  33  34
ENDBRANCH  32  33
ENDBRANCH  31  32
ENDBRANCH  28  31
ENDBRANCH  27  28
ENDBRANCH  22  27
ENDBRANCH  21  22
ENDBRANCH  10  21
TORSDOF 13
