REMARK  Name = ZINC64714591
REMARK  11 active torsions:
REMARK  status: ('A' for Active; 'I' for Inactive)
REMARK    1  A    between atoms: C_1  and  C_2
REMARK    2  A    between atoms: C_4  and  C_30
REMARK    3  A    between atoms: C_5  and  C_29
REMARK    4  A    between atoms: C_7  and  C_8
REMARK    5  A    between atoms: C_13  and  C_16
REMARK    6  A    between atoms: C_16  and  C_17
REMARK    7  A    between atoms: N_19  and  C_20
REMARK    8  A    between atoms: C_20  and  C_21
REMARK    9  A    between atoms: C_21  and  N_22
REMARK   10  A    between atoms: C_30  and  O_32
REMARK   11  A    between atoms: O_32  and  C_33
REMARK                            x       y       z     vdW  Elec       q    Type
REMARK                         _______ _______ _______ _____ _____    ______ ____
ROOT
ATOM      1  C   UNL     1       2.091  -0.203   2.397  0.00  0.00    +0.261 C 
ATOM      2  O   UNL     1       2.460  -0.453   1.266  0.00  0.00    -0.269 OA
ATOM      3  N   UNL     1       2.776  -0.686   3.451  0.00  0.00    -0.297 N 
ATOM      4  C   UNL     1       4.047  -1.398   3.256  0.00  0.00    +0.108 C 
ATOM      5  C   UNL     1       3.963  -2.758   3.955  0.00  0.00    +0.023 C 
ATOM      6  C   UNL     1       3.577  -2.551   5.422  0.00  0.00    +0.001 C 
ATOM      7  C   UNL     1       2.203  -1.882   5.500  0.00  0.00    +0.023 C 
ATOM      8  C   UNL     1       2.270  -0.506   4.819  0.00  0.00    +0.108 C 
ENDROOT
BRANCH   1  14
ATOM      9  C   UNL     1      -0.747  -0.039   0.839  0.00  0.00    +0.019 C 
ATOM     10  C   UNL     1      -0.073   1.132   1.555  0.00  0.00    +0.078 C 
ATOM     11  C   UNL     1      -1.085   1.924   2.363  0.00  0.00    +0.066 C 
ATOM     12  C   UNL     1      -0.666   1.817   3.647  0.00  0.00    +0.049 C 
ATOM     13  N   UNL     1       0.445   1.084   3.755  0.00  0.00    -0.250 NA
ATOM     14  C   UNL     1       0.890   0.631   2.615  0.00  0.00    +0.111 C 
ATOM     15  C   UNL     1      -1.372   2.451   4.817  0.00  0.00    +0.066 C 
BRANCH  11  16
ATOM     16  C   UNL     1      -2.259   2.646   1.864  0.00  0.00    +0.337 C 
ATOM     17  O   UNL     1      -2.983   3.239   2.639  0.00  0.00    -0.245 OA
BRANCH  16  18
ATOM     18  O   UNL     1      -2.535   2.652   0.544  0.00  0.00    -0.465 OA
ATOM     19  C   UNL     1      -3.695   3.376   0.127  0.00  0.00    +0.280 C 
ENDBRANCH  16  18
ENDBRANCH  11  16
ENDBRANCH   1  14
BRANCH   6  20
ATOM     20  C   UNL     1       3.526  -3.905   6.131  0.00  0.00    +0.099 C 
BRANCH  20  21
ATOM     21  C   UNL     1       3.267  -3.693   7.601  0.00  0.00    +0.213 C 
ATOM     22  O   UNL     1       3.137  -2.569   8.037  0.00  0.00    -0.276 OA
ATOM     23  N   UNL     1       3.181  -4.752   8.430  0.00  0.00    -0.317 N 
ATOM     24  H   UNL     1       3.285  -5.651   8.081  0.00  0.00    +0.149 HD
BRANCH  23  25
ATOM     25  C   UNL     1       2.930  -4.546   9.858  0.00  0.00    +0.085 C 
BRANCH  25  26
ATOM     26  C   UNL     1       2.878  -5.900  10.568  0.00  0.00    -0.060 C 
BRANCH  26  27
ATOM     27  N   UNL     1       2.757  -5.689  12.017  0.00  0.00    +0.381 N 
ATOM     28  C   UNL     1       2.954  -6.982  12.701  0.00  0.00    -0.079 C 
ATOM     29  C   UNL     1       3.429  -6.707  14.106  0.00  0.00    -0.019 C 
ATOM     30  C   UNL     1       2.259  -6.717  15.108  0.00  0.00    -0.002 C 
ATOM     31  C   UNL     1       1.009  -6.020  14.536  0.00  0.00    -0.002 C 
ATOM     32  C   UNL     1       1.349  -4.762  13.778  0.00  0.00    -0.019 C 
ATOM     33  C   UNL     1       1.518  -5.105  12.283  0.00  0.00    -0.079 C 
ATOM     34  H   UNL     1       3.484  -5.055  12.313  0.00  0.00    -0.082 HD
ENDBRANCH  26  27
ENDBRANCH  25  26
ENDBRANCH  23  25
ENDBRANCH  20  21
ENDBRANCH   6  20
TORSDOF 8
