REMARK  Name = ZINC39605528
REMARK  7 active torsions:
REMARK  status: ('A' for Active; 'I' for Inactive)
REMARK    1  A    between atoms: C_1  and  O_2
REMARK    2  A    between atoms: O_2  and  C_3
REMARK    3  A    between atoms: C_6  and  C_9
REMARK    4  A    between atoms: C_12  and  C_15
REMARK    5  A    between atoms: C_19  and  C_24
REMARK    6  A    between atoms: C_29  and  O_30
REMARK    7  A    between atoms: O_30  and  C_31
REMARK                            x       y       z     vdW  Elec       q    Type
REMARK                         _______ _______ _______ _____ _____    ______ ____
ROOT
ATOM      1  C   UNL     1       4.931  -5.296  -3.924  0.00  0.00    +0.202 C 
ATOM      2  N   UNL     1       4.531  -6.370  -2.977  0.00  0.00    -0.262 N 
ATOM      3  N   UNL     1       4.016  -7.490  -3.559  0.00  0.00    -0.220 N 
ATOM      4  C   UNL     1       3.216  -8.564  -3.180  0.00  0.00    +0.185 A 
ATOM      5  N   UNL     1       3.108  -9.364  -4.212  0.00  0.00    -0.127 NA
ATOM      6  N   UNL     1       3.757  -8.880  -5.213  0.00  0.00    -0.120 NA
ATOM      7  C   UNL     1       4.300  -7.751  -4.876  0.00  0.00    +0.211 A 
ATOM      8  S   UNL     1       5.266  -6.348  -5.404  0.00  0.00    -0.054 S 
ATOM      9  H   UNL     1       5.289  -6.603  -2.353  0.00  0.00    +0.168 HD
ENDROOT
BRANCH   4  10
ATOM     10  C   UNL     1       2.600  -8.767  -1.853  0.00  0.00    +0.064 A 
ATOM     11  C   UNL     1       2.794  -7.827  -0.839  0.00  0.00    +0.035 A 
ATOM     12  C   UNL     1       2.215  -8.022   0.399  0.00  0.00    +0.042 A 
ATOM     13  C   UNL     1       1.444  -9.147   0.639  0.00  0.00    +0.023 A 
ATOM     14  C   UNL     1       1.246 -10.084  -0.357  0.00  0.00    +0.048 A 
ATOM     15  C   UNL     1       1.814  -9.899  -1.607  0.00  0.00    +0.131 A 
ATOM     16 CL   UNL     1       2.457  -6.853   1.660  0.00  0.00    -0.084 Cl
BRANCH  15  17
ATOM     17  O   UNL     1       1.615 -10.817  -2.589  0.00  0.00    -0.494 OA
ATOM     18  C   UNL     1       0.802 -11.947  -2.266  0.00  0.00    +0.277 C 
ENDBRANCH  15  17
ENDBRANCH   4  10
BRANCH   1  21
ATOM     19  C   UNL     1       2.505  -2.503  -4.381  0.00  0.00    +0.153 C 
ATOM     20  C   UNL     1       3.884  -3.009  -3.996  0.00  0.00    +0.031 C 
ATOM     21  C   UNL     1       3.804  -4.329  -4.175  0.00  0.00    +0.091 C 
ATOM     22  N   UNL     1       2.574  -4.681  -4.612  0.00  0.00    -0.180 NA
ATOM     23  N   UNL     1       1.789  -3.735  -4.757  0.00  0.00    -0.297 N 
ATOM     24  H   UNL     1       0.870  -3.792  -5.061  0.00  0.00    +0.183 HD
BRANCH  19  28
ATOM     25  C   UNL     1       0.606  -0.607  -1.056  0.00  0.00    +0.120 A 
ATOM     26  C   UNL     1       1.173   0.161  -2.062  0.00  0.00    +0.046 A 
ATOM     27  C   UNL     1       1.786  -0.455  -3.136  0.00  0.00    +0.009 A 
ATOM     28  C   UNL     1       1.835  -1.835  -3.209  0.00  0.00    -0.020 A 
ATOM     29  C   UNL     1       1.270  -2.602  -2.207  0.00  0.00    +0.009 A 
ATOM     30  C   UNL     1       0.661  -1.992  -1.128  0.00  0.00    +0.046 A 
BRANCH  25  32
ATOM     31  C   UNL     1      -0.017   1.425   0.010  0.00  0.00    +0.277 C 
ATOM     32  O   UNL     1       0.002  -0.004   0.002  0.00  0.00    -0.495 OA
ENDBRANCH  25  32
ENDBRANCH  19  28
ENDBRANCH   1  21
TORSDOF 5
