REMARK  Name = ZINC41584698
REMARK  6 active torsions:
REMARK  status: ('A' for Active; 'I' for Inactive)
REMARK    1  A    between atoms: C_1  and  C_2
REMARK    2  A    between atoms: C_3  and  C_28
REMARK    3  A    between atoms: C_9  and  O_27
REMARK    4  A    between atoms: C_10  and  C_13
REMARK    5  A    between atoms: C_13  and  N_14
REMARK    6  A    between atoms: C_19  and  C_21
REMARK                            x       y       z     vdW  Elec       q    Type
REMARK                         _______ _______ _______ _____ _____    ______ ____
ROOT
ATOM      1  C   UNL     1      -0.018   1.503   0.010  0.00  0.00    +0.087 C 
ATOM      2  C   UNL     1       0.002  -0.004   0.002  0.00  0.00    +0.114 A 
ATOM      3  C   UNL     1      -1.182  -0.671   0.004  0.00  0.00    +0.067 A 
ATOM      4  C   UNL     1      -1.150  -2.146   0.013  0.00  0.00    +0.200 A 
ATOM      5  O   UNL     1      -2.144  -2.815  -0.209  0.00  0.00    -0.286 OA
ATOM      6  C   UNL     1       0.158  -2.762   0.307  0.00  0.00    +0.065 A 
ATOM      7  C   UNL     1       0.273  -4.121   0.597  0.00  0.00    +0.019 A 
ATOM      8  C   UNL     1       1.501  -4.653   0.870  0.00  0.00    +0.046 A 
ATOM      9  C   UNL     1       2.635  -3.843   0.862  0.00  0.00    +0.122 A 
ATOM     10  C   UNL     1       2.536  -2.493   0.573  0.00  0.00    +0.020 A 
ATOM     11  C   UNL     1       1.296  -1.936   0.289  0.00  0.00    +0.144 A 
ATOM     12  O   UNL     1       1.182  -0.627  -0.013  0.00  0.00    -0.459 OA
ENDROOT
BRANCH   3  13
ATOM     13  C   UNL     1      -2.470   0.063  -0.003  0.00  0.00    -0.011 A 
ATOM     14  C   UNL     1      -2.825   0.864   1.082  0.00  0.00    +0.010 A 
ATOM     15  C   UNL     1      -4.025   1.545   1.070  0.00  0.00    +0.016 A 
ATOM     16  C   UNL     1      -4.876   1.434  -0.016  0.00  0.00    +0.018 A 
ATOM     17  C   UNL     1      -4.529   0.640  -1.095  0.00  0.00    +0.016 A 
ATOM     18  C   UNL     1      -3.328  -0.040  -1.096  0.00  0.00    +0.010 A 
ATOM     19 BR   UNL     1      -6.519   2.370  -0.024  0.00  0.00    -0.050 Br
ENDBRANCH   3  13
BRANCH   9  20
ATOM     20  O   UNL     1       3.849  -4.383   1.139  0.00  0.00    -0.506 OA
ATOM     21  H   UNL     1       4.319  -4.715   0.362  0.00  0.00    +0.292 HD
ENDBRANCH   9  20
BRANCH  10  22
ATOM     22  C   UNL     1       3.771  -1.628   0.569  0.00  0.00    -0.035 C 
BRANCH  22  23
ATOM     23  N   UNL     1       4.358  -1.621  -0.778  0.00  0.00    +0.387 N 
ATOM     24  C   UNL     1       4.819  -2.973  -1.116  0.00  0.00    -0.078 C 
ATOM     25  C   UNL     1       5.358  -2.988  -2.548  0.00  0.00    -0.019 C 
ATOM     26  C   UNL     1       6.528  -2.006  -2.658  0.00  0.00    -0.003 C 
ATOM     27  C   UNL     1       6.054  -0.614  -2.231  0.00  0.00    -0.011 C 
ATOM     28  C   UNL     1       5.489  -0.686  -0.811  0.00  0.00    -0.036 C 
ATOM     29  H   UNL     1       3.661  -1.328  -1.446  0.00  0.00    -0.080 HD
BRANCH  28  30
ATOM     30  C   UNL     1       5.022   0.682  -0.387  0.00  0.00    -0.043 A 
ATOM     31  C   UNL     1       5.819   1.476   0.425  0.00  0.00    +0.005 A 
ATOM     32  C   UNL     1       5.348   2.728   0.790  0.00  0.00    +0.020 A 
ATOM     33  C   UNL     1       4.109   3.140   0.337  0.00  0.00    +0.111 A 
ATOM     34  N   UNL     1       3.378   2.358  -0.433  0.00  0.00    -0.263 NA
ATOM     35  C   UNL     1       3.797   1.164  -0.805  0.00  0.00    +0.112 A 
ENDBRANCH  28  30
ENDBRANCH  22  23
ENDBRANCH  10  22
TORSDOF 5
