REMARK  Name = ZINC36116626
REMARK  14 active torsions:
REMARK  status: ('A' for Active; 'I' for Inactive)
REMARK    1  A    between atoms: C_1  and  C_2
REMARK    2  A    between atoms: C_2  and  C_3
REMARK    3  A    between atoms: C_2  and  C_4
REMARK    4  A    between atoms: C_7  and  O_10
REMARK    5  A    between atoms: O_10  and  C_11
REMARK    6  A    between atoms: C_11  and  C_12
REMARK    7  A    between atoms: C_22  and  C_24
REMARK    8  A    between atoms: C_24  and  N_25
REMARK    9  A    between atoms: N_25  and  C_26
REMARK   10  A    between atoms: C_26  and  C_27
REMARK   11  A    between atoms: C_27  and  N_28
REMARK   12  A    between atoms: C_33  and  C_35
REMARK   13  A    between atoms: C_35  and  C_36
REMARK   14  A    between atoms: C_35  and  C_37
REMARK                            x       y       z     vdW  Elec       q    Type
REMARK                         _______ _______ _______ _____ _____    ______ ____
ROOT
ATOM      1  C   UNL     1       6.308  -3.376  -6.029  0.00  0.00    +0.144 C 
ATOM      2  C   UNL     1       6.693  -2.207  -6.934  0.00  0.00    -0.014 A 
ATOM      3  C   UNL     1       7.968  -1.645  -6.954  0.00  0.00    +0.013 A 
ATOM      4  C   UNL     1       8.237  -0.607  -7.779  0.00  0.00    +0.046 A 
ATOM      5  S   UNL     1       6.664  -0.366  -8.592  0.00  0.00    -0.101 S 
ATOM      6  C   UNL     1       5.772  -1.663  -7.775  0.00  0.00    -0.004 A 
ATOM      7  C   UNL     1       4.347  -2.070  -7.964  0.00  0.00    +0.061 C 
ATOM      8  C   UNL     1       3.925  -2.950  -6.777  0.00  0.00    +0.114 C 
ATOM      9  N   UNL     1       5.014  -3.897  -6.493  0.00  0.00    -0.289 N 
ATOM     10  C   UNL     1       4.830  -5.222  -6.656  0.00  0.00    +0.234 C 
ATOM     11  O   UNL     1       5.735  -5.994  -6.420  0.00  0.00    -0.274 OA
ENDROOT
BRANCH   1  12
ATOM     12  C   UNL     1       6.184  -2.893  -4.583  0.00  0.00    +0.256 C 
BRANCH  12  13
ATOM     13  O   UNL     1       5.276  -1.791  -4.526  0.00  0.00    -0.490 OA
BRANCH  13  17
ATOM     14  C   UNL     1       4.594  -0.118  -0.817  0.00  0.00    -0.045 A 
ATOM     15  C   UNL     1       3.955   0.392  -1.932  0.00  0.00    +0.007 A 
ATOM     16  C   UNL     1       4.181  -0.166  -3.175  0.00  0.00    +0.046 A 
ATOM     17  C   UNL     1       5.051  -1.239  -3.304  0.00  0.00    +0.121 A 
ATOM     18  C   UNL     1       5.692  -1.749  -2.183  0.00  0.00    +0.046 A 
ATOM     19  C   UNL     1       5.466  -1.183  -0.944  0.00  0.00    +0.007 A 
BRANCH  14  21
ATOM     20  C   UNL     1       4.750   1.968   0.515  0.00  0.00    +0.012 C 
ATOM     21  C   UNL     1       4.345   0.493   0.538  0.00  0.00    +0.013 C 
ATOM     22  C   UNL     1       2.859   0.378   0.884  0.00  0.00    +0.012 C 
ENDBRANCH  14  21
ENDBRANCH  13  17
ENDBRANCH  12  13
ENDBRANCH   1  12
BRANCH  10  23
ATOM     23  C   UNL     1       3.499  -5.745  -7.132  0.00  0.00    +0.203 C 
BRANCH  23  24
ATOM     24  N   UNL     1       3.554  -7.206  -7.227  0.00  0.00    -0.294 N 
ATOM     25  C   UNL     1       3.837  -7.794  -8.407  0.00  0.00    +0.218 C 
ATOM     26  O   UNL     1       3.794  -9.002  -8.508  0.00  0.00    -0.275 OA
BRANCH  25  27
ATOM     27  C   UNL     1       4.206  -6.950  -9.600  0.00  0.00    +0.069 C 
ATOM     28  C   UNL     1       4.799  -7.843 -10.692  0.00  0.00    +0.017 C 
ATOM     29  C   UNL     1       2.955  -6.251 -10.136  0.00  0.00    +0.017 C 
ENDBRANCH  25  27
BRANCH  24  30
ATOM     30  C   UNL     1       3.302  -8.027  -6.041  0.00  0.00    +0.090 C 
BRANCH  30  31
ATOM     31  C   UNL     1       1.808  -8.345  -5.949  0.00  0.00    -0.060 C 
BRANCH  31  32
ATOM     32  N   UNL     1       1.555  -9.169  -4.760  0.00  0.00    +0.381 N 
ATOM     33  C   UNL     1       1.777  -8.371  -3.527  0.00  0.00    -0.079 C 
ATOM     34  C   UNL     1       0.960  -9.137  -2.456  0.00  0.00    -0.020 C 
ATOM     35  C   UNL     1      -0.289  -9.600  -3.240  0.00  0.00    -0.020 C 
ATOM     36  C   UNL     1       0.136  -9.586  -4.720  0.00  0.00    -0.079 C 
ATOM     37  H   UNL     1       2.156  -9.980  -4.763  0.00  0.00    -0.082 HD
ENDBRANCH  31  32
ENDBRANCH  30  31
ENDBRANCH  24  30
ENDBRANCH  23  24
ENDBRANCH  10  23
TORSDOF 10
