REMARK  Name = ZINC26421223
REMARK  3 active torsions:
REMARK  status: ('A' for Active; 'I' for Inactive)
REMARK    1  A    between atoms: C_1  and  C_2
REMARK    2  A    between atoms: C_4  and  N_21
REMARK    3  A    between atoms: C_9  and  C_12
REMARK                            x       y       z     vdW  Elec       q    Type
REMARK                         _______ _______ _______ _____ _____    ______ ____
ROOT
ATOM      1  C   UNL     1      -1.252   2.258   0.021  0.00  0.00    +0.067 C 
ATOM      2  C   UNL     1      -0.017   1.394   0.010  0.00  0.00    +0.062 A 
ATOM      3  C   UNL     1       0.002  -0.004   0.002  0.00  0.00    +0.068 A 
ATOM      4  C   UNL     1       1.303  -0.404  -0.013  0.00  0.00    +0.122 A 
ATOM      5  N   UNL     1       2.075   0.718  -0.014  0.00  0.00    -0.194 N 
ATOM      6  N   UNL     1       1.218   1.826   0.000  0.00  0.00    -0.168 NA
ATOM      7  C   UNL     1       3.467   0.757  -0.028  0.00  0.00    +0.196 A 
ATOM      8  N   UNL     1       4.272   1.802  -0.030  0.00  0.00    -0.218 NA
ATOM      9  C   UNL     1       5.590   1.657  -0.043  0.00  0.00    +0.115 A 
ATOM     10  C   UNL     1       6.125   0.396  -0.055  0.00  0.00    +0.080 A 
ATOM     11  S   UNL     1       4.636  -0.595  -0.039  0.00  0.00    -0.056 S 
ENDROOT
BRANCH   9  12
ATOM     12  C   UNL     1       6.471   2.842  -0.045  0.00  0.00    +0.155 A 
ATOM     13  C   UNL     1       6.047   4.129  -0.039  0.00  0.00    +0.060 A 
ATOM     14  C   UNL     1       7.256   4.956  -0.041  0.00  0.00    +0.021 A 
ATOM     15  C   UNL     1       7.495   6.331  -0.036  0.00  0.00    +0.011 A 
ATOM     16  C   UNL     1       8.781   6.795  -0.046  0.00  0.00    +0.001 A 
ATOM     17  C   UNL     1       9.848   5.908  -0.061  0.00  0.00    +0.004 A 
ATOM     18  C   UNL     1       9.632   4.546  -0.066  0.00  0.00    +0.047 A 
ATOM     19  C   UNL     1       8.334   4.052  -0.056  0.00  0.00    +0.136 A 
ATOM     20  O   UNL     1       7.819   2.806  -0.058  0.00  0.00    -0.453 OA
ENDBRANCH   9  12
BRANCH   4  21
ATOM     21  N   UNL     1       1.761  -1.718  -0.024  0.00  0.00    -0.343 N 
ATOM     22  H   UNL     1       2.841  -1.924  -0.036  0.00  0.00    +0.144 HD
ATOM     23  H   UNL     1       1.042  -2.551  -0.022  0.00  0.00    +0.144 HD
ENDBRANCH   4  21
TORSDOF 2
