REMARK  Name = ZINC17082258
REMARK  7 active torsions:
REMARK  status: ('A' for Active; 'I' for Inactive)
REMARK    1  A    between atoms: C_1  and  N_2
REMARK    2  A    between atoms: N_2  and  C_3
REMARK    3  A    between atoms: N_2  and  C_4
REMARK    4  A    between atoms: C_5  and  C_6
REMARK    5  A    between atoms: C_5  and  S_19
REMARK    6  A    between atoms: N_7  and  N_8
REMARK    7  A    between atoms: S_19  and  C_22
REMARK                            x       y       z     vdW  Elec       q    Type
REMARK                         _______ _______ _______ _____ _____    ______ ____
ROOT
ATOM      1  C   UNL     1       0.186   1.414  -2.314  0.00  0.00    +0.137 C 
ATOM      2  N   UNL     1       1.437   1.811  -2.265  0.00  0.00    -0.260 N 
ATOM      3  N   UNL     1      -0.843   2.352  -2.330  0.00  0.00    -0.342 N 
ATOM      4  H   UNL     1      -1.767   2.059  -2.294  0.00  0.00    +0.144 HD
ATOM      5  H   UNL     1      -0.635   3.298  -2.377  0.00  0.00    +0.144 HD
ATOM      6  H   UNL     1       2.155   1.162  -2.326  0.00  0.00    +0.190 HD
ENDROOT
BRANCH   2   7
ATOM      7  N   UNL     1       1.735   3.173  -2.122  0.00  0.00    -0.147 NA
ATOM      8  C   UNL     1       2.983   3.582  -2.171  0.00  0.00    +0.191 A 
ATOM      9  N   UNL     1       3.487   4.846  -1.956  0.00  0.00    -0.332 N 
ATOM     10  C   UNL     1       4.850   5.071  -2.056  0.00  0.00    +0.055 A 
ATOM     11  C   UNL     1       5.529   6.287  -1.871  0.00  0.00    +0.027 A 
ATOM     12  C   UNL     1       6.896   6.360  -2.005  0.00  0.00    +0.002 A 
ATOM     13  C   UNL     1       7.647   5.242  -2.325  0.00  0.00    +0.001 A 
ATOM     14  C   UNL     1       7.004   4.030  -2.513  0.00  0.00    +0.017 A 
ATOM     15  C   UNL     1       5.638   3.957  -2.379  0.00  0.00    +0.039 A 
ATOM     16  S   UNL     1       4.457   2.638  -2.525  0.00  0.00    -0.048 S 
ATOM     17  H   UNL     1       2.889   5.577  -1.736  0.00  0.00    +0.168 HD
ENDBRANCH   2   7
BRANCH   1  19
ATOM     18  C   UNL     1      -0.090  -0.743  -1.224  0.00  0.00    +0.101 C 
ATOM     19  C   UNL     1      -0.127  -0.016  -2.354  0.00  0.00    +0.146 C 
BRANCH  18  21
ATOM     20  C   UNL     1      -0.108   1.332   0.106  0.00  0.00    +0.128 C 
ATOM     21  N   UNL     1       0.079  -0.117  -0.006  0.00  0.00    -0.340 N 
ATOM     22  C   UNL     1       0.447  -0.901   1.176  0.00  0.00    +0.128 C 
ENDBRANCH  18  21
BRANCH  19  23
ATOM     23  S   UNL     1      -0.552  -0.783  -3.882  0.00  0.00    +0.029 S 
ATOM     24  O   UNL     1       0.441  -0.394  -4.821  0.00  0.00    -0.164 OA
ATOM     25  O   UNL     1      -0.831  -2.145  -3.589  0.00  0.00    -0.164 OA
BRANCH  23  26
ATOM     26  C   UNL     1      -2.067  -0.064  -4.423  0.00  0.00    +0.094 A 
ATOM     27  C   UNL     1      -3.271  -0.555  -3.955  0.00  0.00    +0.027 A 
ATOM     28  C   UNL     1      -4.459   0.009  -4.379  0.00  0.00    +0.002 A 
ATOM     29  C   UNL     1      -4.444   1.065  -5.271  0.00  0.00    +0.000 A 
ATOM     30  C   UNL     1      -3.239   1.557  -5.738  0.00  0.00    +0.002 A 
ATOM     31  C   UNL     1      -2.051   0.996  -5.311  0.00  0.00    +0.027 A 
ENDBRANCH  23  26
ENDBRANCH  19  23
ENDBRANCH   1  19
TORSDOF 5
