REMARK  Name = ZINC09279973
REMARK  12 active torsions:
REMARK  status: ('A' for Active; 'I' for Inactive)
REMARK    1  A    between atoms: C_1  and  C_2
REMARK    2  A    between atoms: C_2  and  O_3
REMARK    3  A    between atoms: O_3  and  C_4
REMARK    4  A    between atoms: C_4  and  C_5
REMARK    5  A    between atoms: C_5  and  N_6
REMARK    6  A    between atoms: C_10  and  C_35
REMARK    7  A    between atoms: N_15  and  C_16
REMARK    8  A    between atoms: C_16  and  C_18
REMARK    9  A    between atoms: C_21  and  S_24
REMARK   10  A    between atoms: S_24  and  N_27
REMARK   11  A    between atoms: N_27  and  C_28
REMARK   12  A    between atoms: N_27  and  C_29
REMARK                            x       y       z     vdW  Elec       q    Type
REMARK                         _______ _______ _______ _____ _____    ______ ____
ROOT
ATOM      1  C   UNL     1      -2.704   7.354   0.045  0.00  0.00    +0.269 C 
ATOM      2  O   UNL     1      -1.523   7.651   0.080  0.00  0.00    -0.268 OA
ENDROOT
BRANCH   1  12
ATOM      3  N   UNL     1      -2.324   3.766   0.071  0.00  0.00    -0.319 N 
ATOM      4  C   UNL     1      -1.229   2.922   0.108  0.00  0.00    +0.058 A 
ATOM      5  C   UNL     1      -1.212   1.518   0.109  0.00  0.00    +0.027 A 
ATOM      6  C   UNL     1      -0.022   0.830   0.153  0.00  0.00    +0.005 A 
ATOM      7  C   UNL     1       1.192   1.496   0.188  0.00  0.00    -0.049 A 
ATOM      8  C   UNL     1       1.204   2.880   0.183  0.00  0.00    +0.020 A 
ATOM      9  C   UNL     1       0.015   3.569   0.144  0.00  0.00    +0.039 A 
ATOM     10  S   UNL     1      -0.421   5.290   0.124  0.00  0.00    -0.052 S 
ATOM     11  C   UNL     1      -2.145   5.114   0.071  0.00  0.00    +0.167 A 
ATOM     12  N   UNL     1      -3.070   6.068   0.039  0.00  0.00    -0.152 NA
ATOM     13  C   UNL     1       2.484   0.723   0.231  0.00  0.00    +0.044 C 
BRANCH   3  14
ATOM     14  C   UNL     1      -3.677   3.207   0.032  0.00  0.00    +0.152 C 
BRANCH  14  15
ATOM     15  C   UNL     1      -4.615   4.082   0.866  0.00  0.00    +0.181 C 
BRANCH  15  16
ATOM     16  O   UNL     1      -5.902   3.467   0.939  0.00  0.00    -0.378 OA
BRANCH  16  18
ATOM     17  C   UNL     1      -8.193   3.459   1.710  0.00  0.00    +0.034 C 
ATOM     18  C   UNL     1      -6.858   4.207   1.700  0.00  0.00    +0.156 C 
ENDBRANCH  16  18
ENDBRANCH  15  16
ENDBRANCH  14  15
ENDBRANCH   3  14
ENDBRANCH   1  12
BRANCH   1  19
ATOM     19  C   UNL     1      -3.735   8.417   0.010  0.00  0.00    +0.039 A 
ATOM     20  C   UNL     1      -5.088   8.079  -0.036  0.00  0.00    +0.015 A 
ATOM     21  C   UNL     1      -6.043   9.074  -0.064  0.00  0.00    +0.029 A 
ATOM     22  C   UNL     1      -5.662  10.404  -0.057  0.00  0.00    +0.109 A 
ATOM     23  C   UNL     1      -4.322  10.745  -0.018  0.00  0.00    +0.029 A 
ATOM     24  C   UNL     1      -3.357   9.759   0.016  0.00  0.00    +0.015 A 
BRANCH  22  25
ATOM     25  S   UNL     1      -6.888  11.669  -0.100  0.00  0.00    +0.074 S 
ATOM     26  O   UNL     1      -8.081  11.095   0.417  0.00  0.00    -0.150 OA
ATOM     27  O   UNL     1      -6.294  12.830   0.465  0.00  0.00    -0.150 OA
BRANCH  25  28
ATOM     28  N   UNL     1      -7.180  12.014  -1.693  0.00  0.00    -0.206 N 
ATOM     29  C   UNL     1      -8.290  11.362  -2.392  0.00  0.00    +0.157 C 
BRANCH  28  30
ATOM     30  C   UNL     1      -6.369  12.928  -2.370  0.00  0.00    +0.051 A 
ATOM     31  C   UNL     1      -6.281  14.242  -1.928  0.00  0.00    +0.025 A 
ATOM     32  C   UNL     1      -5.474  15.141  -2.597  0.00  0.00    +0.002 A 
ATOM     33  C   UNL     1      -4.762  14.737  -3.711  0.00  0.00    +0.000 A 
ATOM     34  C   UNL     1      -4.851  13.431  -4.157  0.00  0.00    +0.002 A 
ATOM     35  C   UNL     1      -5.652  12.525  -3.489  0.00  0.00    +0.025 A 
ENDBRANCH  28  30
ENDBRANCH  25  28
ENDBRANCH  22  25
ENDBRANCH   1  19
TORSDOF 9
