REMARK  Name = ZINC30955839
REMARK  8 active torsions:
REMARK  status: ('A' for Active; 'I' for Inactive)
REMARK    1  A    between atoms: C_1  and  C_2
REMARK    2  A    between atoms: C_9  and  C_34
REMARK    3  A    between atoms: C_9  and  C_35
REMARK    4  A    between atoms: C_11  and  N_13
REMARK    5  A    between atoms: C_14  and  C_16
REMARK    6  A    between atoms: N_19  and  C_22
REMARK    7  A    between atoms: C_22  and  C_23
REMARK    8  A    between atoms: C_25  and  C_28
REMARK                            x       y       z     vdW  Elec       q    Type
REMARK                         _______ _______ _______ _____ _____    ______ ____
ROOT
ATOM      1  C   UNL     1      -0.557   5.599   1.493  0.00  0.00    +0.071 C 
ATOM      2  C   UNL     1      -1.954   5.996   1.980  0.00  0.00    -0.006 C 
ATOM      3  C   UNL     1      -1.840   7.212   2.903  0.00  0.00    -0.077 C 
ATOM      4  N   UNL     1      -1.222   8.326   2.173  0.00  0.00    +0.386 N 
ATOM      5  C   UNL     1       0.138   7.985   1.736  0.00  0.00    -0.077 C 
ATOM      6  C   UNL     1       0.083   6.792   0.778  0.00  0.00    -0.006 C 
ATOM      7  H   UNL     1      -1.827   8.513   1.273  0.00  0.00    -0.081 HD
ENDROOT
BRANCH   1   9
ATOM      8  N   UNL     1      -1.206   3.275   0.950  0.00  0.00    -0.308 N 
ATOM      9  C   UNL     1      -0.669   4.440   0.536  0.00  0.00    +0.216 C 
ATOM     10  O   UNL     1      -0.275   4.555  -0.605  0.00  0.00    -0.276 OA
ATOM     11  H   UNL     1      -1.563   3.170   1.985  0.00  0.00    +0.149 HD
BRANCH   8  22
ATOM     12  C   UNL     1       3.720  -0.702  -0.053  0.00  0.00    +0.044 C 
ATOM     13  C   UNL     1       2.404   0.031  -0.029  0.00  0.00    -0.047 A 
ATOM     14  C   UNL     1       2.382   1.414  -0.018  0.00  0.00    +0.004 A 
ATOM     15  C   UNL     1       1.175   2.085   0.002  0.00  0.00    +0.009 A 
ATOM     16  C   UNL     1      -0.017   1.379   0.010  0.00  0.00    +0.015 A 
ATOM     17  C   UNL     1       0.002  -0.004   0.002  0.00  0.00    +0.126 A 
ATOM     18  C   UNL     1       1.220  -0.677  -0.019  0.00  0.00    +0.049 A 
ATOM     19  O   UNL     1      -1.142  -0.736   0.020  0.00  0.00    -0.486 OA
ATOM     20  C   UNL     1      -2.360  -0.078  -0.334  0.00  0.00    +0.107 C 
ATOM     21  C   UNL     1      -2.454   1.228   0.465  0.00  0.00    +0.074 C 
ATOM     22  C   UNL     1      -1.314   2.147   0.020  0.00  0.00    +0.110 C 
ATOM     23  C   UNL     1      -2.361   0.233  -1.832  0.00  0.00    +0.055 C 
ATOM     24  C   UNL     1      -3.550  -0.978   0.007  0.00  0.00    +0.055 C 
ENDBRANCH   8  22
ENDBRANCH   1   9
BRANCH   4  25
ATOM     25  C   UNL     1      -1.223   9.551   2.983  0.00  0.00    +0.022 C 
BRANCH  25  26
ATOM     26  C   UNL     1      -2.579   9.735   3.614  0.00  0.00    +0.211 A 
ATOM     27  N   UNL     1      -2.964   9.276   4.779  0.00  0.00    -0.193 NA
ATOM     28  C   UNL     1      -4.244   9.684   4.925  0.00  0.00    +0.202 A 
ATOM     29  N   UNL     1      -4.559  10.361   3.851  0.00  0.00    -0.056 NA
ATOM     30  O   UNL     1      -3.613  10.403   3.093  0.00  0.00    -0.340 OA
BRANCH  28  31
ATOM     31  C   UNL     1      -5.128   9.415   6.087  0.00  0.00    +0.022 A 
ATOM     32  C   UNL     1      -4.656   8.669   7.166  0.00  0.00    +0.012 A 
ATOM     33  C   UNL     1      -5.481   8.425   8.246  0.00  0.00    +0.001 A 
ATOM     34  C   UNL     1      -6.776   8.911   8.254  0.00  0.00    +0.000 A 
ATOM     35  C   UNL     1      -7.250   9.647   7.183  0.00  0.00    +0.001 A 
ATOM     36  C   UNL     1      -6.433   9.901   6.101  0.00  0.00    +0.012 A 
ENDBRANCH  28  31
ENDBRANCH  25  26
ENDBRANCH   4  25
TORSDOF 5
