REMARK  Name = ZINC38595904
REMARK  9 active torsions:
REMARK  status: ('A' for Active; 'I' for Inactive)
REMARK    1  A    between atoms: C_1  and  C_2
REMARK    2  A    between atoms: C_2  and  C_4
REMARK    3  A    between atoms: C_2  and  N_24
REMARK    4  A    between atoms: C_4  and  C_6
REMARK    5  A    between atoms: C_4  and  N_11
REMARK    6  A    between atoms: N_14  and  C_17
REMARK    7  A    between atoms: C_17  and  C_18
REMARK    8  A    between atoms: C_25  and  C_27
REMARK    9  A    between atoms: C_27  and  N_28
REMARK                            x       y       z     vdW  Elec       q    Type
REMARK                         _______ _______ _______ _____ _____    ______ ____
ROOT
ATOM      1  C   UNL     1       0.756  -0.597  -1.190  0.00  0.00    +0.113 C 
ENDROOT
BRANCH   1   2
ATOM      2  N   UNL     1       2.164  -0.185  -1.133  0.00  0.00    -0.297 NA
ATOM      3  C   UNL     1       2.280   1.272  -0.972  0.00  0.00    +0.066 C 
ATOM      4  C   UNL     1       3.758   1.653  -0.858  0.00  0.00    -0.063 C 
ATOM      5  N   UNL     1       4.471   1.218  -2.067  0.00  0.00    +0.384 N 
ATOM      6  C   UNL     1       4.367  -0.241  -2.201  0.00  0.00    -0.063 C 
ATOM      7  C   UNL     1       2.894  -0.638  -2.326  0.00  0.00    +0.066 C 
ATOM      8  H   UNL     1       4.061   1.661  -2.876  0.00  0.00    -0.081 HD
BRANCH   5   9
ATOM      9  C   UNL     1       5.886   1.601  -1.964  0.00  0.00    -0.043 C 
BRANCH   9  10
ATOM     10  C   UNL     1       6.591   1.266  -3.253  0.00  0.00    -0.064 A 
ATOM     11  C   UNL     1       7.172   0.023  -3.420  0.00  0.00    +0.002 A 
ATOM     12  C   UNL     1       7.819  -0.284  -4.603  0.00  0.00    +0.000 A 
ATOM     13  C   UNL     1       7.884   0.651  -5.618  0.00  0.00    +0.000 A 
ATOM     14  C   UNL     1       7.302   1.894  -5.452  0.00  0.00    +0.000 A 
ATOM     15  C   UNL     1       6.651   2.200  -4.271  0.00  0.00    +0.002 A 
ENDBRANCH   9  10
ENDBRANCH   5   9
ENDBRANCH   1   2
BRANCH   1  16
ATOM     16  C   UNL     1       0.676  -2.096  -1.331  0.00  0.00    +0.009 A 
ATOM     17  C   UNL     1      -0.162  -2.838  -2.095  0.00  0.00    +0.013 A 
ATOM     18  C   UNL     1      -0.052  -4.216  -2.067  0.00  0.00    +0.008 A 
ATOM     19  C   UNL     1       0.891  -4.784  -1.276  0.00  0.00    +0.045 A 
ATOM     20  S   UNL     1       1.667  -3.353  -0.541  0.00  0.00    -0.100 S 
ENDBRANCH   1  16
BRANCH   1  22
ATOM     21  C   UNL     1      -1.411  -0.632   0.054  0.00  0.00    +0.030 C 
ATOM     22  C   UNL     1       0.046  -0.168   0.096  0.00  0.00    +0.092 C 
BRANCH  22  23
ATOM     23  N   UNL     1       0.718  -0.772   1.249  0.00  0.00    -0.309 N 
ATOM     24  C   UNL     1       0.632  -0.188   2.461  0.00  0.00    +0.233 C 
ATOM     25  O   UNL     1      -0.001   0.837   2.596  0.00  0.00    -0.274 OA
ATOM     26  H   UNL     1       1.224  -1.592   1.141  0.00  0.00    +0.149 HD
BRANCH  24  27
ATOM     27  C   UNL     1       1.323  -0.810   3.647  0.00  0.00    +0.224 C 
BRANCH  27  28
ATOM     28  N   UNL     1       1.080   0.009   4.838  0.00  0.00    -0.265 N 
ATOM     29  C   UNL     1       1.864   1.073   5.281  0.00  0.00    +0.091 A 
ATOM     30  C   UNL     1       3.023   1.665   4.803  0.00  0.00    +0.030 A 
ATOM     31  C   UNL     1       3.579   2.733   5.481  0.00  0.00    +0.002 A 
ATOM     32  C   UNL     1       2.982   3.211   6.635  0.00  0.00    +0.004 A 
ATOM     33  C   UNL     1       1.827   2.626   7.117  0.00  0.00    +0.048 A 
ATOM     34  C   UNL     1       1.262   1.555   6.443  0.00  0.00    +0.157 A 
ATOM     35  O   UNL     1       0.162   0.796   6.671  0.00  0.00    -0.407 OA
ATOM     36  C   UNL     1       0.054  -0.126   5.702  0.00  0.00    +0.422 A 
ATOM     37  O   UNL     1      -0.830  -0.956   5.618  0.00  0.00    -0.223 OA
ENDBRANCH  27  28
ENDBRANCH  24  27
ENDBRANCH  22  23
ENDBRANCH   1  22
TORSDOF 8
