REMARK  Name = ZINC36504787
REMARK  14 active torsions:
REMARK  status: ('A' for Active; 'I' for Inactive)
REMARK    1  A    between atoms: C_1  and  C_2
REMARK    2  A    between atoms: C_2  and  C_3
REMARK    3  A    between atoms: C_3  and  C_4
REMARK    4  A    between atoms: C_4  and  N_5
REMARK    5  A    between atoms: C_6  and  C_8
REMARK    6  A    between atoms: C_8  and  C_10
REMARK    7  A    between atoms: C_8  and  N_19
REMARK    8  A    between atoms: C_11  and  O_18
REMARK    9  A    between atoms: C_13  and  O_17
REMARK   10  A    between atoms: C_15  and  O_16
REMARK   11  A    between atoms: N_19  and  C_20
REMARK   12  A    between atoms: C_20  and  C_21
REMARK   13  A    between atoms: C_26  and  C_28
REMARK   14  A    between atoms: C_32  and  N_34
REMARK                            x       y       z     vdW  Elec       q    Type
REMARK                         _______ _______ _______ _____ _____    ______ ____
ROOT
ATOM      1  C   UNL     1      -5.649  -5.731   0.799  0.00  0.00    +0.200 C 
ENDROOT
BRANCH   1   2
ATOM      2  C   UNL     1      -7.052  -5.964   0.302  0.00  0.00    +0.065 A 
ATOM      3  C   UNL     1      -7.803  -7.013   0.812  0.00  0.00    +0.129 A 
ATOM      4  C   UNL     1      -9.095  -7.227   0.354  0.00  0.00    +0.091 A 
ATOM      5  C   UNL     1      -9.635  -6.392  -0.612  0.00  0.00    +0.124 A 
ATOM      6  C   UNL     1      -8.885  -5.343  -1.121  0.00  0.00    +0.091 A 
ATOM      7  C   UNL     1      -7.595  -5.127  -0.661  0.00  0.00    +0.129 A 
BRANCH   7   8
ATOM      8  O   UNL     1      -6.861  -4.096  -1.156  0.00  0.00    -0.506 OA
ATOM      9  H   UNL     1      -6.335  -4.326  -1.935  0.00  0.00    +0.292 HD
ENDBRANCH   7   8
BRANCH   5  10
ATOM     10  O   UNL     1     -10.901  -6.603  -1.061  0.00  0.00    -0.507 OA
ATOM     11  H   UNL     1     -11.580  -6.133  -0.558  0.00  0.00    +0.292 HD
ENDBRANCH   5  10
BRANCH   3  12
ATOM     12  O   UNL     1      -7.274  -7.830   1.759  0.00  0.00    -0.506 OA
ATOM     13  H   UNL     1      -7.367  -7.498   2.662  0.00  0.00    +0.292 HD
ENDBRANCH   3  12
ENDBRANCH   1   2
BRANCH   1  15
ATOM     14  N   UNL     1      -5.535  -3.290   1.180  0.00  0.00    -0.313 N 
ATOM     15  C   UNL     1      -5.202  -4.345   0.411  0.00  0.00    +0.238 C 
ATOM     16  O   UNL     1      -4.542  -4.180  -0.593  0.00  0.00    -0.273 OA
ATOM     17  H   UNL     1      -6.063  -3.422   1.983  0.00  0.00    +0.149 HD
BRANCH  14  18
ATOM     18  C   UNL     1      -5.101  -1.943   0.803  0.00  0.00    +0.104 C 
BRANCH  18  19
ATOM     19  C   UNL     1      -5.609  -0.935   1.837  0.00  0.00    +0.018 C 
BRANCH  19  21
ATOM     20  C   UNL     1      -5.663   1.480   2.476  0.00  0.00    +0.004 C 
ATOM     21  C   UNL     1      -5.155   0.472   1.443  0.00  0.00    -0.002 C 
ENDBRANCH  19  21
ENDBRANCH  18  19
ENDBRANCH  14  18
ENDBRANCH   1  15
BRANCH   1  22
ATOM     22  N   UNL     1      -4.748  -6.720   0.201  0.00  0.00    -0.274 N 
ATOM     23  C   UNL     1      -3.520  -6.915   0.720  0.00  0.00    +0.248 C 
ATOM     24  O   UNL     1      -2.631  -7.367   0.026  0.00  0.00    -0.270 OA
BRANCH  23  25
ATOM     25  C   UNL     1      -3.254  -6.578   2.135  0.00  0.00    +0.039 A 
ATOM     26  C   UNL     1      -3.754  -5.394   2.680  0.00  0.00    +0.013 A 
ATOM     27  C   UNL     1      -3.502  -5.086   4.001  0.00  0.00    +0.003 A 
ATOM     28  C   UNL     1      -2.757  -5.948   4.786  0.00  0.00    +0.033 A 
ATOM     29  C   UNL     1      -2.259  -7.123   4.252  0.00  0.00    +0.127 A 
ATOM     30  C   UNL     1      -2.508  -7.446   2.934  0.00  0.00    +0.045 A 
BRANCH  29  31
ATOM     31  N   UNL     1      -1.461  -8.039   5.098  0.00  0.00    +0.056 N 
ATOM     32  O   UNL     1      -1.246  -7.760   6.255  0.00  0.00    -0.126 OA
ATOM     33  O   UNL     1      -1.025  -9.066   4.633  0.00  0.00    -0.126 OA
ENDBRANCH  29  31
ENDBRANCH  23  25
BRANCH  22  34
ATOM     34  C   UNL     1      -5.183  -7.497  -0.962  0.00  0.00    +0.183 C 
BRANCH  34  35
ATOM     35  C   UNL     1      -4.427  -7.040  -2.183  0.00  0.00    +0.122 A 
ATOM     36  C   UNL     1      -3.232  -7.504  -2.588  0.00  0.00    +0.046 A 
ATOM     37  C   UNL     1      -2.898  -6.803  -3.769  0.00  0.00    +0.041 A 
ATOM     38  C   UNL     1      -3.910  -5.951  -4.016  0.00  0.00    +0.195 A 
ATOM     39  O   UNL     1      -4.836  -6.104  -3.055  0.00  0.00    -0.466 OA
ENDBRANCH  34  35
ENDBRANCH  22  34
ENDBRANCH   1  22
TORSDOF 13
