REMARK  Name = ZINC28527513
REMARK  10 active torsions:
REMARK  status: ('A' for Active; 'I' for Inactive)
REMARK    1  A    between atoms: C_3  and  N_31
REMARK    2  A    between atoms: C_4  and  C_8
REMARK    3  A    between atoms: C_8  and  C_9
REMARK    4  A    between atoms: C_17  and  N_18
REMARK    5  A    between atoms: N_18  and  C_19
REMARK    6  A    between atoms: C_19  and  C_20
REMARK    7  A    between atoms: C_20  and  C_21
REMARK    8  A    between atoms: N_27  and  C_28
REMARK    9  A    between atoms: C_28  and  C_29
REMARK   10  A    between atoms: C_29  and  O_30
REMARK                            x       y       z     vdW  Elec       q    Type
REMARK                         _______ _______ _______ _____ _____    ______ ____
ROOT
ATOM      1  C   UNL     1      -4.644   0.727  -1.144  0.00  0.00    +0.201 A 
ATOM      2  N   UNL     1      -4.107  -0.154  -1.934  0.00  0.00    -0.210 NA
ATOM      3  C   UNL     1      -4.630  -0.002  -3.179  0.00  0.00    +0.149 A 
ATOM      4  C   UNL     1      -5.546   1.059  -3.099  0.00  0.00    +0.160 A 
ATOM      5  O   UNL     1      -5.529   1.479  -1.820  0.00  0.00    -0.439 OA
ATOM      6  C   UNL     1      -6.234   1.431  -4.250  0.00  0.00    +0.068 A 
ATOM      7  C   UNL     1      -5.995   0.749  -5.422  0.00  0.00    +0.116 A 
ATOM      8  N   UNL     1      -5.126  -0.248  -5.473  0.00  0.00    -0.238 NA
ATOM      9  C   UNL     1      -4.444  -0.643  -4.411  0.00  0.00    +0.148 A 
ENDROOT
BRANCH   9  10
ATOM     10  N   UNL     1      -3.544  -1.695  -4.517  0.00  0.00    -0.327 N 
ATOM     11  H   UNL     1      -2.976  -2.024  -3.634  0.00  0.00    +0.148 HD
BRANCH  10  12
ATOM     12  C   UNL     1      -3.349  -2.366  -5.804  0.00  0.00    +0.101 C 
BRANCH  12  13
ATOM     13  C   UNL     1      -2.312  -3.479  -5.647  0.00  0.00    +0.003 C 
BRANCH  13  14
ATOM     14  C   UNL     1      -2.204  -4.264  -6.957  0.00  0.00    -0.067 C 
ATOM     15  C   UNL     1      -1.692  -3.340  -8.064  0.00  0.00    -0.015 C 
ATOM     16  C   UNL     1      -1.605  -4.124  -9.377  0.00  0.00    -0.003 C 
ATOM     17  C   UNL     1      -2.984  -4.698  -9.712  0.00  0.00    -0.019 C 
ATOM     18  C   UNL     1      -3.458  -5.582  -8.557  0.00  0.00    -0.078 C 
ATOM     19  N   UNL     1      -3.526  -4.786  -7.325  0.00  0.00    +0.383 N 
ATOM     20  H   UNL     1      -4.184  -3.926  -7.517  0.00  0.00    -0.081 HD
BRANCH  19  21
ATOM     21  C   UNL     1      -4.109  -5.566  -6.225  0.00  0.00    -0.050 C 
BRANCH  21  22
ATOM     22  C   UNL     1      -5.614  -5.722  -6.452  0.00  0.00    +0.137 C 
BRANCH  22  23
ATOM     23  O   UNL     1      -5.840  -6.547  -7.596  0.00  0.00    -0.397 OA
ATOM     24  H   UNL     1      -6.868  -6.773  -7.917  0.00  0.00    +0.209 HD
ENDBRANCH  22  23
ENDBRANCH  21  22
ENDBRANCH  19  21
ENDBRANCH  13  14
ENDBRANCH  12  13
ENDBRANCH  10  12
ENDBRANCH   9  10
BRANCH   1  25
ATOM     25  C   UNL     1      -4.324   0.880   0.321  0.00  0.00    +0.133 C 
BRANCH  25  29
ATOM     26  C   UNL     1      -1.083   3.631   0.787  0.00  0.00    +0.022 A 
ATOM     27  C   UNL     1      -2.377   4.105   0.689  0.00  0.00    +0.029 A 
ATOM     28  C   UNL     1      -3.431   3.214   0.541  0.00  0.00    +0.071 A 
ATOM     29  C   UNL     1      -3.182   1.849   0.487  0.00  0.00    -0.012 A 
ATOM     30  C   UNL     1      -1.887   1.380   0.591  0.00  0.00    +0.026 A 
ATOM     31  C   UNL     1      -0.837   2.270   0.739  0.00  0.00    +0.041 A 
ATOM     32 CL   UNL     1       0.790   1.678   0.863  0.00  0.00    -0.084 Cl
BRANCH  28  33
ATOM     33  N   UNL     1      -4.746   3.692   0.442  0.00  0.00    -0.220 N 
ATOM     34  C   UNL     1      -5.142   4.979   0.479  0.00  0.00    +0.225 A 
ATOM     35  N   UNL     1      -6.444   5.006   0.351  0.00  0.00    -0.222 NA
ATOM     36  C   UNL     1      -6.913   3.764   0.240  0.00  0.00    +0.245 A 
ATOM     37  N   UNL     1      -5.912   2.924   0.290  0.00  0.00    -0.154 NA
ENDBRANCH  28  33
ENDBRANCH  25  29
ENDBRANCH   1  25
TORSDOF 10
