REMARK  Name = ZINC09788876
REMARK  9 active torsions:
REMARK  status: ('A' for Active; 'I' for Inactive)
REMARK    1  A    between atoms: C_1  and  C_2
REMARK    2  A    between atoms: C_8  and  C_10
REMARK    3  A    between atoms: C_10  and  C_12
REMARK    4  A    between atoms: C_10  and  O_13
REMARK    5  A    between atoms: O_13  and  C_14
REMARK    6  A    between atoms: C_17  and  N_20
REMARK    7  A    between atoms: N_20  and  C_21
REMARK    8  A    between atoms: N_20  and  S_22
REMARK    9  A    between atoms: S_22  and  C_25
REMARK                            x       y       z     vdW  Elec       q    Type
REMARK                         _______ _______ _______ _____ _____    ______ ____
ROOT
ATOM      1  C   UNL     1       1.580   1.938   0.190  0.00  0.00    +0.122 A 
ATOM      2  C   UNL     1       0.246   2.293   0.324  0.00  0.00    +0.047 A 
ATOM      3  C   UNL     1      -0.746   1.412  -0.060  0.00  0.00    +0.028 A 
ATOM      4  C   UNL     1      -0.407   0.170  -0.580  0.00  0.00    +0.051 A 
ATOM      5  C   UNL     1       0.928  -0.185  -0.713  0.00  0.00    +0.028 A 
ATOM      6  C   UNL     1       1.919   0.697  -0.329  0.00  0.00    +0.047 A 
ENDROOT
BRANCH   4   7
ATOM      7  N   UNL     1      -1.412  -0.723  -0.968  0.00  0.00    -0.206 N 
ATOM      8  C   UNL     1      -2.735  -0.654  -0.344  0.00  0.00    +0.157 C 
BRANCH   7   9
ATOM      9  S   UNL     1      -1.105  -1.859  -2.134  0.00  0.00    +0.074 S 
ATOM     10  O   UNL     1      -2.353  -2.169  -2.738  0.00  0.00    -0.150 OA
ATOM     11  O   UNL     1       0.006  -1.382  -2.882  0.00  0.00    -0.150 OA
BRANCH   9  12
ATOM     12  C   UNL     1      -0.567  -3.320  -1.310  0.00  0.00    +0.109 A 
ATOM     13  C   UNL     1       0.798  -3.579  -1.193  0.00  0.00    +0.029 A 
ATOM     14  C   UNL     1       1.247  -4.696  -0.557  0.00  0.00    +0.010 A 
ATOM     15  C   UNL     1       0.324  -5.609  -0.020  0.00  0.00    -0.018 A 
ATOM     16  C   UNL     1       0.749  -6.776   0.637  0.00  0.00    +0.008 A 
ATOM     17  C   UNL     1      -0.174  -7.637   1.146  0.00  0.00    +0.001 A 
ATOM     18  C   UNL     1      -1.538  -7.380   1.024  0.00  0.00    +0.001 A 
ATOM     19  C   UNL     1      -1.987  -6.261   0.394  0.00  0.00    +0.008 A 
ATOM     20  C   UNL     1      -1.064  -5.348  -0.143  0.00  0.00    -0.016 A 
ATOM     21  C   UNL     1      -1.490  -4.181  -0.801  0.00  0.00    +0.037 A 
ENDBRANCH   9  12
ENDBRANCH   7   9
ENDBRANCH   4   7
BRANCH   1  22
ATOM     22  O   UNL     1       2.556   2.806   0.567  0.00  0.00    -0.480 OA
BRANCH  22  23
ATOM     23  C   UNL     1       3.908   2.362   0.430  0.00  0.00    +0.256 C 
ATOM     24  C   UNL     1       4.378   2.596  -1.007  0.00  0.00    +0.062 C 
BRANCH  23  32
ATOM     25  C   UNL     1       7.821   6.037   4.888  0.00  0.00    +0.089 C 
ATOM     26  C   UNL     1       7.668   4.983   3.821  0.00  0.00    +0.136 A 
ATOM     27  C   UNL     1       6.521   4.614   3.208  0.00  0.00    +0.091 A 
ATOM     28  C   UNL     1       6.927   3.598   2.303  0.00  0.00    +0.168 A 
ATOM     29  N   UNL     1       8.217   3.462   2.462  0.00  0.00    -0.063 NA
ATOM     30  O   UNL     1       8.643   4.227   3.297  0.00  0.00    -0.358 OA
ATOM     31  N   UNL     1       6.112   2.884   1.425  0.00  0.00    -0.265 N 
ATOM     32  C   UNL     1       4.788   3.134   1.379  0.00  0.00    +0.259 C 
ATOM     33  O   UNL     1       4.306   3.981   2.101  0.00  0.00    -0.271 OA
ATOM     34  H   UNL     1       6.498   2.207   0.847  0.00  0.00    +0.156 HD
ENDBRANCH  23  32
ENDBRANCH  22  23
ENDBRANCH   1  22
TORSDOF 6
