REMARK  Name = ZINC19219893
REMARK  6 active torsions:
REMARK  status: ('A' for Active; 'I' for Inactive)
REMARK    1  A    between atoms: C_3  and  C_6
REMARK    2  A    between atoms: C_6  and  N_7
REMARK    3  A    between atoms: C_10  and  C_13
REMARK    4  A    between atoms: C_13  and  C_25
REMARK    5  A    between atoms: N_16  and  C_20
REMARK    6  A    between atoms: C_25  and  C_26
REMARK                            x       y       z     vdW  Elec       q    Type
REMARK                         _______ _______ _______ _____ _____    ______ ____
ROOT
ATOM      1  C   UNL     1      -3.340  -1.683   5.241  0.00  0.00    +0.119 C 
ATOM      2  C   UNL     1      -2.271  -2.672   5.660  0.00  0.00    +0.247 C 
ATOM      3  O   UNL     1      -1.075  -2.480   5.708  0.00  0.00    -0.273 OA
ATOM      4  N   UNL     1      -2.926  -3.809   5.967  0.00  0.00    -0.221 N 
ATOM      5  C   UNL     1      -4.247  -3.677   5.802  0.00  0.00    +0.310 C 
ATOM      6  O   UNL     1      -5.047  -4.566   6.016  0.00  0.00    -0.252 OA
ATOM      7  N   UNL     1      -4.591  -2.449   5.373  0.00  0.00    -0.284 N 
ATOM      8  H   UNL     1      -5.554  -1.976   5.131  0.00  0.00    +0.151 HD
ENDROOT
BRANCH   1  12
ATOM      9  N   UNL     1      -1.519  -1.290   1.394  0.00  0.00    +0.383 N 
ATOM     10  C   UNL     1      -1.582  -0.075   2.216  0.00  0.00    -0.078 C 
ATOM     11  C   UNL     1      -1.819  -0.460   3.679  0.00  0.00    -0.013 C 
ATOM     12  C   UNL     1      -3.129  -1.243   3.791  0.00  0.00    +0.018 C 
ATOM     13  C   UNL     1      -3.055  -2.478   2.888  0.00  0.00    -0.013 C 
ATOM     14  C   UNL     1      -2.783  -2.035   1.448  0.00  0.00    -0.078 C 
ATOM     15  H   UNL     1      -0.731  -1.936   1.810  0.00  0.00    -0.081 HD
BRANCH   9  16
ATOM     16  C   UNL     1      -1.155  -0.969   0.007  0.00  0.00    -0.036 C 
BRANCH  16  19
ATOM     17  C   UNL     1       2.223   0.790  -0.015  0.00  0.00    +0.008 A 
ATOM     18  C   UNL     1       1.332  -0.266  -0.012  0.00  0.00    +0.009 A 
ATOM     19  C   UNL     1       0.002  -0.004   0.002  0.00  0.00    -0.027 A 
ATOM     20  S   UNL     1      -0.022   1.781   0.012  0.00  0.00    -0.103 S 
ATOM     21  C   UNL     1       1.742   2.057  -0.004  0.00  0.00    +0.045 A 
ENDBRANCH  16  19
ENDBRANCH   9  16
ENDBRANCH   1  12
BRANCH   4  22
ATOM     22  C   UNL     1      -2.272  -5.037   6.425  0.00  0.00    +0.086 C 
ATOM     23  C   UNL     1      -2.614  -6.204   5.476  0.00  0.00    +0.023 C 
ATOM     24  C   UNL     1      -2.760  -7.427   6.415  0.00  0.00    +0.002 C 
ATOM     25  C   UNL     1      -3.451  -6.822   7.662  0.00  0.00    +0.002 C 
ATOM     26  C   UNL     1      -2.804  -5.430   7.815  0.00  0.00    +0.023 C 
ENDBRANCH   4  22
BRANCH   1  27
ATOM     27  C   UNL     1      -3.347  -0.470   6.173  0.00  0.00    +0.070 C 
BRANCH  27  28
ATOM     28  C   UNL     1      -3.556  -0.929   7.593  0.00  0.00    -0.045 A 
ATOM     29  C   UNL     1      -4.837  -1.032   8.104  0.00  0.00    +0.006 A 
ATOM     30  C   UNL     1      -5.030  -1.458   9.405  0.00  0.00    +0.038 A 
ATOM     31  C   UNL     1      -3.940  -1.772  10.199  0.00  0.00    +0.123 A 
ATOM     32  C   UNL     1      -2.658  -1.663   9.688  0.00  0.00    +0.038 A 
ATOM     33  C   UNL     1      -2.467  -1.242   8.386  0.00  0.00    +0.006 A 
ATOM     34  F   UNL     1      -4.128  -2.183  11.472  0.00  0.00    -0.205 F 
ENDBRANCH  27  28
ENDBRANCH   1  27
TORSDOF 6
