REMARK  Name = ZINC13603393
REMARK  14 active torsions:
REMARK  status: ('A' for Active; 'I' for Inactive)
REMARK    1  A    between atoms: C_1  and  C_2
REMARK    2  A    between atoms: C_2  and  O_3
REMARK    3  A    between atoms: O_3  and  C_4
REMARK    4  A    between atoms: C_4  and  C_6
REMARK    5  A    between atoms: C_7  and  C_38
REMARK    6  A    between atoms: C_14  and  C_15
REMARK    7  A    between atoms: C_18  and  C_21
REMARK    8  A    between atoms: C_21  and  C_22
REMARK    9  A    between atoms: C_21  and  C_23
REMARK   10  A    between atoms: C_21  and  C_24
REMARK   11  A    between atoms: C_26  and  C_28
REMARK   12  A    between atoms: C_31  and  O_34
REMARK   13  A    between atoms: O_34  and  C_35
REMARK   14  A    between atoms: C_35  and  C_37
REMARK                            x       y       z     vdW  Elec       q    Type
REMARK                         _______ _______ _______ _____ _____    ______ ____
ROOT
ATOM      1  C   UNL     1       1.005  10.005  -0.327  0.00  0.00    +0.085 C 
ATOM      2  C   UNL     1       2.360  10.166  -0.410  0.00  0.00    +0.053 C 
ATOM      3  N   UNL     1       3.166   9.112  -0.403  0.00  0.00    -0.228 NA
ATOM      4  C   UNL     1       2.769   7.867  -0.320  0.00  0.00    +0.178 A 
ATOM      5  N   UNL     1       1.451   7.485  -0.228  0.00  0.00    -0.275 N 
ATOM      6  C   UNL     1       1.165   6.179  -0.147  0.00  0.00    +0.268 A 
ATOM      7  O   UNL     1       0.014   5.793  -0.064  0.00  0.00    -0.266 OA
ATOM      8  C   UNL     1       2.285   5.225  -0.162  0.00  0.00    +0.081 A 
ATOM      9  C   UNL     1       2.265   3.870  -0.093  0.00  0.00    +0.028 C 
ATOM     10  S   UNL     1       3.679   6.335  -0.286  0.00  0.00    -0.046 S 
ATOM     11  C   UNL     1       0.461   8.598  -0.228  0.00  0.00    +0.162 C 
ATOM     12  C   UNL     1       2.943  11.552  -0.510  0.00  0.00    +0.066 C 
ENDROOT
BRANCH   9  13
ATOM     13  C   UNL     1       0.987   3.149  -0.166  0.00  0.00    -0.024 A 
ATOM     14  C   UNL     1      -0.030   3.603  -1.013  0.00  0.00    +0.008 A 
ATOM     15  C   UNL     1      -1.227   2.922  -1.075  0.00  0.00    +0.005 A 
ATOM     16  C   UNL     1      -1.426   1.794  -0.298  0.00  0.00    -0.042 A 
ATOM     17  C   UNL     1      -0.423   1.335   0.539  0.00  0.00    +0.005 A 
ATOM     18  C   UNL     1       0.779   2.005   0.613  0.00  0.00    +0.008 A 
BRANCH  16  19
ATOM     19  C   UNL     1      -2.739   1.058  -0.367  0.00  0.00    -0.013 C 
ATOM     20  C   UNL     1      -2.976   0.571  -1.798  0.00  0.00    +0.015 C 
ATOM     21  C   UNL     1      -2.703  -0.142   0.581  0.00  0.00    +0.015 C 
ATOM     22  C   UNL     1      -3.873   1.999   0.045  0.00  0.00    +0.015 C 
ENDBRANCH  16  19
ENDBRANCH   9  13
BRANCH  11  23
ATOM     23  C   UNL     1      -0.345   8.502   1.042  0.00  0.00    -0.020 A 
ATOM     24  C   UNL     1       0.276   8.165   2.230  0.00  0.00    +0.009 A 
ATOM     25  C   UNL     1      -0.460   8.082   3.396  0.00  0.00    +0.047 A 
ATOM     26  C   UNL     1      -1.825   8.325   3.372  0.00  0.00    +0.132 A 
ATOM     27  C   UNL     1      -2.448   8.657   2.178  0.00  0.00    +0.047 A 
ATOM     28  C   UNL     1      -1.706   8.745   1.015  0.00  0.00    +0.009 A 
BRANCH  26  29
ATOM     29  O   UNL     1      -2.553   8.237   4.517  0.00  0.00    -0.426 OA
BRANCH  29  30
ATOM     30  C   UNL     1      -2.461   9.264   5.377  0.00  0.00    +0.309 C 
ATOM     31  O   UNL     1      -1.689  10.167   5.160  0.00  0.00    -0.251 OA
ATOM     32  C   UNL     1      -3.322   9.290   6.614  0.00  0.00    +0.136 C 
ENDBRANCH  29  30
ENDBRANCH  26  29
ENDBRANCH  11  23
BRANCH   1  33
ATOM     33  C   UNL     1       0.144  11.114  -0.334  0.00  0.00    +0.339 C 
ATOM     34  O   UNL     1       0.602  12.240  -0.415  0.00  0.00    -0.245 OA
BRANCH  33  35
ATOM     35  O   UNL     1      -1.192  10.933  -0.250  0.00  0.00    -0.462 OA
BRANCH  35  37
ATOM     36  C   UNL     1      -3.481  11.703  -0.161  0.00  0.00    +0.048 C 
ATOM     37  C   UNL     1      -2.008  12.106  -0.263  0.00  0.00    +0.229 C 
ENDBRANCH  35  37
ENDBRANCH  33  35
ENDBRANCH   1  33
TORSDOF 8
