REMARK  Name = ZINC36267060
REMARK  12 active torsions:
REMARK  status: ('A' for Active; 'I' for Inactive)
REMARK    1  A    between atoms: C_1  and  C_2
REMARK    2  A    between atoms: C_2  and  C_3
REMARK    3  A    between atoms: C_2  and  C_4
REMARK    4  A    between atoms: C_7  and  N_10
REMARK    5  A    between atoms: N_12  and  C_31
REMARK    6  A    between atoms: C_15  and  C_18
REMARK    7  A    between atoms: C_18  and  C_19
REMARK    8  A    between atoms: N_21  and  C_22
REMARK    9  A    between atoms: C_26  and  N_28
REMARK   10  A    between atoms: C_31  and  C_32
REMARK   11  A    between atoms: C_32  and  O_33
REMARK   12  A    between atoms: O_33  and  C_34
REMARK                            x       y       z     vdW  Elec       q    Type
REMARK                         _______ _______ _______ _____ _____    ______ ____
ROOT
ATOM      1  N   UNL     1      -5.317  -1.956   0.051  0.00  0.00    -0.226 NA
ATOM      2  C   UNL     1      -6.037  -1.907  -1.045  0.00  0.00    +0.164 C 
ATOM      3  N   UNL     1      -7.336  -2.333  -1.230  0.00  0.00    -0.248 N 
ATOM      4  C   UNL     1      -7.957  -2.229  -2.392  0.00  0.00    +0.235 C 
ATOM      5  O   UNL     1      -9.100  -2.605  -2.547  0.00  0.00    -0.274 OA
ATOM      6  C   UNL     1      -7.150  -1.609  -3.522  0.00  0.00    +0.149 C 
ATOM      7  S   UNL     1      -5.568  -1.268  -2.646  0.00  0.00    -0.077 S 
ENDROOT
BRANCH   1  11
ATOM      8  C   UNL     1      -1.440  -0.507   0.048  0.00  0.00    -0.045 A 
ATOM      9  C   UNL     1      -2.293  -0.188   1.089  0.00  0.00    +0.006 A 
ATOM     10  C   UNL     1      -3.587  -0.668   1.097  0.00  0.00    +0.028 A 
ATOM     11  C   UNL     1      -4.034  -1.476   0.050  0.00  0.00    +0.067 A 
ATOM     12  C   UNL     1      -3.168  -1.794  -0.998  0.00  0.00    +0.028 A 
ATOM     13  C   UNL     1      -1.879  -1.304  -0.996  0.00  0.00    +0.006 A 
BRANCH   8  15
ATOM     14  C   UNL     1      -0.055   1.550   0.056  0.00  0.00    +0.012 C 
ATOM     15  C   UNL     1      -0.028   0.020   0.046  0.00  0.00    +0.013 C 
ATOM     16  C   UNL     1       0.706  -0.485   1.290  0.00  0.00    +0.012 C 
ENDBRANCH   8  15
ENDBRANCH   1  11
BRANCH   6  17
ATOM     17  C   UNL     1      -7.795  -0.313  -4.017  0.00  0.00    +0.120 C 
BRANCH  17  18
ATOM     18  C   UNL     1      -7.035   0.201  -5.212  0.00  0.00    +0.219 C 
ATOM     19  O   UNL     1      -6.072  -0.409  -5.627  0.00  0.00    -0.275 OA
ATOM     20  N   UNL     1      -7.425   1.339  -5.820  0.00  0.00    -0.285 N 
ATOM     21  H   UNL     1      -8.233   1.791  -5.532  0.00  0.00    +0.155 HD
BRANCH  20  22
ATOM     22  C   UNL     1      -6.663   1.868  -6.868  0.00  0.00    +0.036 A 
ATOM     23  C   UNL     1      -6.550   3.244  -7.019  0.00  0.00    +0.023 A 
ATOM     24  C   UNL     1      -5.798   3.764  -8.055  0.00  0.00    +0.004 A 
ATOM     25  C   UNL     1      -5.158   2.916  -8.940  0.00  0.00    +0.033 A 
ATOM     26  C   UNL     1      -5.270   1.545  -8.793  0.00  0.00    +0.128 A 
ATOM     27  C   UNL     1      -6.016   1.020  -7.756  0.00  0.00    +0.056 A 
BRANCH  26  28
ATOM     28  N   UNL     1      -4.585   0.641  -9.744  0.00  0.00    +0.056 N 
ATOM     29  O   UNL     1      -3.928   1.101 -10.649  0.00  0.00    -0.126 OA
ATOM     30  O   UNL     1      -4.682  -0.557  -9.615  0.00  0.00    -0.126 OA
ENDBRANCH  26  28
ENDBRANCH  20  22
ENDBRANCH  17  18
ENDBRANCH   6  17
BRANCH   3  31
ATOM     31  C   UNL     1      -8.053  -2.922  -0.097  0.00  0.00    +0.143 C 
BRANCH  31  32
ATOM     32  C   UNL     1      -8.785  -1.820   0.672  0.00  0.00    +0.179 C 
BRANCH  32  33
ATOM     33  O   UNL     1      -9.797  -1.249  -0.161  0.00  0.00    -0.381 OA
ATOM     34  C   UNL     1     -10.544  -0.204   0.465  0.00  0.00    +0.194 C 
ENDBRANCH  32  33
ENDBRANCH  31  32
ENDBRANCH   3  31
TORSDOF 9
