REMARK  Name = ZINC32089576
REMARK  6 active torsions:
REMARK  status: ('A' for Active; 'I' for Inactive)
REMARK    1  A    between atoms: C_1  and  C_2
REMARK    2  A    between atoms: C_4  and  N_16
REMARK    3  A    between atoms: C_5  and  N_15
REMARK    4  A    between atoms: N_8  and  C_9
REMARK    5  A    between atoms: N_16  and  C_17
REMARK    6  A    between atoms: N_16  and  C_18
REMARK                            x       y       z     vdW  Elec       q    Type
REMARK                         _______ _______ _______ _____ _____    ______ ____
ROOT
ATOM      1  C   UNL     1       0.096   1.524  -0.037  0.00  0.00    +0.063 C 
ATOM      2  C   UNL     1       0.028   0.019  -0.008  0.00  0.00    +0.021 A 
ATOM      3  C   UNL     1      -0.065  -0.665  -1.168  0.00  0.00    +0.046 A 
ATOM      4  C   UNL     1      -0.128  -2.073  -1.149  0.00  0.00    +0.057 A 
ATOM      5  C   UNL     1      -0.094  -2.731   0.073  0.00  0.00    +0.111 A 
ATOM      6  C   UNL     1       0.003  -1.974   1.251  0.00  0.00    +0.274 A 
ATOM      7  O   UNL     1       0.035  -2.535   2.336  0.00  0.00    -0.266 OA
ATOM      8  N   UNL     1       0.067  -0.631   1.187  0.00  0.00    -0.308 N 
ENDROOT
BRANCH   8   9
ATOM      9  C   UNL     1       0.175   0.144   2.425  0.00  0.00    +0.091 C 
ATOM     10  C   UNL     1       1.452  -0.256   3.168  0.00  0.00    +0.025 C 
ATOM     11  C   UNL     1       1.564   0.554   4.461  0.00  0.00    +0.002 C 
ATOM     12  C   UNL     1       0.349   0.272   5.347  0.00  0.00    +0.000 C 
ATOM     13  C   UNL     1      -0.928   0.672   4.604  0.00  0.00    +0.002 C 
ATOM     14  C   UNL     1      -1.040  -0.138   3.311  0.00  0.00    +0.025 C 
ENDBRANCH   8   9
BRANCH   5  15
ATOM     15  N   UNL     1      -0.156  -4.135   0.130  0.00  0.00    -0.352 N 
ATOM     16  H   UNL     1      -0.132  -4.655  -0.688  0.00  0.00    +0.143 HD
ATOM     17  H   UNL     1      -0.222  -4.583   0.988  0.00  0.00    +0.143 HD
ENDBRANCH   5  15
BRANCH   4  18
ATOM     18  N   UNL     1      -0.225  -2.791  -2.333  0.00  0.00    -0.334 N 
ATOM     19  C   UNL     1      -1.421  -3.589  -2.611  0.00  0.00    +0.129 C 
ATOM     20  C   UNL     1       0.871  -2.750  -3.305  0.00  0.00    +0.129 C 
ENDBRANCH   4  18
TORSDOF 3
