REMARK  Name = ZINC09356206
REMARK  2 active torsions:
REMARK  status: ('A' for Active; 'I' for Inactive)
REMARK    1  A    between atoms: C_6  and  N_7
REMARK    2  A    between atoms: C_10  and  C_22
REMARK                            x       y       z     vdW  Elec       q    Type
REMARK                         _______ _______ _______ _____ _____    ______ ____
ROOT
ATOM      1  C   UNL     1      -1.890   7.820   1.207  0.00  0.00    +0.036 A 
ATOM      2  C   UNL     1      -0.819   7.053   0.793  0.00  0.00    +0.049 A 
ATOM      3  C   UNL     1      -1.015   5.731   0.413  0.00  0.00    +0.135 A 
ATOM      4  C   UNL     1      -2.288   5.186   0.451  0.00  0.00    +0.010 A 
ATOM      5  C   UNL     1      -3.358   5.958   0.866  0.00  0.00    +0.041 A 
ATOM      6  C   UNL     1      -3.159   7.273   1.244  0.00  0.00    +0.127 A 
ATOM      7  C   UNL     1      -2.518   3.756   0.042  0.00  0.00    +0.104 C 
ATOM      8  C   UNL     1      -1.220   2.998   0.035  0.00  0.00    +0.091 A 
ATOM      9  C   UNL     1      -1.237   1.590   0.038  0.00  0.00    +0.262 A 
ATOM     10  O   UNL     1      -2.298   0.990   0.047  0.00  0.00    -0.267 OA
ATOM     11  N   UNL     1      -0.074   0.910   0.036  0.00  0.00    -0.273 N 
ATOM     12  H   UNL     1      -0.080  -0.190   0.046  0.00  0.00    +0.173 HD
ATOM     13  C   UNL     1       1.099   1.569   0.023  0.00  0.00    +0.352 A 
ATOM     14  O   UNL     1       2.139   0.940   0.017  0.00  0.00    -0.245 OA
ATOM     15  N   UNL     1       1.138   2.913   0.015  0.00  0.00    -0.157 NA
ATOM     16  C   UNL     1      -0.025   3.647   0.020  0.00  0.00    +0.234 A 
ATOM     17  O   UNL     1       0.044   4.990   0.009  0.00  0.00    -0.437 OA
ENDROOT
BRANCH   7  18
ATOM     18  C   UNL     1      -3.131   3.723  -1.359  0.00  0.00    +0.093 A 
ATOM     19  C   UNL     1      -2.159   4.387  -2.316  0.00  0.00    +0.262 A 
ATOM     20  O   UNL     1      -1.026   3.974  -2.448  0.00  0.00    -0.267 OA
ATOM     21  N   UNL     1      -2.601   5.454  -3.014  0.00  0.00    -0.275 N 
ATOM     22  C   UNL     1      -3.847   5.923  -2.878  0.00  0.00    +0.329 A 
ATOM     23  O   UNL     1      -4.161   6.888  -3.545  0.00  0.00    -0.247 OA
ATOM     24  N   UNL     1      -4.772   5.405  -2.062  0.00  0.00    -0.275 N 
ATOM     25  C   UNL     1      -4.518   4.333  -1.282  0.00  0.00    +0.262 A 
ATOM     26  O   UNL     1      -5.367   3.874  -0.548  0.00  0.00    -0.267 OA
ATOM     27  H   UNL     1      -1.930   5.966  -3.720  0.00  0.00    +0.173 HD
ATOM     28  H   UNL     1      -5.775   5.854  -2.013  0.00  0.00    +0.173 HD
ENDBRANCH   7  18
BRANCH   6  29
ATOM     29  N   UNL     1      -4.307   8.096   1.688  0.00  0.00    +0.056 N 
ATOM     30  O   UNL     1      -4.133   9.254   2.021  0.00  0.00    -0.126 OA
ATOM     31  O   UNL     1      -5.425   7.614   1.721  0.00  0.00    -0.126 OA
ENDBRANCH   6  29
TORSDOF 2
