REMARK  Name = ZINC59394425
REMARK  7 active torsions:
REMARK  status: ('A' for Active; 'I' for Inactive)
REMARK    1  A    between atoms: C_3  and  C_11
REMARK    2  A    between atoms: C_5  and  C_7
REMARK    3  A    between atoms: C_11  and  N_12
REMARK    4  A    between atoms: C_15  and  N_18
REMARK    5  A    between atoms: N_18  and  C_19
REMARK    6  A    between atoms: C_22  and  N_28
REMARK    7  A    between atoms: C_24  and  N_25
REMARK                            x       y       z     vdW  Elec       q    Type
REMARK                         _______ _______ _______ _____ _____    ______ ____
ROOT
ATOM      1  N   UNL     1       5.225   1.679   1.421  0.00  0.00    +0.382 N 
ATOM      2  C   UNL     1       4.060   2.425   1.911  0.00  0.00    -0.077 C 
ATOM      3  C   UNL     1       4.263   2.784   3.385  0.00  0.00    +0.003 C 
ATOM      4  C   UNL     1       5.521   3.646   3.526  0.00  0.00    +0.067 C 
ATOM      5  C   UNL     1       6.717   2.887   2.944  0.00  0.00    +0.003 C 
ATOM      6  C   UNL     1       6.423   2.525   1.486  0.00  0.00    -0.077 C 
ATOM      7  H   UNL     1       5.362   0.859   1.992  0.00  0.00    -0.081 HD
ENDROOT
BRANCH   4   8
ATOM      8  N   UNL     1       5.764   3.929   4.943  0.00  0.00    -0.339 N 
ATOM      9  H   UNL     1       5.424   3.327   5.623  0.00  0.00    +0.146 HD
BRANCH   8  10
ATOM     10  C   UNL     1       6.484   5.067   5.314  0.00  0.00    +0.058 A 
ATOM     11  C   UNL     1       7.076   5.864   4.343  0.00  0.00    +0.027 A 
ATOM     12  C   UNL     1       7.788   6.988   4.713  0.00  0.00    +0.034 A 
ATOM     13  C   UNL     1       7.912   7.320   6.050  0.00  0.00    +0.128 A 
ATOM     14  C   UNL     1       7.324   6.529   7.019  0.00  0.00    +0.067 A 
ATOM     15  C   UNL     1       6.606   5.407   6.655  0.00  0.00    +0.149 A 
BRANCH  15  16
ATOM     16  N   UNL     1       5.973   4.563   7.694  0.00  0.00    +0.058 N 
ATOM     17  O   UNL     1       4.891   4.063   7.489  0.00  0.00    -0.126 OA
ATOM     18  O   UNL     1       6.536   4.375   8.747  0.00  0.00    -0.126 OA
ENDBRANCH  15  16
BRANCH  13  19
ATOM     19  N   UNL     1       8.675   8.526   6.443  0.00  0.00    +0.056 N 
ATOM     20  O   UNL     1       9.190   9.218   5.596  0.00  0.00    -0.126 OA
ATOM     21  O   UNL     1       8.785   8.818   7.611  0.00  0.00    -0.126 OA
ENDBRANCH  13  19
ENDBRANCH   8  10
ENDBRANCH   4   8
BRANCH   1  22
ATOM     22  C   UNL     1       4.992   1.270   0.029  0.00  0.00    -0.043 C 
BRANCH  22  25
ATOM     23  C   UNL     1       1.489  -0.112  -0.239  0.00  0.00    +0.001 A 
ATOM     24  C   UNL     1       2.549   0.775  -0.190  0.00  0.00    +0.002 A 
ATOM     25  C   UNL     1       3.837   0.303  -0.024  0.00  0.00    -0.063 A 
ATOM     26  C   UNL     1       4.067  -1.055   0.093  0.00  0.00    +0.014 A 
ATOM     27  C   UNL     1       3.007  -1.941   0.044  0.00  0.00    +0.055 A 
ATOM     28  C   UNL     1       1.718  -1.470  -0.123  0.00  0.00    +0.012 A 
BRANCH  27  29
ATOM     29  C   UNL     1       3.258  -3.422   0.171  0.00  0.00    +0.417 C 
ATOM     30  F   UNL     1       3.200  -3.791   1.519  0.00  0.00    -0.166 F 
ATOM     31  F   UNL     1       2.282  -4.123  -0.546  0.00  0.00    -0.166 F 
ATOM     32  F   UNL     1       4.523  -3.727  -0.343  0.00  0.00    -0.166 F 
ENDBRANCH  27  29
ENDBRANCH  22  25
ENDBRANCH   1  22
TORSDOF 7
