REMARK  Name = ZINC39678297
REMARK  5 active torsions:
REMARK  status: ('A' for Active; 'I' for Inactive)
REMARK    1  A    between atoms: C_4  and  N_32
REMARK    2  A    between atoms: C_5  and  C_7
REMARK    3  A    between atoms: C_7  and  N_8
REMARK    4  A    between atoms: C_9  and  C_11
REMARK    5  A    between atoms: C_22  and  C_24
REMARK                            x       y       z     vdW  Elec       q    Type
REMARK                         _______ _______ _______ _____ _____    ______ ____
ROOT
ATOM      1  C   UNL     1       1.436  -4.771   2.107  0.00  0.00    +0.100 C 
ATOM      2  C   UNL     1       0.642  -4.094   3.247  0.00  0.00    +0.121 C 
ATOM      3  N   UNL     1      -0.323  -5.125   3.694  0.00  0.00    -0.296 N 
ATOM      4  C   UNL     1       0.444  -6.393   3.650  0.00  0.00    +0.115 C 
ATOM      5  C   UNL     1       1.307  -6.279   2.377  0.00  0.00    -0.004 C 
ATOM      6  C   UNL     1       2.683  -6.893   2.616  0.00  0.00    -0.010 C 
ATOM      7  C   UNL     1       2.534  -8.403   2.824  0.00  0.00    -0.082 C 
ATOM      8  N   UNL     1       1.907  -9.002   1.640  0.00  0.00    +0.379 N 
ATOM      9  C   UNL     1       0.548  -8.474   1.472  0.00  0.00    -0.082 C 
ATOM     10  C   UNL     1       0.613  -6.968   1.207  0.00  0.00    -0.010 C 
ATOM     11  C   UNL     1      -1.609  -4.950   4.059  0.00  0.00    +0.248 C 
ATOM     12  O   UNL     1      -2.253  -5.888   4.485  0.00  0.00    -0.270 OA
ATOM     13  H   UNL     1       2.455  -8.782   0.823  0.00  0.00    -0.086 HD
ATOM     14  H   UNL     1       1.865 -10.004   1.754  0.00  0.00    -0.086 HD
ENDROOT
BRANCH  11  15
ATOM     15  C   UNL     1      -2.236  -3.617   3.941  0.00  0.00    +0.057 A 
ATOM     16  C   UNL     1      -1.519  -2.471   4.292  0.00  0.00    +0.014 A 
ATOM     17  C   UNL     1      -2.108  -1.230   4.180  0.00  0.00    +0.002 A 
ATOM     18  C   UNL     1      -3.409  -1.116   3.720  0.00  0.00    +0.021 A 
ATOM     19  C   UNL     1      -4.127  -2.246   3.370  0.00  0.00    +0.060 A 
ATOM     20  C   UNL     1      -3.546  -3.496   3.472  0.00  0.00    +0.071 A 
ATOM     21 CL   UNL     1      -4.444  -4.913   3.025  0.00  0.00    -0.081 Cl
ATOM     22 CL   UNL     1      -5.758  -2.092   2.795  0.00  0.00    -0.082 Cl
ENDBRANCH  11  15
BRANCH   1  24
ATOM     23  N   UNL     1       1.633  -4.088  -0.262  0.00  0.00    -0.311 N 
ATOM     24  C   UNL     1       0.834  -4.423   0.770  0.00  0.00    +0.218 C 
ATOM     25  O   UNL     1      -0.369  -4.446   0.623  0.00  0.00    -0.275 OA
ATOM     26  H   UNL     1       2.596  -4.070  -0.144  0.00  0.00    +0.149 HD
BRANCH  23  27
ATOM     27  C   UNL     1       1.048  -3.750  -1.562  0.00  0.00    +0.141 C 
BRANCH  27  32
ATOM     28  C   UNL     1       3.458  -1.787  -3.705  0.00  0.00    +0.000 A 
ATOM     29  C   UNL     1       4.168  -2.798  -4.327  0.00  0.00    +0.002 A 
ATOM     30  C   UNL     1       3.871  -4.119  -4.058  0.00  0.00    +0.023 A 
ATOM     31  C   UNL     1       2.858  -4.433  -3.160  0.00  0.00    +0.034 A 
ATOM     32  C   UNL     1       2.148  -3.415  -2.536  0.00  0.00    -0.009 A 
ATOM     33  C   UNL     1       2.450  -2.095  -2.811  0.00  0.00    +0.007 A 
BRANCH  31  34
ATOM     34  N   UNL     1       2.555  -5.768  -2.885  0.00  0.00    -0.330 N 
ATOM     35  C   UNL     1       1.559  -6.490  -3.688  0.00  0.00    +0.105 C 
ATOM     36  C   UNL     1       2.194  -7.780  -4.217  0.00  0.00    +0.019 C 
ATOM     37  C   UNL     1       2.758  -8.585  -3.044  0.00  0.00    +0.003 C 
ATOM     38  C   UNL     1       3.842  -7.768  -2.337  0.00  0.00    +0.019 C 
ATOM     39  C   UNL     1       3.231  -6.479  -1.791  0.00  0.00    +0.105 C 
ENDBRANCH  31  34
ENDBRANCH  27  32
ENDBRANCH  23  27
ENDBRANCH   1  24
TORSDOF 5
