REMARK  Name = ZINC40824742
REMARK  4 active torsions:
REMARK  status: ('A' for Active; 'I' for Inactive)
REMARK    1  A    between atoms: C_1  and  C_2
REMARK    2  A    between atoms: C_6  and  C_7
REMARK    3  A    between atoms: N_9  and  C_10
REMARK    4  A    between atoms: N_22  and  N_23
REMARK                            x       y       z     vdW  Elec       q    Type
REMARK                         _______ _______ _______ _____ _____    ______ ____
ROOT
ATOM      1  C   UNL     1      -0.040   1.504   0.012  0.00  0.00    +0.048 C 
ATOM      2  C   UNL     1      -0.022  -0.003   0.003  0.00  0.00    +0.009 A 
ATOM      3  C   UNL     1      -0.025  -0.837  -1.122  0.00  0.00    +0.042 A 
ATOM      4  C   UNL     1      -0.006  -2.136  -0.673  0.00  0.00    +0.115 A 
ATOM      5  O   UNL     1       0.012  -2.111   0.658  0.00  0.00    -0.454 OA
ATOM      6  C   UNL     1       0.007  -0.830   1.091  0.00  0.00    +0.193 A 
ATOM      7  C   UNL     1      -0.008  -3.325  -1.600  0.00  0.00    +0.075 C 
ATOM      8  C   UNL     1      -0.543  -2.900  -2.970  0.00  0.00    +0.014 C 
ATOM      9  C   UNL     1       0.226  -1.683  -3.497  0.00  0.00    +0.058 C 
ATOM     10  C   UNL     1      -0.043  -0.510  -2.566  0.00  0.00    +0.072 C 
ATOM     11  N   UNL     1      -0.273   0.688  -3.005  0.00  0.00    -0.175 NA
ENDROOT
BRANCH  11  12
ATOM     12  N   UNL     1      -0.278   0.940  -4.383  0.00  0.00    -0.248 N 
ATOM     13  C   UNL     1      -0.520   2.205  -4.847  0.00  0.00    +0.187 C 
ATOM     14  N   UNL     1      -0.525   2.445  -6.158  0.00  0.00    -0.370 N 
ATOM     15  N   UNL     1      -0.751   3.197  -3.987  0.00  0.00    -0.370 N 
ATOM     16  H   UNL     1      -0.110   0.218  -5.009  0.00  0.00    +0.192 HD
ATOM     17  H   UNL     1      -0.357   1.723  -6.783  0.00  0.00    +0.159 HD
ATOM     18  H   UNL     1      -0.747   3.023  -3.033  0.00  0.00    +0.159 HD
ATOM     19  H   UNL     1      -0.922   4.094  -4.316  0.00  0.00    +0.159 HD
ATOM     20  H   UNL     1      -0.697   3.341  -6.486  0.00  0.00    +0.159 HD
ENDBRANCH  11  12
BRANCH   6  21
ATOM     21  C   UNL     1       0.025  -0.400   2.494  0.00  0.00    +0.284 C 
ATOM     22  O   UNL     1       0.015   0.786   2.767  0.00  0.00    -0.266 OA
ATOM     23  N   UNL     1       0.054  -1.318   3.480  0.00  0.00    -0.278 N 
ATOM     24  H   UNL     1      -0.004  -2.262   3.265  0.00  0.00    +0.155 HD
BRANCH  23  25
ATOM     25  C   UNL     1       0.166  -0.909   4.814  0.00  0.00    +0.052 A 
ATOM     26  C   UNL     1      -0.438   0.269   5.233  0.00  0.00    +0.026 A 
ATOM     27  C   UNL     1      -0.326   0.670   6.550  0.00  0.00    +0.022 A 
ATOM     28  C   UNL     1       0.388  -0.100   7.452  0.00  0.00    +0.042 A 
ATOM     29  C   UNL     1       0.992  -1.274   7.037  0.00  0.00    +0.041 A 
ATOM     30  C   UNL     1       0.878  -1.683   5.722  0.00  0.00    +0.064 A 
ATOM     31 CL   UNL     1       1.629  -3.160   5.203  0.00  0.00    -0.082 Cl
ATOM     32 CL   UNL     1       0.527   0.408   9.106  0.00  0.00    -0.083 Cl
ENDBRANCH  23  25
ENDBRANCH   6  21
TORSDOF 3
