REMARK  Name = ZINC11840656
REMARK  12 active torsions:
REMARK  status: ('A' for Active; 'I' for Inactive)
REMARK    1  A    between atoms: C_1  and  C_2
REMARK    2  A    between atoms: C_2  and  N_3
REMARK    3  A    between atoms: N_3  and  C_4
REMARK    4  A    between atoms: C_4  and  C_6
REMARK    5  A    between atoms: C_4  and  C_13
REMARK    6  A    between atoms: C_6  and  C_7
REMARK    7  A    between atoms: C_18  and  C_19
REMARK    8  A    between atoms: C_18  and  N_77
REMARK    9  A    between atoms: C_24  and  O_25
REMARK   10  A    between atoms: O_25  and  C_26
REMARK   11  A    between atoms: C_26  and  C_27
REMARK   12  A    between atoms: C_28  and  C_30
REMARK                            x       y       z     vdW  Elec       q    Type
REMARK                         _______ _______ _______ _____ _____    ______ ____
ROOT
ATOM      1  C   UNL     1      -4.855   0.235  -4.924  0.00  0.00    +0.083 C 
ENDROOT
BRANCH   1   2
ATOM      2  C   UNL     1      -5.571  -0.902  -4.192  0.00  0.00    +0.006 C 
ATOM      3  C   UNL     1      -6.095  -0.394  -2.846  0.00  0.00    -0.013 C 
ATOM      4  C   UNL     1      -6.757  -1.550  -2.092  0.00  0.00    -0.078 C 
ATOM      5  C   UNL     1      -5.296  -3.160  -3.162  0.00  0.00    -0.078 C 
ATOM      6  C   UNL     1      -4.590  -2.053  -3.947  0.00  0.00    -0.013 C 
ATOM      7  N   UNL     1      -5.755  -2.613  -1.867  0.00  0.00    +0.382 N 
ATOM      8  H   UNL     1      -4.950  -2.212  -1.371  0.00  0.00    -0.081 HD
BRANCH   7   9
ATOM      9  C   UNL     1      -6.339  -3.691  -1.043  0.00  0.00    -0.039 C 
BRANCH   9  10
ATOM     10  C   UNL     1      -5.410  -4.877  -1.051  0.00  0.00    -0.022 A 
ATOM     11  C   UNL     1      -5.680  -5.962  -1.863  0.00  0.00    +0.005 A 
ATOM     12  C   UNL     1      -4.828  -7.050  -1.871  0.00  0.00    +0.000 A 
ATOM     13  C   UNL     1      -3.703  -7.056  -1.067  0.00  0.00    +0.004 A 
ATOM     14  C   UNL     1      -3.426  -5.973  -0.257  0.00  0.00    +0.046 A 
ATOM     15  C   UNL     1      -4.282  -4.881  -0.242  0.00  0.00    +0.122 A 
BRANCH  15  16
ATOM     16  O   UNL     1      -4.015  -3.816   0.558  0.00  0.00    -0.492 OA
BRANCH  16  17
ATOM     17  C   UNL     1      -2.836  -3.889   1.363  0.00  0.00    +0.225 C 
ATOM     18  C   UNL     1      -2.703  -2.609   2.189  0.00  0.00    +0.048 C 
ENDBRANCH  16  17
ENDBRANCH  15  16
ENDBRANCH   9  10
ENDBRANCH   7   9
ENDBRANCH   1   2
BRANCH   1  19
ATOM     19  N   UNL     1      -4.529  -0.191  -6.287  0.00  0.00    -0.298 N 
ATOM     20  C   UNL     1      -5.071   0.451  -7.341  0.00  0.00    +0.219 C 
ATOM     21  O   UNL     1      -5.876   1.340  -7.162  0.00  0.00    -0.275 OA
BRANCH  20  22
ATOM     22  C   UNL     1      -4.676   0.064  -8.743  0.00  0.00    +0.079 C 
ATOM     23  C   UNL     1      -3.316   0.681  -9.082  0.00  0.00    +0.041 C 
ATOM     24  C   UNL     1      -2.960   0.348 -10.533  0.00  0.00    +0.160 C 
ATOM     25  O   UNL     1      -3.988   0.835 -11.398  0.00  0.00    -0.380 OA
ATOM     26  C   UNL     1      -5.274   0.258 -11.159  0.00  0.00    +0.160 C 
ATOM     27  C   UNL     1      -5.722   0.587  -9.733  0.00  0.00    +0.041 C 
ENDBRANCH  20  22
BRANCH  19  29
ATOM     28  C   UNL     1      -4.416  -2.550  -6.923  0.00  0.00    +0.024 C 
ATOM     29  C   UNL     1      -3.615  -1.315  -6.505  0.00  0.00    +0.105 C 
ENDBRANCH  19  29
ENDBRANCH   1  19
BRANCH   1  30
ATOM     30  C   UNL     1      -3.567   0.590  -4.179  0.00  0.00    +0.058 C 
BRANCH  30  31
ATOM     31  C   UNL     1      -2.925   1.788  -4.829  0.00  0.00    -0.046 A 
ATOM     32  C   UNL     1      -2.007   1.614  -5.848  0.00  0.00    +0.004 A 
ATOM     33  C   UNL     1      -1.423   2.714  -6.448  0.00  0.00    +0.000 A 
ATOM     34  C   UNL     1      -1.747   3.988  -6.021  0.00  0.00    +0.000 A 
ATOM     35  C   UNL     1      -2.660   4.162  -4.997  0.00  0.00    +0.000 A 
ATOM     36  C   UNL     1      -3.249   3.062  -4.402  0.00  0.00    +0.004 A 
ENDBRANCH  30  31
ENDBRANCH   1  30
TORSDOF 10
