REMARK  Name = ZINC51149700
REMARK  5 active torsions:
REMARK  status: ('A' for Active; 'I' for Inactive)
REMARK    1  A    between atoms: C_8  and  C_13
REMARK    2  A    between atoms: C_9  and  N_11
REMARK    3  A    between atoms: N_11  and  N_12
REMARK    4  A    between atoms: C_13  and  O_14
REMARK    5  A    between atoms: O_14  and  C_15
REMARK                            x       y       z     vdW  Elec       q    Type
REMARK                         _______ _______ _______ _____ _____    ______ ____
ROOT
ATOM      1  C   UNL     1      -0.016   1.358   0.009  0.00  0.00    +0.001 A 
ATOM      2  C   UNL     1       1.169   2.088   0.002  0.00  0.00    +0.002 A 
ATOM      3  C   UNL     1       2.379   1.463  -0.013  0.00  0.00    +0.028 A 
ATOM      4  C   UNL     1       2.438   0.059  -0.021  0.00  0.00    +0.073 A 
ATOM      5  C   UNL     1       1.231  -0.681  -0.013  0.00  0.00    +0.001 A 
ATOM      6  C   UNL     1       0.002  -0.004   0.002  0.00  0.00    +0.010 A 
ATOM      7  C   UNL     1       1.290  -2.090  -0.021  0.00  0.00    +0.020 A 
ATOM      8  C   UNL     1       2.516  -2.685  -0.037  0.00  0.00    +0.031 A 
ATOM      9  C   UNL     1       3.675  -1.896  -0.044  0.00  0.00    +0.139 A 
ATOM     10  N   UNL     1       3.613  -0.580  -0.036  0.00  0.00    -0.231 NA
ENDROOT
BRANCH   9  11
ATOM     11  N   UNL     1       4.916  -2.516  -0.060  0.00  0.00    -0.267 N 
ATOM     12  H   UNL     1       4.974  -3.484  -0.066  0.00  0.00    +0.167 HD
BRANCH  11  13
ATOM     13  N   UNL     1       6.055  -1.762  -0.067  0.00  0.00    -0.255 NA
ATOM     14  H   UNL     1       6.876  -2.349  -0.078  0.00  0.00    +0.140 HD
ATOM     15  H   UNL     1       6.059  -1.120  -0.845  0.00  0.00    +0.140 HD
ENDBRANCH  11  13
ENDBRANCH   9  11
BRANCH   8  16
ATOM     16  C   UNL     1       2.626  -4.188  -0.045  0.00  0.00    +0.268 C 
BRANCH  16  17
ATOM     17  O   UNL     1       1.317  -4.761  -0.035  0.00  0.00    -0.486 OA
BRANCH  17  18
ATOM     18  C   UNL     1       1.237  -6.118  -0.041  0.00  0.00    +0.134 A 
ATOM     19  C   UNL     1       2.395  -6.882  -0.051  0.00  0.00    +0.047 A 
ATOM     20  C   UNL     1       2.312  -8.260  -0.057  0.00  0.00    +0.004 A 
ATOM     21  C   UNL     1       1.075  -8.880  -0.054  0.00  0.00    +0.001 A 
ATOM     22  C   UNL     1      -0.081  -8.121  -0.044  0.00  0.00    +0.018 A 
ATOM     23  C   UNL     1      -0.003  -6.741  -0.032  0.00  0.00    +0.055 A 
ATOM     24  I   UNL     1      -1.754  -5.592  -0.008  0.00  0.00    -0.040 I 
ENDBRANCH  17  18
ENDBRANCH  16  17
ENDBRANCH   8  16
TORSDOF 5
