REMARK  Name = ZINC67188486
REMARK  9 active torsions:
REMARK  status: ('A' for Active; 'I' for Inactive)
REMARK    1  A    between atoms: C_1  and  C_2
REMARK    2  A    between atoms: N_8  and  C_9
REMARK    3  A    between atoms: C_9  and  C_10
REMARK    4  A    between atoms: C_13  and  C_16
REMARK    5  A    between atoms: C_16  and  N_17
REMARK    6  A    between atoms: N_17  and  C_18
REMARK    7  A    between atoms: C_18  and  C_19
REMARK    8  A    between atoms: N_21  and  C_30
REMARK    9  A    between atoms: C_23  and  C_24
REMARK                            x       y       z     vdW  Elec       q    Type
REMARK                         _______ _______ _______ _____ _____    ______ ____
ROOT
ATOM      1  C   UNL     1       4.967  -1.718   6.090  0.00  0.00    -0.046 C 
ENDROOT
BRANCH   1   5
ATOM      2  C   UNL     1       3.328  -0.987   2.214  0.00  0.00    -0.064 A 
ATOM      3  C   UNL     1       3.150  -0.062   3.225  0.00  0.00    +0.002 A 
ATOM      4  C   UNL     1       3.680  -0.298   4.480  0.00  0.00    +0.002 A 
ATOM      5  C   UNL     1       4.388  -1.460   4.723  0.00  0.00    -0.064 A 
ATOM      6  C   UNL     1       4.565  -2.386   3.711  0.00  0.00    +0.002 A 
ATOM      7  C   UNL     1       4.031  -2.151   2.458  0.00  0.00    +0.002 A 
BRANCH   2   8
ATOM      8  C   UNL     1       2.750  -0.729   0.846  0.00  0.00    -0.043 C 
BRANCH   8  15
ATOM      9  C   UNL     1       0.804   0.601  -0.680  0.00  0.00    -0.013 C 
ATOM     10  C   UNL     1       0.782  -0.919  -0.510  0.00  0.00    -0.071 C 
ATOM     11  C   UNL     1      -0.664  -1.416  -0.552  0.00  0.00    -0.016 C 
ATOM     12  C   UNL     1      -0.681  -2.937  -0.381  0.00  0.00    -0.003 C 
ATOM     13  C   UNL     1       0.020  -3.302   0.931  0.00  0.00    -0.019 C 
ATOM     14  C   UNL     1       1.441  -2.735   0.918  0.00  0.00    -0.078 C 
ATOM     15  N   UNL     1       1.388  -1.275   0.779  0.00  0.00    +0.384 N 
ATOM     16  H   UNL     1       0.835  -0.886   1.528  0.00  0.00    -0.081 HD
ENDBRANCH   8  15
ENDBRANCH   2   8
ENDBRANCH   1   5
BRANCH   1  17
ATOM     17  N   UNL     1       3.983  -2.437   6.911  0.00  0.00    +0.384 N 
ATOM     18  H   UNL     1       3.147  -1.879   6.999  0.00  0.00    -0.085 HD
ATOM     19  H   UNL     1       3.756  -3.316   6.471  0.00  0.00    -0.085 HD
BRANCH  17  20
ATOM     20  C   UNL     1       4.548  -2.688   8.244  0.00  0.00    -0.043 C 
BRANCH  20  21
ATOM     21  C   UNL     1       3.541  -3.431   9.084  0.00  0.00    -0.019 A 
ATOM     22  C   UNL     1       2.770  -2.900  10.057  0.00  0.00    +0.110 A 
ATOM     23  N   UNL     1       2.005  -3.888  10.569  0.00  0.00    -0.274 N 
ATOM     24  N   UNL     1       2.311  -5.074   9.889  0.00  0.00    -0.171 NA
ATOM     25  C   UNL     1       3.233  -4.802   8.989  0.00  0.00    +0.094 A 
ATOM     26  C   UNL     1       1.024  -3.744  11.647  0.00  0.00    +0.172 C 
BRANCH  25  27
ATOM     27  C   UNL     1       3.842  -5.771   8.044  0.00  0.00    +0.005 A 
ATOM     28  C   UNL     1       5.219  -5.769   7.803  0.00  0.00    +0.030 A 
ATOM     29  C   UNL     1       5.744  -6.687   6.917  0.00  0.00    +0.111 A 
ATOM     30  N   UNL     1       4.965  -7.557   6.302  0.00  0.00    -0.263 NA
ATOM     31  C   UNL     1       3.662  -7.591   6.501  0.00  0.00    +0.111 A 
ATOM     32  C   UNL     1       3.055  -6.713   7.376  0.00  0.00    +0.030 A 
ENDBRANCH  25  27
ENDBRANCH  20  21
ENDBRANCH  17  20
ENDBRANCH   1  17
TORSDOF 7
