REMARK  Name = ZINC08770974
REMARK  16 active torsions:
REMARK  status: ('A' for Active; 'I' for Inactive)
REMARK    1  A    between atoms: C_1  and  C_2
REMARK    2  A    between atoms: C_2  and  C_3
REMARK    3  A    between atoms: C_3  and  C_4
REMARK    4  A    between atoms: C_4  and  N_69
REMARK    5  A    between atoms: C_5  and  C_6
REMARK    6  A    between atoms: C_5  and  N_69
REMARK    7  A    between atoms: C_6  and  C_7
REMARK    8  A    between atoms: C_7  and  C_8
REMARK    9  A    between atoms: C_9  and  C_10
REMARK   10  A    between atoms: C_9  and  N_69
REMARK   11  A    between atoms: C_10  and  C_11
REMARK   12  A    between atoms: C_11  and  N_12
REMARK   13  A    between atoms: C_13  and  C_29
REMARK   14  A    between atoms: C_15  and  C_20
REMARK   15  A    between atoms: C_16  and  O_19
REMARK   16  A    between atoms: C_20  and  C_22
REMARK                            x       y       z     vdW  Elec       q    Type
REMARK                         _______ _______ _______ _____ _____    ______ ____
ROOT
ATOM      1  N   UNL     1       0.284  -2.814  -3.179  0.00  0.00    -0.284 N 
ATOM      2  C   UNL     1       1.011  -3.979  -2.662  0.00  0.00    +0.147 C 
ATOM      3  C   UNL     1       0.187  -5.190  -3.034  0.00  0.00    +0.071 C 
ATOM      4  C   UNL     1      -0.896  -4.733  -3.706  0.00  0.00    +0.188 C 
ATOM      5  C   UNL     1      -0.829  -3.259  -3.791  0.00  0.00    +0.282 C 
ATOM      6  O   UNL     1      -1.656  -2.553  -4.333  0.00  0.00    -0.267 OA
ENDROOT
BRANCH   2   7
ATOM      7  C   UNL     1       2.375  -4.062  -3.298  0.00  0.00    +0.013 A 
ATOM      8  C   UNL     1       2.589  -3.516  -4.550  0.00  0.00    +0.008 A 
ATOM      9  C   UNL     1       3.841  -3.587  -5.130  0.00  0.00    +0.001 A 
ATOM     10  C   UNL     1       4.878  -4.213  -4.465  0.00  0.00    +0.003 A 
ATOM     11  C   UNL     1       4.666  -4.765  -3.216  0.00  0.00    +0.039 A 
ATOM     12  C   UNL     1       3.413  -4.690  -2.631  0.00  0.00    +0.129 A 
ATOM     13  F   UNL     1       3.204  -5.229  -1.410  0.00  0.00    -0.205 F 
ENDBRANCH   2   7
BRANCH   4  14
ATOM     14  O   UNL     1      -1.883  -5.504  -4.217  0.00  0.00    -0.502 OA
ATOM     15  H   UNL     1      -2.563  -4.921  -4.663  0.00  0.00    +0.292 HD
ENDBRANCH   4  14
BRANCH   3  16
ATOM     16  C   UNL     1       0.503  -6.589  -2.732  0.00  0.00    +0.195 C 
ATOM     17  O   UNL     1       0.760  -7.363  -3.635  0.00  0.00    -0.287 OA
BRANCH  16  18
ATOM     18  C   UNL     1       0.509  -7.059  -1.331  0.00  0.00    +0.022 A 
ATOM     19  C   UNL     1       0.104  -6.204  -0.303  0.00  0.00    +0.013 A 
ATOM     20  C   UNL     1       0.106  -6.651   1.002  0.00  0.00    +0.016 A 
ATOM     21  C   UNL     1       0.520  -7.940   1.295  0.00  0.00    +0.018 A 
ATOM     22  C   UNL     1       0.927  -8.790   0.281  0.00  0.00    +0.016 A 
ATOM     23  C   UNL     1       0.924  -8.358  -1.029  0.00  0.00    +0.013 A 
ATOM     24 BR   UNL     1       0.527  -8.542   3.088  0.00  0.00    -0.050 Br
ENDBRANCH  16  18
ENDBRANCH   3  16
BRANCH   1  25
ATOM     25  C   UNL     1       0.699  -1.414  -3.055  0.00  0.00    +0.107 C 
BRANCH  25  26
ATOM     26  C   UNL     1       0.118  -0.822  -1.769  0.00  0.00    +0.000 C 
BRANCH  26  27
ATOM     27  C   UNL     1       0.551   0.640  -1.640  0.00  0.00    -0.077 C 
BRANCH  27  28
ATOM     28  N   UNL     1      -0.035   1.203  -0.406  0.00  0.00    +0.380 N 
ATOM     29  H   UNL     1      -1.045   1.018  -0.401  0.00  0.00    -0.082 HD
BRANCH  28  30
ATOM     30  C   UNL     1       0.575   0.565   0.780  0.00  0.00    -0.079 C 
BRANCH  30  31
ATOM     31  C   UNL     1      -0.340   0.794   1.985  0.00  0.00    -0.019 C 
BRANCH  31  33
ATOM     32  C   UNL     1      -0.629   0.388   4.433  0.00  0.00    +0.004 C 
ATOM     33  C   UNL     1       0.286   0.160   3.228  0.00  0.00    -0.005 C 
ENDBRANCH  31  33
ENDBRANCH  30  31
ENDBRANCH  28  30
BRANCH  28  34
ATOM     34  C   UNL     1       0.185   2.664  -0.363  0.00  0.00    -0.079 C 
BRANCH  34  35
ATOM     35  C   UNL     1      -0.764   3.333  -1.359  0.00  0.00    -0.019 C 
BRANCH  35  36
ATOM     36  C   UNL     1      -0.660   4.854  -1.219  0.00  0.00    -0.005 C 
ATOM     37  C   UNL     1      -1.609   5.523  -2.215  0.00  0.00    +0.004 C 
ENDBRANCH  35  36
ENDBRANCH  34  35
ENDBRANCH  28  34
ENDBRANCH  27  28
ENDBRANCH  26  27
ENDBRANCH  25  26
ENDBRANCH   1  25
TORSDOF 14
