REMARK  Name = ZINC20153266
REMARK  8 active torsions:
REMARK  status: ('A' for Active; 'I' for Inactive)
REMARK    1  A    between atoms: C_1  and  C_2
REMARK    2  A    between atoms: N_5  and  C_8
REMARK    3  A    between atoms: C_11  and  N_30
REMARK    4  A    between atoms: C_13  and  C_14
REMARK    5  A    between atoms: N_16  and  C_17
REMARK    6  A    between atoms: C_17  and  N_19
REMARK    7  A    between atoms: N_19  and  C_20
REMARK    8  A    between atoms: C_23  and  C_27
REMARK                            x       y       z     vdW  Elec       q    Type
REMARK                         _______ _______ _______ _____ _____    ______ ____
ROOT
ATOM      1  C   UNL     1      -0.993  -1.617   3.883  0.00  0.00    +0.251 C 
ATOM      2  O   UNL     1      -0.356  -0.793   3.256  0.00  0.00    -0.270 OA
ATOM      3  N   UNL     1      -1.793  -1.224   4.894  0.00  0.00    -0.264 N 
ATOM      4  H   UNL     1      -2.301  -1.882   5.394  0.00  0.00    +0.157 HD
ENDROOT
BRANCH   1  10
ATOM      5  C   UNL     1       0.025  -3.473   2.563  0.00  0.00    +0.042 A 
ATOM      6  C   UNL     1       0.116  -4.824   2.250  0.00  0.00    +0.026 A 
ATOM      7  C   UNL     1      -0.694  -5.738   2.892  0.00  0.00    +0.034 A 
ATOM      8  C   UNL     1      -1.603  -5.319   3.850  0.00  0.00    +0.127 A 
ATOM      9  C   UNL     1      -1.708  -3.984   4.174  0.00  0.00    +0.047 A 
ATOM     10  C   UNL     1      -0.890  -3.046   3.538  0.00  0.00    +0.060 A 
BRANCH   5  15
ATOM     11  C   UNL     1       3.985  -1.791  -0.845  0.00  0.00    +0.007 C 
ATOM     12  C   UNL     1       2.866  -1.612   0.183  0.00  0.00    -0.011 C 
ATOM     13  C   UNL     1       3.230  -2.358   1.468  0.00  0.00    +0.022 C 
ATOM     14  C   UNL     1       2.124  -2.147   2.507  0.00  0.00    +0.105 C 
ATOM     15  N   UNL     1       0.840  -2.551   1.919  0.00  0.00    -0.329 N 
ATOM     16  C   UNL     1       0.434  -1.962   0.635  0.00  0.00    +0.105 C 
ATOM     17  C   UNL     1       1.559  -2.174  -0.382  0.00  0.00    +0.022 C 
ENDBRANCH   5  15
BRANCH   8  18
ATOM     18  N   UNL     1      -2.467  -6.311   4.530  0.00  0.00    +0.056 N 
ATOM     19  O   UNL     1      -2.378  -7.483   4.248  0.00  0.00    -0.126 OA
ATOM     20  O   UNL     1      -3.261  -5.949   5.366  0.00  0.00    -0.126 OA
ENDBRANCH   8  18
ENDBRANCH   1  10
BRANCH   3  21
ATOM     21  C   UNL     1      -1.887   0.083   5.210  0.00  0.00    +0.141 C 
ATOM     22  S   UNL     1      -0.990   1.243   4.327  0.00  0.00    -0.018 S 
BRANCH  21  23
ATOM     23  N   UNL     1      -2.687   0.476   6.221  0.00  0.00    -0.297 N 
ATOM     24  H   UNL     1      -3.147  -0.186   6.760  0.00  0.00    +0.154 HD
BRANCH  23  25
ATOM     25  C   UNL     1      -2.852   1.832   6.491  0.00  0.00    +0.034 A 
ATOM     26  C   UNL     1      -4.125   2.342   6.732  0.00  0.00    +0.024 A 
ATOM     27  C   UNL     1      -4.295   3.670   6.997  0.00  0.00    +0.018 A 
ATOM     28  C   UNL     1      -3.188   4.526   7.029  0.00  0.00    +0.082 A 
ATOM     29  C   UNL     1      -1.906   4.015   6.788  0.00  0.00    +0.057 A 
ATOM     30  C   UNL     1      -1.743   2.672   6.526  0.00  0.00    +0.044 A 
ATOM     31 CL   UNL     1      -0.527   5.069   6.825  0.00  0.00    -0.083 Cl
BRANCH  28  32
ATOM     32  C   UNL     1      -3.370   5.958   7.315  0.00  0.00    +0.388 C 
ATOM     33  O   UNL     1      -4.490   6.402   7.525  0.00  0.00    -0.241 OA
ATOM     34  O   UNL     1      -2.401   6.704   7.343  0.00  0.00    -0.241 OA
ENDBRANCH  28  32
ENDBRANCH  23  25
ENDBRANCH  21  23
ENDBRANCH   3  21
TORSDOF 7
