REMARK  Name = ZINC33051022
REMARK  6 active torsions:
REMARK  status: ('A' for Active; 'I' for Inactive)
REMARK    1  A    between atoms: C_1  and  C_2
REMARK    2  A    between atoms: C_2  and  C_3
REMARK    3  A    between atoms: N_6  and  C_8
REMARK    4  A    between atoms: C_19  and  C_34
REMARK    5  A    between atoms: N_25  and  C_26
REMARK    6  A    between atoms: C_26  and  C_27
REMARK                            x       y       z     vdW  Elec       q    Type
REMARK                         _______ _______ _______ _____ _____    ______ ____
ROOT
ATOM      1  C   UNL     1      -4.142   5.489   0.530  0.00  0.00    +0.070 A 
ATOM      2  C   UNL     1      -4.660   4.522  -0.326  0.00  0.00    +0.036 A 
ATOM      3  C   UNL     1      -3.669   3.614  -0.567  0.00  0.00    +0.146 A 
ATOM      4  N   UNL     1      -2.589   3.970   0.152  0.00  0.00    -0.215 N 
ATOM      5  N   UNL     1      -2.902   5.167   0.817  0.00  0.00    -0.169 NA
ATOM      6  N   UNL     1      -3.873   2.564  -1.470  0.00  0.00    -0.303 N 
ATOM      7  C   UNL     1      -3.578   1.247  -1.373  0.00  0.00    +0.093 A 
ATOM      8  C   UNL     1      -4.069   0.630  -2.471  0.00  0.00    +0.020 A 
ATOM      9  C   UNL     1      -4.665   1.619  -3.284  0.00  0.00    +0.025 A 
ATOM     10  C   UNL     1      -4.502   2.799  -2.667  0.00  0.00    +0.050 A 
ATOM     11  C   UNL     1      -4.899   4.170  -3.132  0.00  0.00    +0.155 C 
ATOM     12  N   UNL     1      -6.046   4.698  -2.356  0.00  0.00    -0.269 N 
ATOM     13  C   UNL     1      -6.040   4.410  -0.903  0.00  0.00    +0.151 C 
ATOM     14  C   UNL     1      -7.038   5.400  -2.940  0.00  0.00    +0.304 C 
ATOM     15  O   UNL     1      -7.008   5.616  -4.136  0.00  0.00    -0.253 OA
ATOM     16  N   UNL     1      -8.063   5.862  -2.197  0.00  0.00    -0.295 N 
ATOM     17  H   UNL     1      -8.091   5.666  -1.115  0.00  0.00    +0.151 HD
ENDROOT
BRANCH  11  18
ATOM     18  C   UNL     1      -3.726   5.102  -2.973  0.00  0.00    -0.021 A 
ATOM     19  C   UNL     1      -3.940   6.440  -2.696  0.00  0.00    +0.008 A 
ATOM     20  C   UNL     1      -2.865   7.295  -2.544  0.00  0.00    +0.038 A 
ATOM     21  C   UNL     1      -1.573   6.814  -2.681  0.00  0.00    +0.123 A 
ATOM     22  C   UNL     1      -1.361   5.475  -2.963  0.00  0.00    +0.038 A 
ATOM     23  C   UNL     1      -2.438   4.621  -3.108  0.00  0.00    +0.008 A 
ATOM     24  F   UNL     1      -0.522   7.650  -2.539  0.00  0.00    -0.205 F 
ENDBRANCH  11  18
BRANCH   4  25
ATOM     25  C   UNL     1      -1.373   3.276   0.221  0.00  0.00    +0.068 A 
ATOM     26  C   UNL     1      -0.867   2.645  -0.908  0.00  0.00    +0.028 A 
ATOM     27  C   UNL     1       0.330   1.959  -0.836  0.00  0.00    +0.002 A 
ATOM     28  C   UNL     1       1.028   1.908   0.356  0.00  0.00    +0.000 A 
ATOM     29  C   UNL     1       0.530   2.540   1.481  0.00  0.00    +0.002 A 
ATOM     30  C   UNL     1      -0.668   3.224   1.416  0.00  0.00    +0.028 A 
ENDBRANCH   4  25
BRANCH   1  32
ATOM     31  C   UNL     1      -4.669   7.870   0.079  0.00  0.00    +0.010 C 
ATOM     32  C   UNL     1      -4.879   6.700   1.042  0.00  0.00    +0.054 C 
ENDBRANCH   1  32
BRANCH  16  33
ATOM     33  C   UNL     1      -9.141   6.625  -2.831  0.00  0.00    +0.141 C 
BRANCH  33  34
ATOM     34  C   UNL     1     -10.155   7.022  -1.789  0.00  0.00    -0.030 A 
ATOM     35  C   UNL     1     -11.225   6.191  -1.515  0.00  0.00    +0.008 A 
ATOM     36  C   UNL     1     -12.153   6.551  -0.556  0.00  0.00    +0.038 A 
ATOM     37  C   UNL     1     -12.017   7.751   0.122  0.00  0.00    +0.123 A 
ATOM     38  C   UNL     1     -10.948   8.585  -0.158  0.00  0.00    +0.038 A 
ATOM     39  C   UNL     1     -10.018   8.220  -1.113  0.00  0.00    +0.008 A 
ATOM     40  F   UNL     1     -12.926   8.107   1.056  0.00  0.00    -0.205 F 
ENDBRANCH  33  34
ENDBRANCH  16  33
TORSDOF 5
