REMARK  Name = ZINC33281356
REMARK  11 active torsions:
REMARK  status: ('A' for Active; 'I' for Inactive)
REMARK    1  A    between atoms: C_1  and  C_2
REMARK    2  A    between atoms: N_10  and  C_11
REMARK    3  A    between atoms: C_11  and  C_12
REMARK    4  A    between atoms: N_14  and  C_15
REMARK    5  A    between atoms: C_18  and  C_21
REMARK    6  A    between atoms: C_21  and  C_23
REMARK    7  A    between atoms: N_26  and  C_29
REMARK    8  A    between atoms: C_29  and  C_30
REMARK    9  A    between atoms: C_32  and  C_35
REMARK   10  A    between atoms: C_35  and  C_36
REMARK   11  A    between atoms: C_35  and  C_37
REMARK                            x       y       z     vdW  Elec       q    Type
REMARK                         _______ _______ _______ _____ _____    ______ ____
ROOT
ATOM      1  C   UNL     1       1.291  -6.443   0.123  0.00  0.00    +0.044 C 
ATOM      2  C   UNL     1       0.597  -5.106   0.087  0.00  0.00    -0.050 A 
ATOM      3  C   UNL     1      -0.789  -5.047   0.133  0.00  0.00    +0.005 A 
ATOM      4  C   UNL     1      -1.441  -3.835   0.102  0.00  0.00    +0.027 A 
ATOM      5  C   UNL     1      -0.706  -2.654   0.023  0.00  0.00    +0.052 A 
ATOM      6  C   UNL     1       0.697  -2.720  -0.024  0.00  0.00    +0.026 A 
ATOM      7  C   UNL     1       1.337  -3.960   0.009  0.00  0.00    +0.015 A 
ATOM      8  C   UNL     1       1.177  -1.334  -0.102  0.00  0.00    +0.103 A 
ATOM      9  C   UNL     1       0.044  -0.523  -0.098  0.00  0.00    +0.134 A 
ATOM     10  N   UNL     1      -1.077  -1.327  -0.023  0.00  0.00    -0.325 N 
ATOM     11  C   UNL     1       0.223   0.878  -0.167  0.00  0.00    +0.279 A 
ATOM     12  O   UNL     1      -0.736   1.631  -0.171  0.00  0.00    -0.265 OA
ATOM     13  N   UNL     1       1.482   1.363  -0.233  0.00  0.00    -0.288 N 
ATOM     14  C   UNL     1       2.545   0.519  -0.232  0.00  0.00    +0.203 A 
ATOM     15  N   UNL     1       2.398  -0.774  -0.170  0.00  0.00    -0.235 NA
ENDROOT
BRANCH  10  16
ATOM     16  C   UNL     1      -2.458  -0.840   0.005  0.00  0.00    +0.218 C 
BRANCH  16  17
ATOM     17  C   UNL     1      -2.982  -0.736  -1.404  0.00  0.00    +0.237 C 
ATOM     18  O   UNL     1      -2.272  -1.038  -2.340  0.00  0.00    -0.274 OA
ATOM     19  N   UNL     1      -4.241  -0.306  -1.625  0.00  0.00    -0.284 N 
ATOM     20  H   UNL     1      -4.913  -0.115  -0.776  0.00  0.00    +0.155 HD
BRANCH  19  21
ATOM     21  C   UNL     1      -4.689  -0.105  -2.929  0.00  0.00    +0.033 A 
ATOM     22  C   UNL     1      -6.020  -0.356  -3.252  0.00  0.00    +0.024 A 
ATOM     23  C   UNL     1      -6.466  -0.155  -4.532  0.00  0.00    +0.013 A 
ATOM     24  C   UNL     1      -5.580   0.295  -5.518  0.00  0.00    +0.017 A 
ATOM     25  C   UNL     1      -4.241   0.542  -5.190  0.00  0.00    +0.013 A 
ATOM     26  C   UNL     1      -3.804   0.343  -3.906  0.00  0.00    +0.024 A 
BRANCH  24  27
ATOM     27  C   UNL     1      -6.052   0.507  -6.892  0.00  0.00    +0.160 C 
ATOM     28  O   UNL     1      -5.283   0.897  -7.745  0.00  0.00    -0.292 OA
ATOM     29  C   UNL     1      -7.494   0.241  -7.243  0.00  0.00    +0.091 C 
ENDBRANCH  24  27
ENDBRANCH  19  21
ENDBRANCH  16  17
ENDBRANCH  10  16
BRANCH  13  30
ATOM     30  C   UNL     1       1.702   2.810  -0.305  0.00  0.00    +0.225 C 
BRANCH  30  31
ATOM     31  C   UNL     1       1.827   3.369   1.089  0.00  0.00    +0.247 A 
ATOM     32  N   UNL     1       2.933   3.494   1.784  0.00  0.00    -0.194 NA
ATOM     33  C   UNL     1       2.563   4.037   2.957  0.00  0.00    +0.174 A 
ATOM     34  N   UNL     1       1.275   4.204   2.920  0.00  0.00    -0.061 NA
ATOM     35  O   UNL     1       0.833   3.826   1.855  0.00  0.00    -0.336 OA
BRANCH  33  36
ATOM     36  C   UNL     1       3.474   4.383   4.106  0.00  0.00    +0.054 C 
ATOM     37  C   UNL     1       3.378   5.881   4.400  0.00  0.00    +0.015 C 
ATOM     38  C   UNL     1       3.054   3.592   5.347  0.00  0.00    +0.015 C 
ENDBRANCH  33  36
ENDBRANCH  30  31
ENDBRANCH  13  30
TORSDOF 7
