REMARK  Name = ZINC03765635
REMARK  10 active torsions:
REMARK  status: ('A' for Active; 'I' for Inactive)
REMARK    1  A    between atoms: C_1  and  C_2
REMARK    2  A    between atoms: C_3  and  C_12
REMARK    3  A    between atoms: C_14  and  C_19
REMARK    4  A    between atoms: C_16  and  C_17
REMARK    5  A    between atoms: C_16  and  C_18
REMARK    6  A    between atoms: C_19  and  C_20
REMARK    7  A    between atoms: C_20  and  N_21
REMARK    8  A    between atoms: C_22  and  C_24
REMARK    9  A    between atoms: C_25  and  C_36
REMARK   10  A    between atoms: N_26  and  C_29
REMARK                            x       y       z     vdW  Elec       q    Type
REMARK                         _______ _______ _______ _____ _____    ______ ____
ROOT
ATOM      1  N   UNL     1      -8.032   2.735  -1.373  0.00  0.00    -0.310 N 
ATOM      2  C   UNL     1      -8.866   2.655  -2.429  0.00  0.00    +0.266 C 
ATOM      3  O   UNL     1      -8.824   3.501  -3.302  0.00  0.00    -0.268 OA
ATOM      4  H   UNL     1      -8.065   2.061  -0.677  0.00  0.00    +0.149 HD
ENDROOT
BRANCH   2   5
ATOM      5  C   UNL     1      -9.828   1.545  -2.525  0.00  0.00    +0.175 A 
ATOM      6  C   UNL     1     -10.742   1.343  -3.553  0.00  0.00    +0.107 A 
ATOM      7  N   UNL     1     -11.425   0.204  -3.237  0.00  0.00    -0.212 N 
ATOM      8  N   UNL     1     -10.903  -0.253  -2.019  0.00  0.00    -0.059 NA
ATOM      9  N   UNL     1      -9.973   0.548  -1.637  0.00  0.00    -0.124 NA
BRANCH   7  10
ATOM     10  C   UNL     1     -12.450  -0.392  -3.985  0.00  0.00    +0.068 A 
ATOM     11  C   UNL     1     -13.350   0.400  -4.685  0.00  0.00    +0.030 A 
ATOM     12  C   UNL     1     -14.356  -0.189  -5.426  0.00  0.00    +0.040 A 
ATOM     13  C   UNL     1     -14.474  -1.569  -5.462  0.00  0.00    +0.124 A 
ATOM     14  C   UNL     1     -13.580  -2.360  -4.759  0.00  0.00    +0.040 A 
ATOM     15  C   UNL     1     -12.570  -1.774  -4.021  0.00  0.00    +0.030 A 
ATOM     16  F   UNL     1     -15.462  -2.143  -6.182  0.00  0.00    -0.205 F 
ENDBRANCH   7  10
BRANCH   6  17
ATOM     17  C   UNL     1     -10.934   2.191  -4.748  0.00  0.00    +0.003 A 
ATOM     18  C   UNL     1     -11.060   1.606  -6.010  0.00  0.00    +0.010 A 
ATOM     19  C   UNL     1     -11.246   2.403  -7.120  0.00  0.00    +0.001 A 
ATOM     20  C   UNL     1     -11.296   3.779  -6.987  0.00  0.00    +0.000 A 
ATOM     21  C   UNL     1     -11.166   4.366  -5.741  0.00  0.00    +0.001 A 
ATOM     22  C   UNL     1     -10.986   3.580  -4.621  0.00  0.00    +0.010 A 
ENDBRANCH   6  17
ENDBRANCH   2   5
BRANCH   1  23
ATOM     23  C   UNL     1      -7.074   3.840  -1.278  0.00  0.00    +0.105 C 
BRANCH  23  24
ATOM     24  C   UNL     1      -6.254   3.694   0.005  0.00  0.00    +0.023 C 
BRANCH  24  26
ATOM     25  C   UNL     1      -3.874   4.665   0.495  0.00  0.00    +0.031 C 
ATOM     26  C   UNL     1      -5.349   4.916   0.173  0.00  0.00    +0.005 C 
ATOM     27  C   UNL     1      -4.810   5.211   1.575  0.00  0.00    -0.024 C 
ATOM     28  C   UNL     1      -5.218   4.261   2.703  0.00  0.00    +0.012 C 
ATOM     29  C   UNL     1      -4.647   6.678   1.975  0.00  0.00    +0.012 C 
BRANCH  25  32
ATOM     30  C   UNL     1      -4.052   2.488  -1.711  0.00  0.00    +0.063 C 
ATOM     31  C   UNL     1      -3.492   2.286  -0.327  0.00  0.00    +0.017 A 
ATOM     32  C   UNL     1      -3.425   3.232   0.623  0.00  0.00    -0.016 A 
ATOM     33  C   UNL     1      -2.816   2.612   1.802  0.00  0.00    +0.003 A 
ATOM     34  C   UNL     1      -2.475   3.075   3.075  0.00  0.00    +0.010 A 
ATOM     35  C   UNL     1      -1.903   2.221   3.976  0.00  0.00    +0.001 A 
ATOM     36  C   UNL     1      -1.657   0.898   3.636  0.00  0.00    +0.002 A 
ATOM     37  C   UNL     1      -1.985   0.421   2.386  0.00  0.00    +0.026 A 
ATOM     38  C   UNL     1      -2.564   1.273   1.451  0.00  0.00    +0.047 A 
ATOM     39  N   UNL     1      -2.989   1.107   0.153  0.00  0.00    -0.358 N 
ATOM     40  H   UNL     1      -2.940   0.278  -0.348  0.00  0.00    +0.166 HD
ENDBRANCH  25  32
ENDBRANCH  24  26
ENDBRANCH  23  24
ENDBRANCH   1  23
TORSDOF 7
