REMARK  Name = ZINC13500592
REMARK  12 active torsions:
REMARK  status: ('A' for Active; 'I' for Inactive)
REMARK    1  A    between atoms: C_1  and  C_2
REMARK    2  A    between atoms: C_4  and  C_37
REMARK    3  A    between atoms: C_9  and  C_14
REMARK    4  A    between atoms: C_14  and  N_73
REMARK    5  A    between atoms: C_15  and  N_73
REMARK    6  A    between atoms: C_20  and  C_22
REMARK    7  A    between atoms: C_20  and  C_34
REMARK    8  A    between atoms: C_20  and  N_73
REMARK    9  A    between atoms: N_26  and  C_27
REMARK   10  A    between atoms: C_27  and  C_28
REMARK   11  A    between atoms: C_34  and  C_35
REMARK   12  A    between atoms: C_34  and  C_36
REMARK                            x       y       z     vdW  Elec       q    Type
REMARK                         _______ _______ _______ _____ _____    ______ ____
ROOT
ATOM      1  N   UNL     1       2.979   4.418   3.071  0.00  0.00    +0.391 N 
ATOM      2  H   UNL     1       2.774   3.580   3.628  0.00  0.00    -0.080 HD
ENDROOT
BRANCH   1   3
ATOM      3  C   UNL     1       2.160   5.541   3.576  0.00  0.00    -0.067 C 
ATOM      4  C   UNL     1       0.696   5.079   3.723  0.00  0.00    -0.015 C 
ATOM      5  C   UNL     1      -0.137   6.322   3.321  0.00  0.00    -0.002 C 
ATOM      6  C   UNL     1       0.685   6.922   2.153  0.00  0.00    -0.002 C 
ATOM      7  C   UNL     1       2.154   6.713   2.578  0.00  0.00    -0.015 C 
ENDBRANCH   1   3
BRANCH   1   8
ATOM      8  C   UNL     1       4.415   4.743   3.201  0.00  0.00    -0.036 C 
BRANCH   8  17
ATOM      9  C   UNL     1       7.021   0.926   9.054  0.00  0.00    +0.044 C 
ATOM     10  C   UNL     1       6.486   2.197   8.446  0.00  0.00    -0.050 A 
ATOM     11  C   UNL     1       6.340   3.329   9.237  0.00  0.00    +0.008 A 
ATOM     12  C   UNL     1       5.851   4.502   8.703  0.00  0.00    -0.026 A 
ATOM     13  C   UNL     1       5.501   4.554   7.358  0.00  0.00    +0.052 A 
ATOM     14  C   UNL     1       5.651   3.405   6.559  0.00  0.00    -0.001 A 
ATOM     15  C   UNL     1       6.148   2.225   7.123  0.00  0.00    +0.013 A 
ATOM     16  C   UNL     1       5.275   3.469   5.146  0.00  0.00    +0.017 A 
ATOM     17  C   UNL     1       4.805   4.641   4.653  0.00  0.00    +0.001 A 
ATOM     18  C   UNL     1       4.674   5.765   5.496  0.00  0.00    +0.251 A 
ATOM     19  O   UNL     1       4.244   6.808   5.034  0.00  0.00    -0.268 OA
ATOM     20  N   UNL     1       5.011   5.714   6.797  0.00  0.00    -0.322 N 
ATOM     21  H   UNL     1       4.908   6.505   7.348  0.00  0.00    +0.169 HD
ATOM     22  C   UNL     1       5.697   5.723   9.573  0.00  0.00    +0.046 C 
ENDBRANCH   8  17
ENDBRANCH   1   8
BRANCH   1  23
ATOM     23  C   UNL     1       2.647   4.147   1.657  0.00  0.00    +0.006 C 
BRANCH  23  24
ATOM     24  C   UNL     1       3.603   4.875   0.746  0.00  0.00    +0.138 A 
ATOM     25  N   UNL     1       4.883   5.068   0.949  0.00  0.00    -0.115 NA
ATOM     26  N   UNL     1       5.349   5.731  -0.054  0.00  0.00    -0.023 NA
ATOM     27  N   UNL     1       4.400   5.960  -0.893  0.00  0.00    -0.044 NA
ATOM     28  N   UNL     1       3.306   5.453  -0.433  0.00  0.00    -0.228 N 
BRANCH  28  29
ATOM     29  C   UNL     1       1.991   5.494  -1.075  0.00  0.00    +0.178 C 
BRANCH  29  30
ATOM     30  C   UNL     1       1.388   6.891  -0.915  0.00  0.00    +0.140 C 
ATOM     31  C   UNL     1      -0.018   6.957  -1.563  0.00  0.00    +0.035 C 
ATOM     32  C   UNL     1      -0.163   8.467  -1.872  0.00  0.00    +0.031 C 
ATOM     33  C   UNL     1       1.286   8.990  -1.889  0.00  0.00    +0.160 C 
ATOM     34  O   UNL     1       2.150   7.863  -1.664  0.00  0.00    -0.375 OA
ENDBRANCH  29  30
ENDBRANCH  28  29
ENDBRANCH  23  24
BRANCH  23  35
ATOM     35  C   UNL     1       2.757   2.641   1.412  0.00  0.00    -0.024 C 
ATOM     36  C   UNL     1       2.350   2.328  -0.029  0.00  0.00    +0.006 C 
ATOM     37  C   UNL     1       4.200   2.190   1.644  0.00  0.00    +0.006 C 
ENDBRANCH  23  35
ENDBRANCH   1  23
TORSDOF 8
