REMARK  Name = ZINC41527978
REMARK  3 active torsions:
REMARK  status: ('A' for Active; 'I' for Inactive)
REMARK    1  A    between atoms: C_1  and  C_2
REMARK    2  A    between atoms: C_5  and  N_9
REMARK    3  A    between atoms: N_9  and  C_10
REMARK                            x       y       z     vdW  Elec       q    Type
REMARK                         _______ _______ _______ _____ _____    ______ ____
ROOT
ATOM      1  N   UNL     1       0.058  -4.506  -1.280  0.00  0.00    -0.320 N 
ATOM      2  H   UNL     1       0.067  -4.739  -0.339  0.00  0.00    +0.148 HD
ENDROOT
BRANCH   1   7
ATOM      3  C   UNL     1      -0.018   1.503   0.010  0.00  0.00    +0.070 C 
ATOM      4  C   UNL     1       0.002  -0.004   0.002  0.00  0.00    +0.086 A 
ATOM      5  C   UNL     1       0.008  -0.820  -1.149  0.00  0.00    +0.116 A 
ATOM      6  C   UNL     1       0.029  -2.154  -0.704  0.00  0.00    +0.124 A 
ATOM      7  C   UNL     1       0.038  -3.176  -1.663  0.00  0.00    +0.148 A 
ATOM      8  N   UNL     1       0.026  -2.840  -2.949  0.00  0.00    -0.219 NA
ATOM      9  C   UNL     1       0.007  -1.573  -3.326  0.00  0.00    +0.224 A 
ATOM     10  N   UNL     1      -0.002  -0.581  -2.467  0.00  0.00    -0.232 NA
ATOM     11  N   UNL     1       0.035  -2.114   0.664  0.00  0.00    -0.272 N 
ATOM     12  H   UNL     1       0.049  -2.881   1.257  0.00  0.00    +0.189 HD
ATOM     13  N   UNL     1       0.023  -0.769   1.057  0.00  0.00    -0.176 NA
ENDBRANCH   1   7
BRANCH   1  14
ATOM     14  C   UNL     1       0.067  -5.561  -2.296  0.00  0.00    +0.102 C 
ATOM     15  C   UNL     1      -0.533  -6.835  -1.705  0.00  0.00    +0.027 C 
ATOM     16  C   UNL     1      -0.317  -7.980  -2.701  0.00  0.00    +0.007 C 
ATOM     17  C   UNL     1       1.173  -8.314  -2.735  0.00  0.00    +0.035 C 
ATOM     18  C   UNL     1       1.990  -7.067  -2.953  0.00  0.00    -0.042 A 
ATOM     19  C   UNL     1       1.484  -5.804  -2.747  0.00  0.00    -0.024 A 
ATOM     20  C   UNL     1       2.294  -4.696  -2.960  0.00  0.00    +0.006 A 
ATOM     21  C   UNL     1       3.599  -4.852  -3.379  0.00  0.00    +0.000 A 
ATOM     22  C   UNL     1       4.106  -6.121  -3.588  0.00  0.00    +0.000 A 
ATOM     23  C   UNL     1       3.304  -7.221  -3.377  0.00  0.00    +0.004 A 
ENDBRANCH   1  14
TORSDOF 2
