REMARK  Name = ZINC06141371
REMARK  10 active torsions:
REMARK  status: ('A' for Active; 'I' for Inactive)
REMARK    1  A    between atoms: C_1  and  C_2
REMARK    2  A    between atoms: N_13  and  C_26
REMARK    3  A    between atoms: C_14  and  S_16
REMARK    4  A    between atoms: S_16  and  C_17
REMARK    5  A    between atoms: C_17  and  C_19
REMARK    6  A    between atoms: C_17  and  C_20
REMARK    7  A    between atoms: N_22  and  C_23
REMARK    8  A    between atoms: C_26  and  C_27
REMARK    9  A    between atoms: C_27  and  C_28
REMARK   10  A    between atoms: C_27  and  C_29
REMARK                            x       y       z     vdW  Elec       q    Type
REMARK                         _______ _______ _______ _____ _____    ______ ____
ROOT
ATOM      1  C   UNL     1       5.863  -0.594  -8.389  0.00  0.00    +0.008 C 
ATOM      2  C   UNL     1       5.255  -0.693  -6.988  0.00  0.00    -0.009 C 
ATOM      3  C   UNL     1       4.226  -1.826  -6.950  0.00  0.00    +0.008 C 
ATOM      4  C   UNL     1       3.801  -2.093  -5.506  0.00  0.00    +0.037 C 
ATOM      5  C   UNL     1       3.355  -0.777  -4.873  0.00  0.00    -0.023 A 
ATOM      6  C   UNL     1       3.713   0.404  -5.415  0.00  0.00    -0.004 A 
ATOM      7  S   UNL     1       2.983   1.632  -4.366  0.00  0.00    -0.073 S 
ATOM      8  C   UNL     1       2.194   0.551  -3.200  0.00  0.00    +0.117 A 
ATOM      9  C   UNL     1       2.527  -0.731  -3.667  0.00  0.00    +0.076 A 
ATOM     10  C   UNL     1       2.014  -1.826  -2.901  0.00  0.00    +0.263 A 
ATOM     11  O   UNL     1       2.252  -2.975  -3.231  0.00  0.00    -0.267 OA
ATOM     12  N   UNL     1       1.268  -1.569  -1.811  0.00  0.00    -0.287 N 
ATOM     13  C   UNL     1       0.988  -0.289  -1.430  0.00  0.00    +0.173 A 
ATOM     14  N   UNL     1       1.449   0.737  -2.117  0.00  0.00    -0.216 NA
ATOM     15  C   UNL     1       4.549   0.625  -6.639  0.00  0.00    +0.046 C 
ENDROOT
BRANCH  13  16
ATOM     16  S   UNL     1       0.002  -0.004   0.002  0.00  0.00    -0.075 S 
BRANCH  16  17
ATOM     17  C   UNL     1      -0.022   1.806   0.012  0.00  0.00    +0.137 C 
ATOM     18  C   UNL     1      -0.762   2.313  -1.228  0.00  0.00    +0.029 C 
BRANCH  17  19
ATOM     19  C   UNL     1      -0.728   2.292   1.252  0.00  0.00    +0.226 C 
ATOM     20  O   UNL     1      -1.474   1.550   1.855  0.00  0.00    -0.275 OA
ATOM     21  N   UNL     1      -0.530   3.551   1.690  0.00  0.00    -0.312 N 
ATOM     22  H   UNL     1       0.067   4.144   1.207  0.00  0.00    +0.149 HD
BRANCH  21  23
ATOM     23  C   UNL     1      -1.216   4.023   2.895  0.00  0.00    +0.073 C 
ATOM     24  C   UNL     1      -1.835   5.422   2.854  0.00  0.00    +0.024 C 
ATOM     25  C   UNL     1      -0.567   5.170   3.674  0.00  0.00    +0.024 C 
ENDBRANCH  21  23
ENDBRANCH  17  19
ENDBRANCH  16  17
ENDBRANCH  13  16
BRANCH  12  26
ATOM     26  C   UNL     1       0.744  -2.685  -1.020  0.00  0.00    +0.130 C 
BRANCH  26  27
ATOM     27  C   UNL     1      -0.629  -3.092  -1.560  0.00  0.00    +0.003 C 
ATOM     28  C   UNL     1      -0.476  -3.639  -2.980  0.00  0.00    +0.009 C 
ATOM     29  C   UNL     1      -1.231  -4.172  -0.659  0.00  0.00    +0.009 C 
ENDBRANCH  26  27
ENDBRANCH  12  26
TORSDOF 6
