REMARK  Name = ZINC48309581
REMARK  10 active torsions:
REMARK  status: ('A' for Active; 'I' for Inactive)
REMARK    1  A    between atoms: C_1  and  C_2
REMARK    2  A    between atoms: C_2  and  N_3
REMARK    3  A    between atoms: N_3  and  C_4
REMARK    4  A    between atoms: N_3  and  C_6
REMARK    5  A    between atoms: C_4  and  C_5
REMARK    6  A    between atoms: C_6  and  C_7
REMARK    7  A    between atoms: C_10  and  C_12
REMARK    8  A    between atoms: N_14  and  N_15
REMARK    9  A    between atoms: C_16  and  C_18
REMARK   10  A    between atoms: C_19  and  C_24
REMARK                            x       y       z     vdW  Elec       q    Type
REMARK                         _______ _______ _______ _____ _____    ______ ____
ROOT
ATOM      1  C   UNL     1      -6.492  -2.191   1.670  0.00  0.00    +0.295 C 
ATOM      2  O   UNL     1      -7.590  -2.393   1.187  0.00  0.00    -0.265 OA
ATOM      3  N   UNL     1      -6.359  -2.043   3.003  0.00  0.00    -0.228 N 
ATOM      4  H   UNL     1      -5.484  -1.882   3.389  0.00  0.00    +0.173 HD
ENDROOT
BRANCH   1   8
ATOM      5  C   UNL     1      -3.233  -1.881   0.141  0.00  0.00    +0.090 A 
ATOM      6  C   UNL     1      -3.972  -2.093  -0.970  0.00  0.00    +0.043 A 
ATOM      7  C   UNL     1      -5.305  -2.241  -0.557  0.00  0.00    +0.055 A 
ATOM      8  C   UNL     1      -5.312  -2.110   0.802  0.00  0.00    +0.191 A 
ATOM      9  O   UNL     1      -4.043  -1.896   1.208  0.00  0.00    -0.457 OA
BRANCH   5  10
ATOM     10  C   UNL     1      -1.741  -1.668   0.176  0.00  0.00    -0.003 C 
BRANCH  10  11
ATOM     11  N   UNL     1      -1.443  -0.252  -0.073  0.00  0.00    +0.384 N 
ATOM     12  H   UNL     1      -1.876   0.036  -0.938  0.00  0.00    -0.081 HD
BRANCH  11  14
ATOM     13  C   UNL     1      -1.768   2.044   0.714  0.00  0.00    -0.017 C 
ATOM     14  C   UNL     1      -1.967   0.561   1.032  0.00  0.00    -0.082 C 
ENDBRANCH  11  14
BRANCH  11  15
ATOM     15  C   UNL     1       0.012  -0.067  -0.169  0.00  0.00    -0.082 C 
ATOM     16  C   UNL     1       0.538  -0.799  -1.406  0.00  0.00    -0.017 C 
ENDBRANCH  11  15
ENDBRANCH  10  11
ENDBRANCH   5  10
ENDBRANCH   1   8
BRANCH   3  17
ATOM     17  N   UNL     1      -7.486  -2.121   3.832  0.00  0.00    -0.227 N 
ATOM     18  C   UNL     1      -7.353  -1.972   5.165  0.00  0.00    +0.296 C 
ATOM     19  O   UNL     1      -6.255  -1.770   5.649  0.00  0.00    -0.265 OA
ATOM     20  H   UNL     1      -8.361  -2.281   3.447  0.00  0.00    +0.173 HD
BRANCH  18  21
ATOM     21  C   UNL     1      -8.532  -2.054   6.032  0.00  0.00    +0.195 A 
ATOM     22  C   UNL     1      -8.540  -1.917   7.391  0.00  0.00    +0.001 A 
ATOM     23  C   UNL     1      -9.871  -2.067   7.805  0.00  0.00    +0.061 A 
ATOM     24  C   UNL     1     -10.611  -2.286   6.694  0.00  0.00    +0.171 A 
ATOM     25  O   UNL     1      -9.801  -2.272   5.627  0.00  0.00    -0.443 OA
ATOM     26 BR   UNL     1     -12.482  -2.560   6.652  0.00  0.00    -0.008 Br
ATOM     27  C   UNL     1      -7.347  -1.656   8.275  0.00  0.00    +0.048 C 
ENDBRANCH  18  21
ENDBRANCH   3  17
TORSDOF 7
