REMARK  Name = ZINC44873543
REMARK  9 active torsions:
REMARK  status: ('A' for Active; 'I' for Inactive)
REMARK    1  A    between atoms: C_4  and  S_7
REMARK    2  A    between atoms: S_7  and  N_10
REMARK    3  A    between atoms: N_10  and  C_11
REMARK    4  A    between atoms: N_10  and  C_29
REMARK    5  A    between atoms: C_11  and  C_12
REMARK    6  A    between atoms: N_14  and  C_15
REMARK    7  A    between atoms: C_15  and  C_16
REMARK    8  A    between atoms: C_19  and  C_22
REMARK    9  A    between atoms: C_22  and  N_23
REMARK                            x       y       z     vdW  Elec       q    Type
REMARK                         _______ _______ _______ _____ _____    ______ ____
ROOT
ATOM      1  C   UNL     1       5.044  -3.332   2.141  0.00  0.00    +0.232 C 
ATOM      2  O   UNL     1       6.073  -3.080   1.550  0.00  0.00    -0.274 OA
ATOM      3  N   UNL     1       4.875  -4.540   2.715  0.00  0.00    -0.310 N 
ATOM      4  H   UNL     1       4.053  -4.742   3.188  0.00  0.00    +0.149 HD
ENDROOT
BRANCH   1   5
ATOM      5  C   UNL     1       3.954  -2.295   2.234  0.00  0.00    +0.227 C 
BRANCH   5   6
ATOM      6  N   UNL     1       4.378  -1.079   1.536  0.00  0.00    -0.191 N 
BRANCH   6   7
ATOM      7  C   UNL     1       5.156  -0.126   2.200  0.00  0.00    +0.087 A 
ATOM      8  C   UNL     1       6.537  -0.264   2.245  0.00  0.00    +0.027 A 
ATOM      9  C   UNL     1       7.303   0.679   2.902  0.00  0.00    +0.002 A 
ATOM     10  C   UNL     1       6.698   1.760   3.515  0.00  0.00    +0.003 A 
ATOM     11  C   UNL     1       5.323   1.902   3.474  0.00  0.00    +0.040 A 
ATOM     12  C   UNL     1       4.550   0.966   2.813  0.00  0.00    +0.146 A 
ATOM     13  F   UNL     1       3.207   1.108   2.767  0.00  0.00    -0.203 F 
ENDBRANCH   6   7
BRANCH   6  14
ATOM     14  S   UNL     1       3.934  -0.832  -0.041  0.00  0.00    +0.075 S 
ATOM     15  O   UNL     1       3.674  -2.114  -0.595  0.00  0.00    -0.150 OA
ATOM     16  O   UNL     1       4.890   0.060  -0.597  0.00  0.00    -0.150 OA
BRANCH  14  20
ATOM     17  C   UNL     1      -0.017   1.378   0.010  0.00  0.00    +0.000 A 
ATOM     18  C   UNL     1       1.171   2.086   0.002  0.00  0.00    +0.002 A 
ATOM     19  C   UNL     1       2.377   1.411  -0.013  0.00  0.00    +0.029 A 
ATOM     20  C   UNL     1       2.396   0.029  -0.020  0.00  0.00    +0.109 A 
ATOM     21  C   UNL     1       1.208  -0.679  -0.012  0.00  0.00    +0.029 A 
ATOM     22  C   UNL     1       0.002  -0.004   0.002  0.00  0.00    +0.002 A 
ENDBRANCH  14  20
ENDBRANCH   6  14
ENDBRANCH   5   6
ENDBRANCH   1   5
BRANCH   3  23
ATOM     23  C   UNL     1       5.935  -5.548   2.625  0.00  0.00    +0.139 C 
BRANCH  23  24
ATOM     24  C   UNL     1       5.499  -6.799   3.343  0.00  0.00    -0.030 A 
ATOM     25  C   UNL     1       5.776  -6.956   4.688  0.00  0.00    +0.005 A 
ATOM     26  C   UNL     1       5.377  -8.104   5.347  0.00  0.00    +0.002 A 
ATOM     27  C   UNL     1       4.701  -9.095   4.661  0.00  0.00    -0.064 A 
ATOM     28  C   UNL     1       4.423  -8.938   3.316  0.00  0.00    +0.002 A 
ATOM     29  C   UNL     1       4.819  -7.788   2.658  0.00  0.00    +0.005 A 
BRANCH  27  30
ATOM     30  C   UNL     1       4.266 -10.347   5.379  0.00  0.00    -0.043 C 
BRANCH  30  31
ATOM     31  N   UNL     1       2.919 -10.152   5.931  0.00  0.00    +0.382 N 
ATOM     32  C   UNL     1       2.960  -9.101   6.955  0.00  0.00    -0.078 C 
ATOM     33  C   UNL     1       1.545  -8.837   7.477  0.00  0.00    -0.019 C 
ATOM     34  C   UNL     1       0.984 -10.125   8.087  0.00  0.00    -0.004 C 
ATOM     35  C   UNL     1       1.016 -11.234   7.031  0.00  0.00    -0.019 C 
ATOM     36  C   UNL     1       2.450 -11.409   6.526  0.00  0.00    -0.078 C 
ATOM     37  H   UNL     1       2.291  -9.875   5.193  0.00  0.00    -0.081 HD
ENDBRANCH  30  31
ENDBRANCH  27  30
ENDBRANCH  23  24
ENDBRANCH   3  23
TORSDOF 9
