REMARK  Name = ZINC35763650
REMARK  6 active torsions:
REMARK  status: ('A' for Active; 'I' for Inactive)
REMARK    1  A    between atoms: C_1  and  C_2
REMARK    2  A    between atoms: C_5  and  C_9
REMARK    3  A    between atoms: C_6  and  O_8
REMARK    4  A    between atoms: C_9  and  C_11
REMARK    5  A    between atoms: C_9  and  N_12
REMARK    6  A    between atoms: N_12  and  C_13
REMARK                            x       y       z     vdW  Elec       q    Type
REMARK                         _______ _______ _______ _____ _____    ______ ____
ROOT
ATOM      1  C   UNL     1       0.059  -4.279  -0.033  0.00  0.00    +0.101 C 
ATOM      2  C   UNL     1       1.478  -4.830   0.116  0.00  0.00    +0.033 C 
ENDROOT
BRANCH   1   7
ATOM      3  C   UNL     1       0.231   1.500  -0.105  0.00  0.00    +0.044 C 
ATOM      4  C   UNL     1       0.186  -0.006  -0.083  0.00  0.00    -0.047 A 
ATOM      5  C   UNL     1       0.227  -0.715  -1.269  0.00  0.00    +0.004 A 
ATOM      6  C   UNL     1       0.186  -2.097  -1.253  0.00  0.00    +0.009 A 
ATOM      7  C   UNL     1       0.104  -2.772  -0.050  0.00  0.00    +0.014 A 
ATOM      8  C   UNL     1       0.063  -2.063   1.141  0.00  0.00    +0.122 A 
ATOM      9  C   UNL     1       0.110  -0.676   1.122  0.00  0.00    +0.049 A 
BRANCH   8  10
ATOM     10  O   UNL     1      -0.018  -2.725   2.325  0.00  0.00    -0.506 OA
ATOM     11  H   UNL     1       0.841  -2.943   2.713  0.00  0.00    +0.292 HD
ENDBRANCH   8  10
ENDBRANCH   1   7
BRANCH   1  12
ATOM     12  N   UNL     1      -0.525  -4.764  -1.286  0.00  0.00    -0.335 N 
ATOM     13  H   UNL     1      -0.451  -4.232  -2.094  0.00  0.00    +0.147 HD
BRANCH  12  14
ATOM     14  C   UNL     1      -1.193  -6.003  -1.318  0.00  0.00    +0.065 A 
ATOM     15  C   UNL     1      -1.772  -6.571  -2.407  0.00  0.00    +0.127 A 
ATOM     16  N   UNL     1      -2.305  -7.759  -2.015  0.00  0.00    -0.283 N 
ATOM     17  H   UNL     1      -2.782  -8.385  -2.581  0.00  0.00    +0.188 HD
ATOM     18  N   UNL     1      -2.043  -7.917  -0.648  0.00  0.00    -0.180 NA
ATOM     19  C   UNL     1      -1.374  -6.872  -0.232  0.00  0.00    +0.157 A 
ENDBRANCH  12  14
ENDBRANCH   1  12
TORSDOF 4
