REMARK  Name = ZINC12736793
REMARK  6 active torsions:
REMARK  status: ('A' for Active; 'I' for Inactive)
REMARK    1  A    between atoms: C_1  and  O_2
REMARK    2  A    between atoms: O_2  and  C_3
REMARK    3  A    between atoms: C_6  and  C_9
REMARK    4  A    between atoms: C_11  and  C_14
REMARK    5  A    between atoms: C_14  and  N_15
REMARK    6  A    between atoms: C_28  and  C_31
REMARK                            x       y       z     vdW  Elec       q    Type
REMARK                         _______ _______ _______ _____ _____    ______ ____
ROOT
ATOM      1  N   UNL     1      -6.252   2.633  -0.932  0.00  0.00    -0.294 NA
ATOM      2  C   UNL     1      -6.080   3.456   0.274  0.00  0.00    +0.104 C 
ATOM      3  C   UNL     1      -4.750   4.208   0.189  0.00  0.00    +0.122 C 
ATOM      4  N   UNL     1      -3.651   3.241   0.053  0.00  0.00    -0.313 N 
ATOM      5  C   UNL     1      -3.824   2.418  -1.152  0.00  0.00    +0.122 C 
ATOM      6  C   UNL     1      -5.154   1.666  -1.067  0.00  0.00    +0.104 C 
ATOM      7  C   UNL     1      -2.422   3.883   0.045  0.00  0.00    +0.123 A 
ATOM      8  C   UNL     1      -1.473   3.615   1.058  0.00  0.00    +0.024 A 
ATOM      9  C   UNL     1      -1.707   2.710   2.098  0.00  0.00    +0.012 A 
ATOM     10  C   UNL     1      -0.741   2.510   3.042  0.00  0.00    +0.001 A 
ATOM     11  C   UNL     1       0.474   3.186   2.979  0.00  0.00    +0.001 A 
ATOM     12  C   UNL     1       0.735   4.072   1.974  0.00  0.00    +0.011 A 
ATOM     13  C   UNL     1      -0.234   4.302   0.996  0.00  0.00    +0.014 A 
ATOM     14  C   UNL     1      -0.037   5.234  -0.114  0.00  0.00    +0.105 A 
ATOM     15  N   UNL     1      -1.022   5.381  -0.990  0.00  0.00    -0.171 NA
ATOM     16  N   UNL     1      -2.131   4.747  -0.908  0.00  0.00    -0.263 N 
ATOM     17  H   UNL     1      -2.864   4.960  -1.700  0.00  0.00    +0.190 HD
ENDROOT
BRANCH  14  18
ATOM     18  C   UNL     1       1.220   5.989  -0.255  0.00  0.00    +0.040 A 
ATOM     19  C   UNL     1       1.882   6.361  -1.397  0.00  0.00    +0.018 A 
ATOM     20  C   UNL     1       3.055   7.072  -1.280  0.00  0.00    +0.008 A 
ATOM     21  C   UNL     1       3.520   7.383  -0.042  0.00  0.00    +0.046 A 
ATOM     22  S   UNL     1       2.275   6.666   1.017  0.00  0.00    -0.095 S 
ENDBRANCH  14  18
BRANCH   1  23
ATOM     23  C   UNL     1      -7.554   1.953  -0.923  0.00  0.00    +0.140 C 
BRANCH  23  26
ATOM     24  C   UNL     1      -8.546   1.502  -4.437  0.00  0.00    +0.109 A 
ATOM     25  N   UNL     1      -8.320   2.032  -3.243  0.00  0.00    -0.243 NA
ATOM     26  C   UNL     1      -7.801   1.322  -2.269  0.00  0.00    +0.063 A 
ATOM     27  C   UNL     1      -7.480   0.018  -2.478  0.00  0.00    +0.071 A 
ATOM     28  S   UNL     1      -7.976  -0.174  -4.185  0.00  0.00    -0.075 S 
BRANCH  24  32
ATOM     29  C   UNL     1     -10.187   3.298  -7.920  0.00  0.00    +0.120 A 
ATOM     30  C   UNL     1      -9.804   1.963  -7.944  0.00  0.00    +0.046 A 
ATOM     31  C   UNL     1      -9.271   1.377  -6.816  0.00  0.00    +0.014 A 
ATOM     32  C   UNL     1      -9.117   2.127  -5.649  0.00  0.00    +0.007 A 
ATOM     33  C   UNL     1      -9.508   3.466  -5.627  0.00  0.00    +0.014 A 
ATOM     34  C   UNL     1     -10.035   4.047  -6.761  0.00  0.00    +0.046 A 
BRANCH  29  36
ATOM     35  C   UNL     1     -11.085   5.249  -8.940  0.00  0.00    +0.277 C 
ATOM     36  O   UNL     1     -10.712   3.873  -9.034  0.00  0.00    -0.495 OA
ENDBRANCH  29  36
ENDBRANCH  24  32
ENDBRANCH  23  26
ENDBRANCH   1  23
TORSDOF 5
