REMARK  Name = ZINC46585480
REMARK  10 active torsions:
REMARK  status: ('A' for Active; 'I' for Inactive)
REMARK    1  A    between atoms: C_1  and  C_2
REMARK    2  A    between atoms: C_2  and  C_3
REMARK    3  A    between atoms: C_3  and  C_30
REMARK    4  A    between atoms: N_6  and  N_10
REMARK    5  A    between atoms: C_11  and  C_13
REMARK    6  A    between atoms: C_13  and  S_14
REMARK    7  A    between atoms: S_14  and  C_15
REMARK    8  A    between atoms: N_19  and  C_20
REMARK    9  A    between atoms: C_24  and  N_26
REMARK   10  A    between atoms: C_27  and  C_29
REMARK                            x       y       z     vdW  Elec       q    Type
REMARK                         _______ _______ _______ _____ _____    ______ ____
ROOT
ATOM      1  N   UNL     1       0.846   1.661  -3.504  0.00  0.00    -0.223 N 
ATOM      2  C   UNL     1       0.715   2.999  -3.603  0.00  0.00    +0.240 C 
ATOM      3  O   UNL     1       0.632   3.676  -2.600  0.00  0.00    -0.273 OA
ATOM      4  H   UNL     1       0.912   1.120  -4.306  0.00  0.00    +0.174 HD
ENDROOT
BRANCH   1   8
ATOM      5  C   UNL     1       0.354  -0.110  -0.349  0.00  0.00    +0.139 C 
ATOM      6  C   UNL     1      -0.137   0.359  -1.705  0.00  0.00    +0.268 C 
ATOM      7  O   UNL     1      -1.224   0.154  -2.201  0.00  0.00    -0.271 OA
ATOM      8  N   UNL     1       0.886   1.052  -2.243  0.00  0.00    -0.137 N 
ATOM      9  C   UNL     1       1.944   1.086  -1.425  0.00  0.00    +0.327 C 
ATOM     10  O   UNL     1       2.986   1.652  -1.692  0.00  0.00    -0.251 OA
ATOM     11  N   UNL     1       1.726   0.424  -0.275  0.00  0.00    -0.280 N 
ATOM     12  H   UNL     1       2.349   0.319   0.461  0.00  0.00    +0.152 HD
BRANCH   5  13
ATOM     13  C   UNL     1       0.367  -1.615  -0.278  0.00  0.00    -0.015 A 
ATOM     14  C   UNL     1      -0.732  -2.292   0.218  0.00  0.00    +0.006 A 
ATOM     15  C   UNL     1      -0.720  -3.673   0.283  0.00  0.00    +0.000 A 
ATOM     16  C   UNL     1       0.389  -4.376  -0.147  0.00  0.00    +0.000 A 
ATOM     17  C   UNL     1       1.487  -3.699  -0.643  0.00  0.00    +0.000 A 
ATOM     18  C   UNL     1       1.474  -2.318  -0.713  0.00  0.00    +0.006 A 
ENDBRANCH   5  13
BRANCH   5  20
ATOM     19  C   UNL     1      -0.550   1.998   0.641  0.00  0.00    +0.007 C 
ATOM     20  C   UNL     1      -0.512   0.474   0.768  0.00  0.00    +0.037 C 
ENDBRANCH   5  20
ENDBRANCH   1   8
BRANCH   2  21
ATOM     21  C   UNL     1       0.673   3.654  -4.959  0.00  0.00    +0.174 C 
BRANCH  21  22
ATOM     22  S   UNL     1       0.492   5.448  -4.759  0.00  0.00    -0.076 S 
BRANCH  22  23
ATOM     23  C   UNL     1       0.458   6.060  -6.411  0.00  0.00    +0.196 A 
ATOM     24  N   UNL     1       0.541   5.347  -7.510  0.00  0.00    -0.122 NA
ATOM     25  N   UNL     1       0.483   6.117  -8.537  0.00  0.00    -0.137 NA
ATOM     26  C   UNL     1       0.361   7.359  -8.161  0.00  0.00    +0.230 A 
ATOM     27  N   UNL     1       0.335   7.369  -6.791  0.00  0.00    -0.277 N 
BRANCH  27  28
ATOM     28  C   UNL     1       0.211   8.487  -5.954  0.00  0.00    +0.052 A 
ATOM     29  C   UNL     1      -0.728   8.488  -4.931  0.00  0.00    +0.026 A 
ATOM     30  C   UNL     1      -0.851   9.589  -4.105  0.00  0.00    +0.004 A 
ATOM     31  C   UNL     1      -0.041  10.692  -4.295  0.00  0.00    +0.023 A 
ATOM     32  C   UNL     1       0.900  10.697  -5.317  0.00  0.00    +0.035 A 
ATOM     33  C   UNL     1       1.030   9.590  -6.144  0.00  0.00    +0.049 A 
BRANCH  32  34
ATOM     34  N   UNL     1       1.720  11.814  -5.509  0.00  0.00    -0.286 N 
ATOM     35  C   UNL     1       2.117  12.549  -4.450  0.00  0.00    +0.214 C 
ATOM     36  O   UNL     1       1.844  12.188  -3.325  0.00  0.00    -0.276 OA
ATOM     37  C   UNL     1       2.900  13.818  -4.665  0.00  0.00    +0.109 C 
ATOM     38  H   UNL     1       2.003  12.060  -6.403  0.00  0.00    +0.155 HD
ENDBRANCH  32  34
ENDBRANCH  27  28
ENDBRANCH  22  23
ENDBRANCH  21  22
ENDBRANCH   2  21
TORSDOF 8
