REMARK  Name = ZINC16474235
REMARK  6 active torsions:
REMARK  status: ('A' for Active; 'I' for Inactive)
REMARK    1  A    between atoms: C_1  and  C_2
REMARK    2  A    between atoms: C_9  and  N_14
REMARK    3  A    between atoms: C_10  and  C_11
REMARK    4  A    between atoms: C_15  and  C_17
REMARK    5  A    between atoms: C_20  and  N_26
REMARK    6  A    between atoms: C_21  and  N_23
REMARK                            x       y       z     vdW  Elec       q    Type
REMARK                         _______ _______ _______ _____ _____    ______ ____
ROOT
ATOM      1  N   UNL     1      -1.503  -0.808   2.500  0.00  0.00    -0.275 N 
ATOM      2  C   UNL     1      -2.163  -1.354   3.541  0.00  0.00    +0.249 C 
ATOM      3  O   UNL     1      -3.129  -2.064   3.344  0.00  0.00    -0.270 OA
ATOM      4  H   UNL     1      -0.732  -0.241   2.658  0.00  0.00    +0.156 HD
ENDROOT
BRANCH   1  12
ATOM      5  C   UNL     1      -4.269  -2.384  -4.645  0.00  0.00    +0.008 C 
ATOM      6  C   UNL     1      -3.654  -1.631  -3.462  0.00  0.00    -0.009 C 
ATOM      7  C   UNL     1      -2.137  -1.536  -3.644  0.00  0.00    +0.008 C 
ATOM      8  C   UNL     1      -1.548  -0.579  -2.606  0.00  0.00    +0.037 C 
ATOM      9  C   UNL     1      -2.028  -0.999  -1.222  0.00  0.00    -0.023 A 
ATOM     10  C   UNL     1      -3.097  -1.811  -1.073  0.00  0.00    -0.004 A 
ATOM     11  S   UNL     1      -3.263  -2.026   0.676  0.00  0.00    -0.077 S 
ATOM     12  C   UNL     1      -1.927  -1.057   1.205  0.00  0.00    +0.085 A 
ATOM     13  C   UNL     1      -1.385  -0.590   0.015  0.00  0.00    +0.068 A 
ATOM     14  C   UNL     1      -3.949  -2.390  -2.160  0.00  0.00    +0.046 C 
BRANCH  13  15
ATOM     15  C   UNL     1      -0.210   0.287   0.008  0.00  0.00    +0.244 C 
ATOM     16  O   UNL     1       0.907  -0.193  -0.040  0.00  0.00    -0.270 OA
ATOM     17  N   UNL     1      -0.368   1.625   0.053  0.00  0.00    -0.325 N 
ATOM     18  H   UNL     1       0.409   2.205   0.048  0.00  0.00    +0.145 HD
ATOM     19  H   UNL     1      -1.259   2.007   0.086  0.00  0.00    +0.145 HD
ENDBRANCH  13  15
ENDBRANCH   1  12
BRANCH   2  20
ATOM     20  C   UNL     1      -1.711  -1.089   4.920  0.00  0.00    +0.039 A 
ATOM     21  C   UNL     1      -0.596  -0.277   5.149  0.00  0.00    +0.015 A 
ATOM     22  C   UNL     1      -0.181  -0.029   6.436  0.00  0.00    +0.026 A 
ATOM     23  C   UNL     1      -0.863  -0.593   7.511  0.00  0.00    +0.060 A 
ATOM     24  C   UNL     1      -1.970  -1.406   7.287  0.00  0.00    +0.148 A 
ATOM     25  C   UNL     1      -2.394  -1.655   6.001  0.00  0.00    +0.047 A 
BRANCH  23  26
ATOM     26  N   UNL     1      -0.437  -0.345   8.811  0.00  0.00    -0.328 N 
ATOM     27  C   UNL     1       1.003  -0.670   8.971  0.00  0.00    +0.105 C 
ATOM     28  C   UNL     1       1.411   0.131  10.233  0.00  0.00    +0.020 C 
ATOM     29  C   UNL     1       0.603   1.441  10.085  0.00  0.00    +0.020 C 
ATOM     30  C   UNL     1      -0.565   1.090   9.146  0.00  0.00    +0.105 C 
ENDBRANCH  23  26
BRANCH  24  31
ATOM     31  N   UNL     1      -2.692  -2.005   8.432  0.00  0.00    +0.058 N 
ATOM     32  O   UNL     1      -3.717  -2.635   8.243  0.00  0.00    -0.126 OA
ATOM     33  O   UNL     1      -2.261  -1.867   9.563  0.00  0.00    -0.126 OA
ENDBRANCH  24  31
ENDBRANCH   2  20
TORSDOF 5
