REMARK  Name = ZINC59472560
REMARK  7 active torsions:
REMARK  status: ('A' for Active; 'I' for Inactive)
REMARK    1  A    between atoms: C_12  and  C_14
REMARK    2  A    between atoms: C_14  and  S_15
REMARK    3  A    between atoms: S_15  and  C_16
REMARK    4  A    between atoms: C_21  and  N_25
REMARK    5  A    between atoms: C_26  and  C_27
REMARK    6  A    between atoms: C_30  and  O_36
REMARK    7  A    between atoms: C_31  and  N_33
REMARK                            x       y       z     vdW  Elec       q    Type
REMARK                         _______ _______ _______ _____ _____    ______ ____
ROOT
ATOM      1  C   UNL     1       7.731  -6.099   1.431  0.00  0.00    +0.136 A 
ATOM      2  N   UNL     1       8.179  -6.652   0.325  0.00  0.00    -0.233 NA
ATOM      3  C   UNL     1       9.027  -7.702   0.330  0.00  0.00    +0.080 A 
ATOM      4  C   UNL     1       9.577  -8.382  -0.783  0.00  0.00    +0.031 A 
ATOM      5  C   UNL     1      10.423  -9.430  -0.615  0.00  0.00    +0.030 A 
ATOM      6  C   UNL     1      10.785  -9.881   0.661  0.00  0.00    +0.065 A 
ATOM      7  C   UNL     1      10.260  -9.232   1.783  0.00  0.00    +0.045 A 
ATOM      8  C   UNL     1       9.408  -8.175   1.609  0.00  0.00    +0.042 A 
ATOM      9  S   UNL     1       8.530  -7.077   2.696  0.00  0.00    -0.061 S 
ENDROOT
BRANCH   6  10
ATOM     10  N   UNL     1      11.639 -10.940   0.807  0.00  0.00    -0.255 NA
ATOM     11  C   UNL     1      11.478 -12.011   0.083  0.00  0.00    +0.119 C 
BRANCH  11  12
ATOM     12  C   UNL     1      12.396 -13.150   0.240  0.00  0.00    -0.005 A 
ATOM     13  C   UNL     1      13.438 -13.088   1.171  0.00  0.00    +0.013 A 
ATOM     14  C   UNL     1      14.295 -14.156   1.315  0.00  0.00    +0.048 A 
ATOM     15  C   UNL     1      14.125 -15.296   0.537  0.00  0.00    +0.147 A 
ATOM     16  C   UNL     1      13.091 -15.363  -0.389  0.00  0.00    +0.168 A 
ATOM     17  C   UNL     1      12.225 -14.301  -0.536  0.00  0.00    +0.046 A 
BRANCH  16  18
ATOM     18  N   UNL     1      12.916 -16.578  -1.215  0.00  0.00    +0.060 N 
ATOM     19  O   UNL     1      12.017 -16.638  -2.021  0.00  0.00    -0.126 OA
ATOM     20  O   UNL     1      13.672 -17.512  -1.083  0.00  0.00    -0.126 OA
ENDBRANCH  16  18
BRANCH  15  21
ATOM     21  O   UNL     1      14.972 -16.347   0.682  0.00  0.00    -0.504 OA
ATOM     22  H   UNL     1      14.687 -16.994   1.342  0.00  0.00    +0.292 HD
ENDBRANCH  15  21
ENDBRANCH  11  12
ENDBRANCH   6  10
BRANCH   1  23
ATOM     23  S   UNL     1       6.630  -4.737   1.619  0.00  0.00    -0.094 S 
BRANCH  23  24
ATOM     24  C   UNL     1       6.232  -4.257  -0.085  0.00  0.00    +0.111 C 
BRANCH  24  36
ATOM     25  C   UNL     1      -0.017   1.379   0.010  0.00  0.00    +0.000 A 
ATOM     26  C   UNL     1       1.171   2.089   0.002  0.00  0.00    +0.001 A 
ATOM     27  C   UNL     1       2.378   1.423  -0.013  0.00  0.00    +0.009 A 
ATOM     28  C   UNL     1       2.405   0.027  -0.021  0.00  0.00    -0.014 A 
ATOM     29  C   UNL     1       1.205  -0.678  -0.013  0.00  0.00    -0.035 A 
ATOM     30  C   UNL     1       0.002  -0.004   0.002  0.00  0.00    +0.004 A 
ATOM     31  C   UNL     1       1.542  -2.149  -0.024  0.00  0.00    +0.071 C 
ATOM     32  C   UNL     1       3.049  -2.232  -0.040  0.00  0.00    -0.035 A 
ATOM     33  C   UNL     1       3.540  -0.929  -0.037  0.00  0.00    -0.014 A 
ATOM     34  C   UNL     1       4.920  -0.717  -0.051  0.00  0.00    +0.009 A 
ATOM     35  C   UNL     1       5.781  -1.795  -0.066  0.00  0.00    +0.005 A 
ATOM     36  C   UNL     1       5.284  -3.085  -0.068  0.00  0.00    -0.037 A 
ATOM     37  C   UNL     1       3.917  -3.302  -0.054  0.00  0.00    +0.009 A 
ENDBRANCH  24  36
ENDBRANCH  23  24
ENDBRANCH   1  23
TORSDOF 7
