REMARK  Name = ZINC63458037
REMARK  3 active torsions:
REMARK  status: ('A' for Active; 'I' for Inactive)
REMARK    1  A    between atoms: C_7  and  C_10
REMARK    2  A    between atoms: C_10  and  C_11
REMARK    3  A    between atoms: N_16  and  C_17
REMARK                            x       y       z     vdW  Elec       q    Type
REMARK                         _______ _______ _______ _____ _____    ______ ____
ROOT
ATOM      1  C   UNL     1       0.440  -3.641  -1.431  0.00  0.00    +0.169 C 
ATOM      2  N   UNL     1      -0.214  -2.587  -2.232  0.00  0.00    -0.220 NA
ATOM      3  N   UNL     1      -1.391  -3.120  -2.673  0.00  0.00    -0.260 N 
ATOM      4  C   UNL     1      -1.542  -4.378  -2.239  0.00  0.00    +0.152 C 
ATOM      5  N   UNL     1      -0.494  -4.776  -1.489  0.00  0.00    -0.264 N 
ATOM      6  S   UNL     1      -2.897  -5.362  -2.595  0.00  0.00    -0.017 S 
ATOM      7  H   UNL     1      -0.377  -1.760  -1.678  0.00  0.00    +0.146 HD
ATOM      8  H   UNL     1      -2.033  -2.650  -3.227  0.00  0.00    +0.168 HD
ENDROOT
BRANCH   5   9
ATOM      9  C   UNL     1      -0.326  -6.027  -0.882  0.00  0.00    +0.041 A 
ATOM     10  C   UNL     1       0.686  -6.876  -1.309  0.00  0.00    +0.027 A 
ATOM     11  C   UNL     1       0.852  -8.111  -0.712  0.00  0.00    +0.051 A 
ATOM     12  C   UNL     1       0.008  -8.506   0.316  0.00  0.00    +0.162 A 
ATOM     13  C   UNL     1      -1.005  -7.658   0.747  0.00  0.00    +0.164 A 
ATOM     14  C   UNL     1      -1.168  -6.417   0.150  0.00  0.00    +0.073 A 
ATOM     15  O   UNL     1      -1.837  -8.025   1.759  0.00  0.00    -0.485 OA
ATOM     16  C   UNL     1      -1.879  -9.418   2.085  0.00  0.00    +0.270 C 
ATOM     17  C   UNL     1      -0.437  -9.937   2.163  0.00  0.00    +0.270 C 
ATOM     18  O   UNL     1       0.184  -9.729   0.890  0.00  0.00    -0.485 OA
ENDBRANCH   5   9
BRANCH   1  19
ATOM     19  C   UNL     1       0.627  -3.175   0.015  0.00  0.00    +0.073 C 
BRANCH  19  26
ATOM     20  C   UNL     1      -0.143   1.348   0.044  0.00  0.00    +0.001 A 
ATOM     21  C   UNL     1       1.029   2.117   0.073  0.00  0.00    +0.002 A 
ATOM     22  C   UNL     1       2.262   1.568   0.091  0.00  0.00    +0.026 A 
ATOM     23  C   UNL     1       2.419   0.155   0.080  0.00  0.00    +0.043 A 
ATOM     24  N   UNL     1       3.487  -0.605   0.092  0.00  0.00    -0.380 N 
ATOM     25  C   UNL     1       3.063  -2.009   0.071  0.00  0.00    +0.144 C 
ATOM     26  C   UNL     1       1.551  -1.986   0.044  0.00  0.00    -0.038 C 
ATOM     27  C   UNL     1       1.197  -0.680   0.050  0.00  0.00    -0.001 A 
ATOM     28  C   UNL     1      -0.106  -0.004   0.033  0.00  0.00    +0.010 A 
ATOM     29  H   UNL     1       4.405  -0.291   0.112  0.00  0.00    +0.160 HD
ENDBRANCH  19  26
ENDBRANCH   1  19
TORSDOF 3
