REMARK  Name = ZINC30005720
REMARK  7 active torsions:
REMARK  status: ('A' for Active; 'I' for Inactive)
REMARK    1  A    between atoms: C_1  and  C_2
REMARK    2  A    between atoms: C_2  and  C_4
REMARK    3  A    between atoms: C_2  and  N_13
REMARK    4  A    between atoms: N_13  and  C_14
REMARK    5  A    between atoms: N_13  and  C_15
REMARK    6  A    between atoms: C_15  and  C_16
REMARK    7  A    between atoms: C_29  and  C_31
REMARK                            x       y       z     vdW  Elec       q    Type
REMARK                         _______ _______ _______ _____ _____    ______ ____
ROOT
ATOM      1  C   UNL     1       3.808   1.415  -0.372  0.00  0.00    +0.204 C 
ATOM      2  O   UNL     1       4.401   1.457   0.685  0.00  0.00    -0.277 OA
ATOM      3  N   UNL     1       2.672   2.123  -0.536  0.00  0.00    -0.259 N 
ATOM      4  C   UNL     1       1.976   2.084  -1.751  0.00  0.00    +0.058 A 
ATOM      5  C   UNL     1       2.472   2.735  -2.870  0.00  0.00    +0.025 A 
ATOM      6  C   UNL     1       1.751   2.720  -4.050  0.00  0.00    +0.002 A 
ATOM      7  C   UNL     1       0.538   2.059  -4.119  0.00  0.00    +0.002 A 
ATOM      8  C   UNL     1       0.043   1.396  -3.011  0.00  0.00    +0.025 A 
ATOM      9  C   UNL     1       0.763   1.398  -1.828  0.00  0.00    +0.055 A 
ATOM     10  N   UNL     1       0.297   0.713  -0.700  0.00  0.00    -0.284 N 
ATOM     11  C   UNL     1       0.258   1.323   0.506  0.00  0.00    +0.219 C 
ATOM     12  O   UNL     1      -0.075   0.693   1.488  0.00  0.00    -0.275 OA
ATOM     13  C   UNL     1       0.625   2.777   0.639  0.00  0.00    +0.128 C 
ATOM     14  C   UNL     1       2.143   2.947   0.551  0.00  0.00    +0.194 C 
ATOM     15  H   UNL     1      -0.043  -0.329  -0.790  0.00  0.00    +0.155 HD
ENDROOT
BRANCH  14  16
ATOM     16  C   UNL     1       2.475   4.416   0.283  0.00  0.00    +0.409 C 
ATOM     17  F   UNL     1       1.977   5.205   1.326  0.00  0.00    -0.169 F 
ATOM     18  F   UNL     1       3.863   4.573   0.203  0.00  0.00    -0.169 F 
ATOM     19  F   UNL     1       1.890   4.814  -0.923  0.00  0.00    -0.169 F 
ENDBRANCH  14  16
BRANCH   1  20
ATOM     20  C   UNL     1       4.340   0.571  -1.501  0.00  0.00    +0.020 C 
BRANCH  20  21
ATOM     21  N   UNL     1       5.578  -0.095  -1.074  0.00  0.00    +0.390 N 
ATOM     22  C   UNL     1       5.310  -1.068  -0.007  0.00  0.00    -0.095 C 
ATOM     23  H   UNL     1       6.253   0.674  -0.669  0.00  0.00    -0.081 HD
BRANCH  21  25
ATOM     24  C   UNL     1       7.580  -1.333  -1.747  0.00  0.00    -0.005 C 
ATOM     25  C   UNL     1       6.252  -0.733  -2.212  0.00  0.00    -0.004 C 
BRANCH  25  26
ATOM     26  C   UNL     1       6.512   0.294  -3.283  0.00  0.00    +0.093 A 
ATOM     27  C   UNL     1       6.271   0.119  -4.590  0.00  0.00    +0.051 A 
ATOM     28  C   UNL     1       6.670   1.367  -5.251  0.00  0.00    +0.020 A 
ATOM     29  C   UNL     1       6.670   1.814  -6.571  0.00  0.00    +0.011 A 
ATOM     30  C   UNL     1       7.121   3.072  -6.861  0.00  0.00    +0.001 A 
ATOM     31  C   UNL     1       7.579   3.904  -5.850  0.00  0.00    +0.004 A 
ATOM     32  C   UNL     1       7.587   3.479  -4.539  0.00  0.00    +0.047 A 
ATOM     33  C   UNL     1       7.132   2.205  -4.223  0.00  0.00    +0.135 A 
ATOM     34  O   UNL     1       7.014   1.523  -3.066  0.00  0.00    -0.461 OA
ENDBRANCH  25  26
ENDBRANCH  21  25
ENDBRANCH  20  21
ENDBRANCH   1  20
TORSDOF 5
