REMARK  Name = ZINC48212902
REMARK  6 active torsions:
REMARK  status: ('A' for Active; 'I' for Inactive)
REMARK    1  A    between atoms: C_3  and  C_6
REMARK    2  A    between atoms: C_6  and  N_7
REMARK    3  A    between atoms: C_8  and  C_10
REMARK    4  A    between atoms: C_10  and  N_11
REMARK    5  A    between atoms: N_14  and  C_15
REMARK    6  A    between atoms: C_15  and  C_16
REMARK                            x       y       z     vdW  Elec       q    Type
REMARK                         _______ _______ _______ _____ _____    ______ ____
ROOT
ATOM      1  N   UNL     1       7.408   0.522   2.981  0.00  0.00    -0.291 N 
ATOM      2  C   UNL     1       8.094   0.500   4.141  0.00  0.00    +0.300 C 
ATOM      3  O   UNL     1       7.496   0.509   5.200  0.00  0.00    -0.253 OA
ATOM      4  N   UNL     1       9.441   0.469   4.128  0.00  0.00    -0.294 N 
ATOM      5  H   UNL     1       7.885   0.515   2.136  0.00  0.00    +0.151 HD
ATOM      6  H   UNL     1       9.918   0.462   3.283  0.00  0.00    +0.151 HD
ENDROOT
BRANCH   1   7
ATOM      7  C   UNL     1       5.944   0.555   2.996  0.00  0.00    +0.201 C 
BRANCH   7   9
ATOM      8  N   UNL     1       4.101   0.607   1.347  0.00  0.00    -0.307 N 
ATOM      9  C   UNL     1       5.428   0.575   1.580  0.00  0.00    +0.231 C 
ATOM     10  O   UNL     1       6.207   0.561   0.650  0.00  0.00    -0.274 OA
ATOM     11  H   UNL     1       3.478   0.617   2.090  0.00  0.00    +0.149 HD
BRANCH   8  12
ATOM     12  C   UNL     1       3.599   0.625  -0.029  0.00  0.00    +0.178 C 
BRANCH  12  15
ATOM     13  C   UNL     1      -0.016   1.341   0.009  0.00  0.00    +0.041 A 
ATOM     14  C   UNL     1       1.331   1.769  -0.001  0.00  0.00    +0.046 A 
ATOM     15  C   UNL     1       2.092   0.660  -0.014  0.00  0.00    +0.122 A 
ATOM     16  O   UNL     1       1.282  -0.411  -0.012  0.00  0.00    -0.466 OA
ATOM     17  C   UNL     1       0.002  -0.004   0.002  0.00  0.00    +0.195 A 
ENDBRANCH  12  15
ENDBRANCH   8  12
ENDBRANCH   7   9
ENDBRANCH   1   7
BRANCH   4  18
ATOM     18  C   UNL     1      10.186   0.445   5.389  0.00  0.00    +0.162 C 
BRANCH  18  19
ATOM     19  C   UNL     1      11.664   0.412   5.099  0.00  0.00    +0.077 A 
ATOM     20  C   UNL     1      12.482   1.487   5.052  0.00  0.00    +0.117 A 
ATOM     21  N   UNL     1      13.738   1.026   4.761  0.00  0.00    -0.305 N 
ATOM     22  C   UNL     1      14.937   1.657   4.595  0.00  0.00    +0.112 A 
ATOM     23  C   UNL     1      16.051   0.951   4.305  0.00  0.00    +0.058 A 
ATOM     24  C   UNL     1      15.989  -0.447   4.173  0.00  0.00    +0.025 A 
ATOM     25  C   UNL     1      14.800  -1.087   4.337  0.00  0.00    +0.048 A 
ATOM     26  C   UNL     1      13.646  -0.336   4.638  0.00  0.00    +0.138 A 
ATOM     27  N   UNL     1      12.385  -0.684   4.852  0.00  0.00    -0.231 NA
ATOM     28 CL   UNL     1      17.566   1.772   4.096  0.00  0.00    -0.082 Cl
ENDBRANCH  18  19
ENDBRANCH   4  18
TORSDOF 6
