REMARK  Name = ZINC20382691
REMARK  11 active torsions:
REMARK  status: ('A' for Active; 'I' for Inactive)
REMARK    1  A    between atoms: C_1  and  C_2
REMARK    2  A    between atoms: C_2  and  O_3
REMARK    3  A    between atoms: O_3  and  C_4
REMARK    4  A    between atoms: C_4  and  C_5
REMARK    5  A    between atoms: C_4  and  O_32
REMARK    6  A    between atoms: C_5  and  N_6
REMARK    7  A    between atoms: C_7  and  C_9
REMARK    8  A    between atoms: N_23  and  C_24
REMARK    9  A    between atoms: C_24  and  C_25
REMARK   10  A    between atoms: O_32  and  C_33
REMARK   11  A    between atoms: C_33  and  C_34
REMARK                            x       y       z     vdW  Elec       q    Type
REMARK                         _______ _______ _______ _____ _____    ______ ____
ROOT
ATOM      1  C   UNL     1       2.458   9.629   1.030  0.00  0.00    +0.078 C 
ATOM      2  C   UNL     1       1.522   9.090  -0.056  0.00  0.00    +0.032 C 
ATOM      3  C   UNL     1       1.139   7.647   0.278  0.00  0.00    +0.108 C 
ATOM      4  N   UNL     1       2.352   6.823   0.357  0.00  0.00    -0.302 N 
ATOM      5  C   UNL     1       3.245   7.292   1.424  0.00  0.00    +0.108 C 
ATOM      6  C   UNL     1       3.691   8.725   1.125  0.00  0.00    +0.032 C 
ATOM      7  C   UNL     1       2.035   5.492   0.528  0.00  0.00    +0.177 A 
ATOM      8  N   UNL     1       1.282   5.015   1.487  0.00  0.00    -0.327 N 
ATOM      9  C   UNL     1       1.177   3.666   1.357  0.00  0.00    +0.065 A 
ATOM     10  C   UNL     1       0.511   2.680   2.090  0.00  0.00    +0.028 A 
ATOM     11  C   UNL     1       0.592   1.363   1.696  0.00  0.00    +0.002 A 
ATOM     12  C   UNL     1       1.339   1.006   0.583  0.00  0.00    +0.002 A 
ATOM     13  C   UNL     1       2.002   1.968  -0.151  0.00  0.00    +0.028 A 
ATOM     14  C   UNL     1       1.927   3.300   0.228  0.00  0.00    +0.068 A 
ATOM     15  N   UNL     1       2.459   4.474  -0.278  0.00  0.00    -0.309 N 
ATOM     16  H   UNL     1       0.849   5.694   2.236  0.00  0.00    +0.169 HD
ENDROOT
BRANCH   1  18
ATOM     17  N   UNL     1       3.718  11.707   1.493  0.00  0.00    -0.310 N 
ATOM     18  C   UNL     1       2.887  11.029   0.676  0.00  0.00    +0.216 C 
ATOM     19  O   UNL     1       2.485  11.547  -0.344  0.00  0.00    -0.276 OA
ATOM     20  H   UNL     1       4.083  11.237   2.418  0.00  0.00    +0.149 HD
BRANCH  17  21
ATOM     21  C   UNL     1       4.135  13.068   1.149  0.00  0.00    +0.165 C 
BRANCH  21  22
ATOM     22  C   UNL     1       5.070  13.605   2.234  0.00  0.00    +0.267 C 
BRANCH  22  23
ATOM     23  O   UNL     1       4.385  13.619   3.489  0.00  0.00    -0.350 OA
BRANCH  23  25
ATOM     24  C   UNL     1       4.153  14.450   5.746  0.00  0.00    +0.034 C 
ATOM     25  C   UNL     1       4.863  14.610   4.401  0.00  0.00    +0.159 C 
ENDBRANCH  23  25
ENDBRANCH  22  23
BRANCH  22  26
ATOM     26  O   UNL     1       6.221  12.764   2.330  0.00  0.00    -0.350 OA
BRANCH  26  27
ATOM     27  C   UNL     1       7.267  13.301   3.143  0.00  0.00    +0.159 C 
ATOM     28  C   UNL     1       8.502  12.403   3.042  0.00  0.00    +0.034 C 
ENDBRANCH  26  27
ENDBRANCH  22  26
ENDBRANCH  21  22
ENDBRANCH  17  21
ENDBRANCH   1  18
BRANCH  15  29
ATOM     29  C   UNL     1       3.318   4.601  -1.458  0.00  0.00    +0.163 C 
BRANCH  29  30
ATOM     30  C   UNL     1       2.475   4.956  -2.657  0.00  0.00    +0.007 A 
ATOM     31  C   UNL     1       2.410   6.266  -3.092  0.00  0.00    +0.008 A 
ATOM     32  C   UNL     1       1.638   6.592  -4.192  0.00  0.00    +0.000 A 
ATOM     33  C   UNL     1       0.930   5.608  -4.857  0.00  0.00    +0.003 A 
ATOM     34  C   UNL     1       0.995   4.297  -4.423  0.00  0.00    +0.039 A 
ATOM     35  C   UNL     1       1.771   3.969  -3.325  0.00  0.00    +0.128 A 
ATOM     36  F   UNL     1       1.839   2.687  -2.903  0.00  0.00    -0.205 F 
ENDBRANCH  29  30
ENDBRANCH  15  29
TORSDOF 9
