REMARK  Name = ZINC12780025
REMARK  9 active torsions:
REMARK  status: ('A' for Active; 'I' for Inactive)
REMARK    1  A    between atoms: C_1  and  C_2
REMARK    2  A    between atoms: C_5  and  C_8
REMARK    3  A    between atoms: N_15  and  C_18
REMARK    4  A    between atoms: C_18  and  C_19
REMARK    5  A    between atoms: C_19  and  C_21
REMARK    6  A    between atoms: C_19  and  O_30
REMARK    7  A    between atoms: C_21  and  O_22
REMARK    8  A    between atoms: O_22  and  C_23
REMARK    9  A    between atoms: C_27  and  C_29
REMARK                            x       y       z     vdW  Elec       q    Type
REMARK                         _______ _______ _______ _____ _____    ______ ____
ROOT
ATOM      1  C   UNL     1      -1.091   3.997   6.395  0.00  0.00    +0.004 A 
ATOM      2  C   UNL     1      -1.923   4.128   7.457  0.00  0.00    +0.056 A 
ATOM      3  S   UNL     1      -2.968   2.689   7.343  0.00  0.00    -0.076 S 
ATOM      4  C   UNL     1      -2.271   1.951   5.888  0.00  0.00    +0.116 A 
ATOM      5  C   UNL     1      -1.245   2.838   5.524  0.00  0.00    +0.080 A 
ATOM      6  C   UNL     1      -0.497   2.475   4.358  0.00  0.00    +0.263 A 
ATOM      7  O   UNL     1       0.417   3.180   3.966  0.00  0.00    -0.267 OA
ATOM      8  N   UNL     1      -0.821   1.347   3.700  0.00  0.00    -0.296 N 
ATOM      9  C   UNL     1      -1.833   0.548   4.125  0.00  0.00    +0.203 A 
ATOM     10  N   UNL     1      -2.530   0.850   5.188  0.00  0.00    -0.230 NA
ENDROOT
BRANCH   1  15
ATOM     11  C   UNL     1       2.971   7.940   5.346  0.00  0.00    +0.044 C 
ATOM     12  C   UNL     1       1.908   6.908   5.620  0.00  0.00    -0.050 A 
ATOM     13  C   UNL     1       0.602   7.306   5.842  0.00  0.00    +0.004 A 
ATOM     14  C   UNL     1      -0.376   6.366   6.093  0.00  0.00    +0.009 A 
ATOM     15  C   UNL     1      -0.046   5.012   6.125  0.00  0.00    -0.017 A 
ATOM     16  C   UNL     1       1.273   4.617   5.906  0.00  0.00    +0.009 A 
ATOM     17  C   UNL     1       2.242   5.566   5.651  0.00  0.00    +0.004 A 
ENDBRANCH   1  15
BRANCH   8  18
ATOM     18  C   UNL     1      -0.064   0.971   2.503  0.00  0.00    +0.161 C 
BRANCH  18  19
ATOM     19  C   UNL     1      -0.729   1.579   1.267  0.00  0.00    +0.172 C 
BRANCH  19  20
ATOM     20  O   UNL     1      -0.647   3.004   1.334  0.00  0.00    -0.387 OA
ATOM     21  H   UNL     1       0.258   3.345   1.368  0.00  0.00    +0.210 HD
ENDBRANCH  19  20
BRANCH  19  22
ATOM     22  C   UNL     1      -0.013   1.086   0.008  0.00  0.00    +0.262 C 
BRANCH  22  23
ATOM     23  O   UNL     1      -0.704   1.559  -1.150  0.00  0.00    -0.489 OA
BRANCH  23  24
ATOM     24  C   UNL     1      -0.194   1.208  -2.359  0.00  0.00    +0.121 A 
ATOM     25  C   UNL     1       0.948   0.423  -2.431  0.00  0.00    +0.045 A 
ATOM     26  C   UNL     1       1.464   0.067  -3.661  0.00  0.00    +0.004 A 
ATOM     27  C   UNL     1       0.844   0.491  -4.822  0.00  0.00    +0.003 A 
ATOM     28  C   UNL     1      -0.295   1.273  -4.753  0.00  0.00    -0.047 A 
ATOM     29  C   UNL     1      -0.818   1.628  -3.525  0.00  0.00    +0.049 A 
ATOM     30  C   UNL     1      -0.969   1.733  -6.020  0.00  0.00    +0.044 C 
ENDBRANCH  23  24
ENDBRANCH  22  23
ENDBRANCH  19  22
ENDBRANCH  18  19
ENDBRANCH   8  18
TORSDOF 7
