REMARK  Name = ZINC39939034
REMARK  9 active torsions:
REMARK  status: ('A' for Active; 'I' for Inactive)
REMARK    1  A    between atoms: C_1  and  C_2
REMARK    2  A    between atoms: C_2  and  O_3
REMARK    3  A    between atoms: O_3  and  C_4
REMARK    4  A    between atoms: C_4  and  C_6
REMARK    5  A    between atoms: C_7  and  N_36
REMARK    6  A    between atoms: C_21  and  C_35
REMARK    7  A    between atoms: C_28  and  C_33
REMARK    8  A    between atoms: C_28  and  C_34
REMARK    9  A    between atoms: C_30  and  C_32
REMARK                            x       y       z     vdW  Elec       q    Type
REMARK                         _______ _______ _______ _____ _____    ______ ____
ROOT
ATOM      1  C   UNL     1       1.444  -2.348   2.434  0.00  0.00    +0.114 C 
ATOM      2  C   UNL     1       1.478  -3.693   2.590  0.00  0.00    +0.197 C 
ATOM      3  O   UNL     1       2.100  -4.287   3.631  0.00  0.00    -0.429 OA
ATOM      4  C   UNL     1       2.894  -3.507   4.399  0.00  0.00    +0.203 C 
ATOM      5  N   UNL     1       4.030  -3.944   4.839  0.00  0.00    -0.159 NA
ATOM      6  C   UNL     1       4.850  -3.180   5.577  0.00  0.00    +0.183 C 
ATOM      7  S   UNL     1       6.316  -3.847   6.159  0.00  0.00    -0.015 S 
ATOM      8  N   UNL     1       4.550  -1.905   5.870  0.00  0.00    -0.156 NA
ATOM      9  C   UNL     1       3.433  -1.358   5.497  0.00  0.00    +0.252 C 
ATOM     10  O   UNL     1       3.196  -0.074   5.818  0.00  0.00    -0.273 OA
ATOM     11  C   UNL     1       2.399  -2.116   4.717  0.00  0.00    +0.184 C 
ATOM     12  C   UNL     1       2.121  -1.408   3.388  0.00  0.00    +0.130 C 
ATOM     13  C   UNL     1       1.308  -0.173   3.603  0.00  0.00    -0.005 A 
ATOM     14  C   UNL     1       0.052   0.081   4.108  0.00  0.00    +0.010 A 
ATOM     15  C   UNL     1      -0.359   1.412   4.145  0.00  0.00    -0.050 A 
ATOM     16  C   UNL     1       0.443   2.452   3.697  0.00  0.00    +0.009 A 
ATOM     17  C   UNL     1       1.697   2.203   3.192  0.00  0.00    -0.022 A 
ATOM     18  C   UNL     1       2.108   0.871   3.157  0.00  0.00    +0.045 A 
ATOM     19  N   UNL     1       3.340   0.425   2.686  0.00  0.00    -0.264 N 
ATOM     20  C   UNL     1       3.426  -0.911   2.787  0.00  0.00    +0.237 C 
ATOM     21  O   UNL     1       4.371  -1.596   2.457  0.00  0.00    -0.274 OA
ATOM     22  C   UNL     1       4.332   1.388   2.176  0.00  0.00    +0.037 C 
ATOM     23  C   UNL     1       4.096   2.736   2.867  0.00  0.00    +0.033 C 
ATOM     24  C   UNL     1       2.659   3.231   2.674  0.00  0.00    +0.020 C 
ATOM     25  C   UNL     1       2.465   4.542   3.440  0.00  0.00    +0.012 C 
ATOM     26  C   UNL     1       5.744   0.888   2.490  0.00  0.00    +0.032 C 
ATOM     27  C   UNL     1       4.165   1.547   0.664  0.00  0.00    +0.032 C 
ATOM     28  C   UNL     1      -1.726   1.735   4.691  0.00  0.00    +0.044 C 
ENDROOT
BRANCH   2  29
ATOM     29  N   UNL     1       0.857  -4.481   1.658  0.00  0.00    -0.329 N 
ATOM     30  H   UNL     1       0.484  -4.081   0.857  0.00  0.00    +0.145 HD
ATOM     31  H   UNL     1       0.790  -5.438   1.799  0.00  0.00    +0.145 HD
ENDBRANCH   2  29
BRANCH   1  32
ATOM     32  C   UNL     1       0.753  -1.813   1.335  0.00  0.00    +0.341 C 
ATOM     33  O   UNL     1       1.369  -1.430   0.356  0.00  0.00    -0.245 OA
BRANCH  32  34
ATOM     34  O   UNL     1      -0.594  -1.724   1.362  0.00  0.00    -0.462 OA
BRANCH  34  36
ATOM     35  C   UNL     1      -2.746  -1.150   0.423  0.00  0.00    +0.048 C 
ATOM     36  C   UNL     1      -1.231  -1.170   0.209  0.00  0.00    +0.229 C 
ENDBRANCH  34  36
ENDBRANCH  32  34
ENDBRANCH   1  32
TORSDOF 4
