REMARK  Name = ZINC63111119
REMARK  8 active torsions:
REMARK  status: ('A' for Active; 'I' for Inactive)
REMARK    1  A    between atoms: C_1  and  C_2
REMARK    2  A    between atoms: C_5  and  O_11
REMARK    3  A    between atoms: C_6  and  N_8
REMARK    4  A    between atoms: O_11  and  C_12
REMARK    5  A    between atoms: C_12  and  C_13
REMARK    6  A    between atoms: C_16  and  C_18
REMARK    7  A    between atoms: N_20  and  C_21
REMARK    8  A    between atoms: C_21  and  C_22
REMARK                            x       y       z     vdW  Elec       q    Type
REMARK                         _______ _______ _______ _____ _____    ______ ____
ROOT
ATOM      1  C   UNL     1       0.081  -6.266  -1.108  0.00  0.00    +0.143 A 
ATOM      2  C   UNL     1      -1.007  -7.062  -1.009  0.00  0.00    +0.049 A 
ATOM      3  C   UNL     1      -0.543  -8.376  -0.843  0.00  0.00    +0.055 A 
ATOM      4  C   UNL     1       0.821  -8.315  -0.849  0.00  0.00    +0.190 A 
ATOM      5  O   UNL     1       1.180  -7.025  -1.016  0.00  0.00    -0.452 OA
ENDROOT
BRANCH   4   6
ATOM      6  C   UNL     1       1.735  -9.452  -0.704  0.00  0.00    +0.279 C 
ATOM      7  O   UNL     1       1.291 -10.576  -0.562  0.00  0.00    -0.267 OA
ATOM      8  N   UNL     1       3.068  -9.253  -0.728  0.00  0.00    -0.307 N 
ATOM      9  H   UNL     1       3.422  -8.357  -0.841  0.00  0.00    +0.149 HD
BRANCH   8  10
ATOM     10  C   UNL     1       3.981 -10.389  -0.583  0.00  0.00    +0.133 C 
BRANCH  10  11
ATOM     11  C   UNL     1       5.427  -9.892  -0.644  0.00  0.00    +0.120 C 
ATOM     12  C   UNL     1       6.380 -11.019  -0.316  0.00  0.00    +0.009 C 
ATOM     13  C   UNL     1       7.057 -10.628   0.787  0.00  0.00    -0.003 A 
ATOM     14  C   UNL     1       8.107 -11.268   1.589  0.00  0.00    +0.029 A 
ATOM     15  C   UNL     1       8.603 -10.614   2.665  0.00  0.00    +0.042 A 
ATOM     16  C   UNL     1       8.139  -9.342   3.032  0.00  0.00    +0.022 A 
ATOM     17  C   UNL     1       7.177  -8.691   2.345  0.00  0.00    +0.027 A 
ATOM     18  C   UNL     1       6.585  -9.286   1.196  0.00  0.00    +0.043 A 
ATOM     19  N   UNL     1       5.652  -8.863   0.377  0.00  0.00    -0.376 N 
ATOM     20 CL   UNL     1       9.845 -11.368   3.615  0.00  0.00    -0.084 Cl
ATOM     21  H   UNL     1       5.188  -8.013   0.435  0.00  0.00    +0.160 HD
ENDBRANCH  10  11
ENDBRANCH   8  10
ENDBRANCH   4   6
BRANCH   1  22
ATOM     22  C   UNL     1       0.060  -4.771  -1.298  0.00  0.00    +0.303 C 
BRANCH  22  23
ATOM     23  O   UNL     1       0.058  -4.129  -0.021  0.00  0.00    -0.482 OA
BRANCH  23  28
ATOM     24  C   UNL     1      -0.018   1.503   0.010  0.00  0.00    +0.044 C 
ATOM     25  C   UNL     1       0.002  -0.004   0.002  0.00  0.00    -0.048 A 
ATOM     26  C   UNL     1       0.006  -0.688  -1.200  0.00  0.00    +0.007 A 
ATOM     27  C   UNL     1       0.025  -2.069  -1.210  0.00  0.00    +0.048 A 
ATOM     28  C   UNL     1       0.040  -2.770  -0.013  0.00  0.00    +0.151 A 
ATOM     29  C   UNL     1       0.037  -2.082   1.191  0.00  0.00    +0.168 A 
ATOM     30  C   UNL     1       0.023  -0.701   1.196  0.00  0.00    +0.039 A 
BRANCH  29  31
ATOM     31  N   UNL     1       0.053  -2.827   2.470  0.00  0.00    +0.060 N 
ATOM     32  O   UNL     1       0.050  -2.227   3.519  0.00  0.00    -0.126 OA
ATOM     33  O   UNL     1       0.069  -4.036   2.465  0.00  0.00    -0.126 OA
ENDBRANCH  29  31
ENDBRANCH  23  28
ENDBRANCH  22  23
ENDBRANCH   1  22
TORSDOF 7
