REMARK  Name = ZINC38590898
REMARK  5 active torsions:
REMARK  status: ('A' for Active; 'I' for Inactive)
REMARK    1  A    between atoms: C_1  and  C_2
REMARK    2  A    between atoms: C_4  and  C_33
REMARK    3  A    between atoms: C_13  and  C_26
REMARK    4  A    between atoms: N_15  and  C_18
REMARK    5  A    between atoms: C_18  and  C_19
REMARK                            x       y       z     vdW  Elec       q    Type
REMARK                         _______ _______ _______ _____ _____    ______ ____
ROOT
ATOM      1  C   UNL     1      -0.523   1.450   0.038  0.00  0.00    +0.044 C 
ATOM      2  C   UNL     1      -0.237  -0.029   0.015  0.00  0.00    -0.047 A 
ATOM      3  C   UNL     1      -0.233  -0.708  -1.195  0.00  0.00    +0.007 A 
ATOM      4  C   UNL     1       0.027  -2.050  -1.231  0.00  0.00    -0.036 A 
ATOM      5  C   UNL     1       0.289  -2.735  -0.045  0.00  0.00    +0.067 A 
ATOM      6  C   UNL     1       0.282  -2.060   1.186  0.00  0.00    +0.140 A 
ATOM      7  C   UNL     1       0.022  -0.690   1.195  0.00  0.00    +0.050 A 
ATOM      8  O   UNL     1       0.518  -2.692   2.358  0.00  0.00    -0.450 OA
ATOM      9  C   UNL     1       1.001  -3.950   2.351  0.00  0.00    +0.199 A 
ATOM     10  C   UNL     1       1.051  -4.714   1.220  0.00  0.00    +0.072 A 
ATOM     11  C   UNL     1       0.581  -4.191  -0.067  0.00  0.00    +0.199 A 
ATOM     12  O   UNL     1       0.444  -4.884  -1.059  0.00  0.00    -0.287 OA
ATOM     13  C   UNL     1       1.631  -6.039   1.591  0.00  0.00    +0.145 C 
ATOM     14  N   UNL     1       1.915  -5.964   3.033  0.00  0.00    -0.279 N 
ATOM     15  C   UNL     1       1.545  -4.742   3.468  0.00  0.00    +0.283 C 
ATOM     16  O   UNL     1       1.646  -4.351   4.614  0.00  0.00    -0.267 OA
ATOM     17  C   UNL     1       0.031  -2.784  -2.547  0.00  0.00    +0.044 C 
ENDROOT
BRANCH  13  18
ATOM     18  C   UNL     1       0.638  -7.138   1.312  0.00  0.00    -0.022 A 
ATOM     19  C   UNL     1      -0.408  -7.362   2.188  0.00  0.00    +0.008 A 
ATOM     20  C   UNL     1      -1.320  -8.369   1.933  0.00  0.00    +0.038 A 
ATOM     21  C   UNL     1      -1.185  -9.153   0.800  0.00  0.00    +0.123 A 
ATOM     22  C   UNL     1      -0.137  -8.928  -0.076  0.00  0.00    +0.038 A 
ATOM     23  C   UNL     1       0.770  -7.917   0.178  0.00  0.00    +0.008 A 
ATOM     24  F   UNL     1      -2.076 -10.139   0.550  0.00  0.00    -0.205 F 
ENDBRANCH  13  18
BRANCH  14  25
ATOM     25  C   UNL     1       2.498  -7.029   3.853  0.00  0.00    +0.144 C 
BRANCH  25  26
ATOM     26  C   UNL     1       3.999  -6.900   3.851  0.00  0.00    -0.030 A 
ATOM     27  C   UNL     1       4.747  -7.544   2.883  0.00  0.00    +0.008 A 
ATOM     28  C   UNL     1       6.124  -7.426   2.881  0.00  0.00    +0.038 A 
ATOM     29  C   UNL     1       6.755  -6.661   3.848  0.00  0.00    +0.123 A 
ATOM     30  C   UNL     1       6.005  -6.016   4.817  0.00  0.00    +0.038 A 
ATOM     31  C   UNL     1       4.628  -6.132   4.814  0.00  0.00    +0.008 A 
ATOM     32  F   UNL     1       8.101  -6.545   3.846  0.00  0.00    -0.205 F 
ENDBRANCH  25  26
ENDBRANCH  14  25
TORSDOF 3
