REMARK  Name = ZINC21138384
REMARK  15 active torsions:
REMARK  status: ('A' for Active; 'I' for Inactive)
REMARK    1  A    between atoms: C_1  and  C_2
REMARK    2  A    between atoms: C_2  and  C_4
REMARK    3  A    between atoms: C_2  and  S_16
REMARK    4  A    between atoms: N_6  and  C_7
REMARK    5  A    between atoms: C_11  and  N_13
REMARK    6  A    between atoms: S_16  and  C_17
REMARK    7  A    between atoms: N_27  and  C_28
REMARK    8  A    between atoms: C_28  and  C_29
REMARK    9  A    between atoms: C_29  and  N_30
REMARK   10  A    between atoms: N_30  and  C_31
REMARK   11  A    between atoms: N_30  and  C_34
REMARK   12  A    between atoms: C_31  and  C_32
REMARK   13  A    between atoms: C_31  and  C_33
REMARK   14  A    between atoms: C_34  and  C_35
REMARK   15  A    between atoms: C_34  and  C_36
REMARK                            x       y       z     vdW  Elec       q    Type
REMARK                         _______ _______ _______ _____ _____    ______ ____
ROOT
ATOM      1  C   UNL     1      -0.117   1.534   3.720  0.00  0.00    +0.173 A 
ATOM      2  N   UNL     1      -0.952   2.542   3.663  0.00  0.00    -0.223 NA
ATOM      3  C   UNL     1      -1.422   3.134   4.779  0.00  0.00    +0.079 A 
ATOM      4  C   UNL     1      -2.313   4.210   4.718  0.00  0.00    +0.028 A 
ATOM      5  C   UNL     1      -2.764   4.780   5.874  0.00  0.00    +0.002 A 
ATOM      6  C   UNL     1      -2.351   4.308   7.113  0.00  0.00    +0.001 A 
ATOM      7  C   UNL     1      -1.480   3.258   7.206  0.00  0.00    +0.015 A 
ATOM      8  C   UNL     1      -1.004   2.656   6.042  0.00  0.00    +0.065 A 
ATOM      9  C   UNL     1      -0.067   1.525   6.080  0.00  0.00    +0.262 A 
ATOM     10  O   UNL     1       0.329   1.068   7.137  0.00  0.00    -0.267 OA
ATOM     11  N   UNL     1       0.334   1.005   4.896  0.00  0.00    -0.289 N 
ENDROOT
BRANCH   1  12
ATOM     12  S   UNL     1       0.445   0.821   2.210  0.00  0.00    -0.075 S 
BRANCH  12  14
ATOM     13  C   UNL     1       0.129   3.246   0.983  0.00  0.00    +0.029 C 
ATOM     14  C   UNL     1      -0.380   1.804   0.927  0.00  0.00    +0.137 C 
BRANCH  14  15
ATOM     15  C   UNL     1      -0.079   1.217  -0.427  0.00  0.00    +0.230 C 
ATOM     16  O   UNL     1       0.879   0.487  -0.572  0.00  0.00    -0.274 OA
ATOM     17  N   UNL     1      -0.873   1.503  -1.478  0.00  0.00    -0.285 N 
ATOM     18  H   UNL     1      -1.675   2.034  -1.349  0.00  0.00    +0.155 HD
BRANCH  17  19
ATOM     19  C   UNL     1      -0.542   1.034  -2.754  0.00  0.00    +0.036 A 
ATOM     20  C   UNL     1      -0.806   1.814  -3.872  0.00  0.00    +0.023 A 
ATOM     21  C   UNL     1      -0.478   1.348  -5.130  0.00  0.00    +0.004 A 
ATOM     22  C   UNL     1       0.113   0.106  -5.277  0.00  0.00    +0.033 A 
ATOM     23  C   UNL     1       0.377  -0.673  -4.165  0.00  0.00    +0.128 A 
ATOM     24  C   UNL     1       0.057  -0.210  -2.904  0.00  0.00    +0.056 A 
BRANCH  23  25
ATOM     25  N   UNL     1       1.008  -2.002  -4.327  0.00  0.00    +0.056 N 
ATOM     26  O   UNL     1       1.293  -2.405  -5.431  0.00  0.00    -0.126 OA
ATOM     27  O   UNL     1       1.239  -2.683  -3.356  0.00  0.00    -0.126 OA
ENDBRANCH  23  25
ENDBRANCH  17  19
ENDBRANCH  14  15
ENDBRANCH  12  14
ENDBRANCH   1  12
BRANCH  11  28
ATOM     28  C   UNL     1       1.262  -0.128   4.876  0.00  0.00    +0.109 C 
BRANCH  28  29
ATOM     29  C   UNL     1       2.701   0.392   4.853  0.00  0.00    -0.056 C 
BRANCH  29  30
ATOM     30  N   UNL     1       3.629  -0.739   4.722  0.00  0.00    +0.384 N 
ATOM     31  H   UNL     1       3.363  -1.302   3.927  0.00  0.00    -0.081 HD
BRANCH  30  32
ATOM     32  C   UNL     1       4.994  -0.233   4.529  0.00  0.00    -0.074 C 
ATOM     33  C   UNL     1       5.937  -1.405   4.248  0.00  0.00    -0.014 C 
ATOM     34  C   UNL     1       5.017   0.736   3.346  0.00  0.00    -0.014 C 
ENDBRANCH  30  32
BRANCH  30  35
ATOM     35  C   UNL     1       3.577  -1.558   5.940  0.00  0.00    -0.074 C 
ATOM     36  C   UNL     1       3.190  -0.678   7.130  0.00  0.00    -0.014 C 
ATOM     37  C   UNL     1       2.536  -2.666   5.766  0.00  0.00    -0.014 C 
ENDBRANCH  30  35
ENDBRANCH  29  30
ENDBRANCH  28  29
ENDBRANCH  11  28
TORSDOF 10
