REMARK  Name = ZINC25143798
REMARK  11 active torsions:
REMARK  status: ('A' for Active; 'I' for Inactive)
REMARK    1  A    between atoms: C_1  and  C_2
REMARK    2  A    between atoms: C_2  and  C_3
REMARK    3  A    between atoms: C_3  and  N_4
REMARK    4  A    between atoms: N_4  and  C_5
REMARK    5  A    between atoms: C_8  and  C_22
REMARK    6  A    between atoms: C_23  and  C_24
REMARK    7  A    between atoms: C_25  and  C_27
REMARK    8  A    between atoms: C_30  and  C_32
REMARK    9  A    between atoms: C_35  and  O_38
REMARK   10  A    between atoms: O_38  and  C_39
REMARK   11  A    between atoms: C_39  and  C_40
REMARK                            x       y       z     vdW  Elec       q    Type
REMARK                         _______ _______ _______ _____ _____    ______ ____
ROOT
ATOM      1  N   UNL     1      -4.265   2.340   0.417  0.00  0.00    -0.294 N 
ATOM      2  C   UNL     1      -3.229   1.573   0.026  0.00  0.00    +0.253 C 
ATOM      3  O   UNL     1      -3.272   0.366   0.181  0.00  0.00    -0.269 OA
ENDROOT
BRANCH   1   4
ATOM      4  C   UNL     1      -5.419   1.728   1.083  0.00  0.00    +0.080 C 
ATOM      5  C   UNL     1      -4.931   0.653   2.054  0.00  0.00    +0.049 C 
ATOM      6  C   UNL     1      -3.965   1.270   3.071  0.00  0.00    +0.101 C 
ATOM      7  N   UNL     1      -4.628   2.445   3.649  0.00  0.00    -0.284 N 
ATOM      8  C   UNL     1      -5.258   3.499   2.827  0.00  0.00    +0.110 C 
ATOM      9  C   UNL     1      -6.200   2.809   1.836  0.00  0.00    +0.050 C 
ATOM     10  C   UNL     1      -6.002   4.371   3.782  0.00  0.00    -0.015 A 
ATOM     11  C   UNL     1      -6.833   5.452   3.586  0.00  0.00    +0.006 A 
ATOM     12  C   UNL     1      -7.365   6.055   4.722  0.00  0.00    +0.000 A 
ATOM     13  C   UNL     1      -7.077   5.596   5.992  0.00  0.00    +0.001 A 
ATOM     14  C   UNL     1      -6.246   4.507   6.206  0.00  0.00    +0.013 A 
ATOM     15  C   UNL     1      -5.709   3.890   5.073  0.00  0.00    +0.042 A 
ATOM     16  C   UNL     1      -4.818   2.734   4.946  0.00  0.00    +0.248 C 
ATOM     17  O   UNL     1      -4.325   2.126   5.876  0.00  0.00    -0.270 OA
BRANCH   6  18
ATOM     18  C   UNL     1      -2.691   1.688   2.383  0.00  0.00    -0.009 C 
ATOM     19  C   UNL     1      -2.268   2.924   2.482  0.00  0.00    -0.033 C 
ATOM     20  C   UNL     1      -0.901   3.296   1.969  0.00  0.00    +0.035 C 
ENDBRANCH   6  18
ENDBRANCH   1   4
BRANCH   2  21
ATOM     21  C   UNL     1      -2.051   2.191  -0.586  0.00  0.00    +0.075 A 
ATOM     22  C   UNL     1      -0.836   1.609  -0.921  0.00  0.00    +0.021 A 
ATOM     23  C   UNL     1       0.128   2.389  -1.494  0.00  0.00    +0.017 A 
ATOM     24  C   UNL     1      -0.142   3.731  -1.714  0.00  0.00    +0.020 A 
ATOM     25  S   UNL     1      -1.808   3.886  -1.090  0.00  0.00    -0.084 S 
BRANCH  24  26
ATOM     26  C   UNL     1       0.725   4.766  -2.311  0.00  0.00    -0.011 A 
ATOM     27  C   UNL     1       2.014   4.440  -2.737  0.00  0.00    +0.012 A 
ATOM     28  C   UNL     1       2.818   5.407  -3.300  0.00  0.00    +0.046 A 
ATOM     29  C   UNL     1       2.352   6.709  -3.432  0.00  0.00    +0.121 A 
ATOM     30  C   UNL     1       1.073   7.040  -3.004  0.00  0.00    +0.046 A 
ATOM     31  C   UNL     1       0.260   6.076  -2.446  0.00  0.00    +0.012 A 
BRANCH  29  32
ATOM     32  O   UNL     1       3.150   7.662  -3.982  0.00  0.00    -0.492 OA
BRANCH  32  33
ATOM     33  C   UNL     1       4.454   7.254  -4.400  0.00  0.00    +0.225 C 
ATOM     34  C   UNL     1       5.199   8.453  -4.989  0.00  0.00    +0.048 C 
ENDBRANCH  32  33
ENDBRANCH  29  32
ENDBRANCH  24  26
ENDBRANCH   2  21
BRANCH   1  35
ATOM     35  C   UNL     1      -4.239   3.785   0.178  0.00  0.00    +0.108 C 
BRANCH  35  37
ATOM     36  C   UNL     1      -4.618   5.578  -1.520  0.00  0.00    +0.005 C 
ATOM     37  C   UNL     1      -4.646   4.069  -1.269  0.00  0.00    +0.016 C 
ENDBRANCH  35  37
ENDBRANCH   1  35
TORSDOF 8
