REMARK  Name = ZINC33541231
REMARK  10 active torsions:
REMARK  status: ('A' for Active; 'I' for Inactive)
REMARK    1  A    between atoms: C_1  and  C_2
REMARK    2  A    between atoms: C_2  and  C_3
REMARK    3  A    between atoms: C_3  and  N_4
REMARK    4  A    between atoms: N_4  and  C_5
REMARK    5  A    between atoms: C_5  and  C_6
REMARK    6  A    between atoms: C_16  and  C_18
REMARK    7  A    between atoms: C_23  and  O_24
REMARK    8  A    between atoms: O_24  and  C_25
REMARK    9  A    between atoms: N_28  and  C_29
REMARK   10  A    between atoms: C_32  and  C_35
REMARK                            x       y       z     vdW  Elec       q    Type
REMARK                         _______ _______ _______ _____ _____    ______ ____
ROOT
ATOM      1  C   UNL     1       3.609   1.288  -1.048  0.00  0.00    +0.205 C 
ENDROOT
BRANCH   1   2
ATOM      2  C   UNL     1       4.064   1.648   0.343  0.00  0.00    +0.234 C 
ATOM      3  O   UNL     1       3.402   1.317   1.303  0.00  0.00    -0.274 OA
ATOM      4  N   UNL     1       5.209   2.338   0.519  0.00  0.00    -0.286 N 
ATOM      5  C   UNL     1       6.029   2.751  -0.629  0.00  0.00    +0.130 C 
ATOM      6  C   UNL     1       6.062   4.281  -0.704  0.00  0.00    +0.140 C 
ATOM      7  N   UNL     1       6.328   4.825   0.632  0.00  0.00    -0.347 N 
ATOM      8  C   UNL     1       6.778   6.073   0.932  0.00  0.00    +0.086 A 
ATOM      9  C   UNL     1       6.880   6.175   2.274  0.00  0.00    +0.019 A 
ATOM     10  C   UNL     1       6.481   4.939   2.824  0.00  0.00    +0.025 A 
ATOM     11  C   UNL     1       6.153   4.135   1.801  0.00  0.00    +0.044 A 
ATOM     12  C   UNL     1       5.672   2.708   1.870  0.00  0.00    +0.157 C 
BRANCH  12  13
ATOM     13  C   UNL     1       6.805   1.806   2.289  0.00  0.00    +0.020 A 
ATOM     14  C   UNL     1       8.107   2.266   2.243  0.00  0.00    +0.009 A 
ATOM     15  C   UNL     1       9.147   1.440   2.627  0.00  0.00    +0.001 A 
ATOM     16  C   UNL     1       8.887   0.152   3.059  0.00  0.00    +0.004 A 
ATOM     17  C   UNL     1       7.587  -0.311   3.108  0.00  0.00    +0.046 A 
ATOM     18  C   UNL     1       6.541   0.517   2.727  0.00  0.00    +0.125 A 
BRANCH  18  19
ATOM     19  O   UNL     1       5.260   0.065   2.778  0.00  0.00    -0.495 OA
ATOM     20  C   UNL     1       5.063  -1.274   3.239  0.00  0.00    +0.277 C 
ENDBRANCH  18  19
ENDBRANCH  12  13
ENDBRANCH   1   2
BRANCH   1  21
ATOM     21  N   UNL     1       2.348   0.545  -0.972  0.00  0.00    -0.277 N 
ATOM     22  C   UNL     1       1.174   1.206  -1.001  0.00  0.00    +0.307 C 
ATOM     23  O   UNL     1       1.160   2.419  -1.091  0.00  0.00    -0.252 OA
ATOM     24  N   UNL     1       0.014   0.523  -0.931  0.00  0.00    -0.269 N 
ATOM     25  H   UNL     1       0.023  -0.577  -0.933  0.00  0.00    +0.156 HD
BRANCH  24  26
ATOM     26  C   UNL     1      -1.201   1.212  -0.855  0.00  0.00    +0.035 A 
ATOM     27  C   UNL     1      -1.271   2.427  -0.185  0.00  0.00    +0.024 A 
ATOM     28  C   UNL     1      -2.471   3.107  -0.115  0.00  0.00    +0.014 A 
ATOM     29  C   UNL     1      -3.604   2.576  -0.703  0.00  0.00    +0.055 A 
ATOM     30  C   UNL     1      -3.539   1.364  -1.367  0.00  0.00    +0.014 A 
ATOM     31  C   UNL     1      -2.341   0.681  -1.444  0.00  0.00    +0.024 A 
BRANCH  29  32
ATOM     32  C   UNL     1      -4.913   3.318  -0.621  0.00  0.00    +0.417 C 
ATOM     33  F   UNL     1      -5.604   2.918   0.527  0.00  0.00    -0.166 F 
ATOM     34  F   UNL     1      -4.665   4.694  -0.560  0.00  0.00    -0.166 F 
ATOM     35  F   UNL     1      -5.683   3.033  -1.753  0.00  0.00    -0.166 F 
ENDBRANCH  29  32
ENDBRANCH  24  26
BRANCH  21  36
ATOM     36  C   UNL     1       2.364  -0.915  -0.863  0.00  0.00    +0.109 C 
BRANCH  36  38
ATOM     37  C   UNL     1       2.363  -3.057  -2.151  0.00  0.00    +0.005 C 
ATOM     38  C   UNL     1       2.346  -1.531  -2.264  0.00  0.00    +0.016 C 
ENDBRANCH  36  38
ENDBRANCH  21  36
ENDBRANCH   1  21
TORSDOF 8
