REMARK  Name = ZINC09416855
REMARK  10 active torsions:
REMARK  status: ('A' for Active; 'I' for Inactive)
REMARK    1  A    between atoms: C_1  and  C_2
REMARK    2  A    between atoms: C_2  and  O_3
REMARK    3  A    between atoms: O_3  and  C_4
REMARK    4  A    between atoms: C_4  and  C_6
REMARK    5  A    between atoms: C_10  and  N_11
REMARK    6  A    between atoms: C_12  and  C_14
REMARK    7  A    between atoms: C_14  and  S_15
REMARK    8  A    between atoms: S_15  and  C_16
REMARK    9  A    between atoms: C_19  and  C_21
REMARK   10  A    between atoms: C_32  and  C_36
REMARK                            x       y       z     vdW  Elec       q    Type
REMARK                         _______ _______ _______ _____ _____    ______ ____
ROOT
ATOM      1  N   UNL     1      -9.983  -4.359   0.028  0.00  0.00    -0.279 N 
ATOM      2  C   UNL     1      -9.443  -3.124   0.034  0.00  0.00    +0.228 C 
ATOM      3  O   UNL     1     -10.161  -2.147   0.046  0.00  0.00    -0.275 OA
ATOM      4  H   UNL     1      -9.408  -5.140   0.019  0.00  0.00    +0.155 HD
ENDROOT
BRANCH   1   9
ATOM      5  C   UNL     1     -12.098  -5.689   0.025  0.00  0.00    +0.091 A 
ATOM      6  C   UNL     1     -13.547  -5.573   0.040  0.00  0.00    -0.021 A 
ATOM      7  C   UNL     1     -14.023  -4.309   0.051  0.00  0.00    -0.004 A 
ATOM      8  S   UNL     1     -12.581  -3.282   0.051  0.00  0.00    -0.077 S 
ATOM      9  C   UNL     1     -11.361  -4.512   0.035  0.00  0.00    +0.086 A 
ATOM     10  C   UNL     1     -15.459  -3.885   0.061  0.00  0.00    +0.046 C 
ATOM     11  C   UNL     1     -16.324  -5.095  -0.321  0.00  0.00    -0.009 C 
ATOM     12  C   UNL     1     -15.873  -6.303   0.506  0.00  0.00    +0.008 C 
ATOM     13  C   UNL     1     -14.493  -6.768   0.038  0.00  0.00    +0.037 C 
ATOM     14  C   UNL     1     -17.793  -4.790  -0.024  0.00  0.00    +0.008 C 
BRANCH   5  15
ATOM     15  C   UNL     1     -11.441  -6.997   0.004  0.00  0.00    +0.342 C 
ATOM     16  O   UNL     1     -11.161  -7.554   1.048  0.00  0.00    -0.245 OA
BRANCH  15  17
ATOM     17  O   UNL     1     -11.146  -7.584  -1.174  0.00  0.00    -0.461 OA
BRANCH  17  19
ATOM     18  C   UNL     1     -10.241  -9.385  -2.541  0.00  0.00    +0.048 C 
ATOM     19  C   UNL     1     -10.494  -8.881  -1.119  0.00  0.00    +0.229 C 
ENDBRANCH  17  19
ENDBRANCH  15  17
ENDBRANCH   5  15
ENDBRANCH   1   9
BRANCH   2  20
ATOM     20  C   UNL     1      -7.945  -2.958   0.026  0.00  0.00    +0.175 C 
BRANCH  20  21
ATOM     21  S   UNL     1      -7.534  -1.195   0.037  0.00  0.00    -0.056 S 
BRANCH  21  22
ATOM     22  C   UNL     1      -5.774  -1.291   0.026  0.00  0.00    +0.278 A 
ATOM     23  N   UNL     1      -5.056  -2.390   0.014  0.00  0.00    -0.101 NA
ATOM     24  N   UNL     1      -3.807  -2.085   0.004  0.00  0.00    -0.106 NA
ATOM     25  C   UNL     1      -3.676  -0.780   0.018  0.00  0.00    +0.249 A 
ATOM     26  O   UNL     1      -4.919  -0.250   0.029  0.00  0.00    -0.411 OA
BRANCH  25  27
ATOM     27  C   UNL     1      -2.405  -0.029   0.016  0.00  0.00    +0.042 A 
ATOM     28  C   UNL     1      -2.417   1.368   0.026  0.00  0.00    +0.017 A 
ATOM     29  C   UNL     1      -1.228   2.066   0.019  0.00  0.00    +0.050 A 
ATOM     30  C   UNL     1      -0.017   1.387   0.010  0.00  0.00    +0.162 A 
ATOM     31  C   UNL     1       0.002  -0.004   0.002  0.00  0.00    +0.163 A 
ATOM     32  C   UNL     1      -1.188  -0.712   0.004  0.00  0.00    +0.062 A 
ATOM     33  O   UNL     1       1.181  -0.685  -0.006  0.00  0.00    -0.485 OA
ATOM     34  C   UNL     1       2.347   0.054  -0.387  0.00  0.00    +0.270 C 
ATOM     35  C   UNL     1       2.335   1.391   0.366  0.00  0.00    +0.270 C 
ATOM     36  O   UNL     1       1.144   2.098   0.002  0.00  0.00    -0.485 OA
ENDBRANCH  25  27
ENDBRANCH  21  22
ENDBRANCH  20  21
ENDBRANCH   2  20
TORSDOF 8
