REMARK  Name = ZINC35778404
REMARK  16 active torsions:
REMARK  status: ('A' for Active; 'I' for Inactive)
REMARK    1  A    between atoms: C_1  and  C_2
REMARK    2  A    between atoms: C_2  and  C_3
REMARK    3  A    between atoms: C_2  and  C_4
REMARK    4  A    between atoms: C_5  and  C_23
REMARK    5  A    between atoms: C_6  and  O_15
REMARK    6  A    between atoms: N_7  and  C_9
REMARK    7  A    between atoms: O_15  and  C_16
REMARK    8  A    between atoms: C_23  and  N_24
REMARK    9  A    between atoms: N_24  and  C_25
REMARK   10  A    between atoms: N_24  and  C_29
REMARK   11  A    between atoms: C_25  and  C_26
REMARK   12  A    between atoms: C_29  and  C_30
REMARK   13  A    between atoms: C_30  and  C_32
REMARK   14  A    between atoms: C_30  and  O_35
REMARK   15  A    between atoms: C_32  and  C_33
REMARK   16  A    between atoms: C_32  and  C_34
REMARK                            x       y       z     vdW  Elec       q    Type
REMARK                         _______ _______ _______ _____ _____    ______ ____
ROOT
ATOM      1  C   UNL     1      -2.050  -0.830   0.870  0.00  0.00    +0.071 A 
ATOM      2  C   UNL     1      -2.130  -1.383  -0.412  0.00  0.00    +0.021 A 
ATOM      3  C   UNL     1      -3.435  -1.679  -0.657  0.00  0.00    +0.225 A 
ATOM      4  N   UNL     1      -4.149  -1.320   0.443  0.00  0.00    -0.200 N 
ATOM      5  N   UNL     1      -3.253  -0.797   1.384  0.00  0.00    -0.168 NA
ENDROOT
BRANCH   4   6
ATOM      6  C   UNL     1      -5.535  -1.456   0.608  0.00  0.00    +0.069 A 
ATOM      7  C   UNL     1      -6.396  -1.106  -0.423  0.00  0.00    +0.028 A 
ATOM      8  C   UNL     1      -7.760  -1.240  -0.257  0.00  0.00    +0.002 A 
ATOM      9  C   UNL     1      -8.269  -1.722   0.935  0.00  0.00    +0.000 A 
ATOM     10  C   UNL     1      -7.414  -2.071   1.964  0.00  0.00    +0.002 A 
ATOM     11  C   UNL     1      -6.048  -1.944   1.802  0.00  0.00    +0.028 A 
ENDBRANCH   4   6
BRANCH   1  13
ATOM     12  C   UNL     1      -0.963   1.097   1.991  0.00  0.00    +0.014 C 
ATOM     13  C   UNL     1      -0.789  -0.357   1.548  0.00  0.00    +0.034 C 
ATOM     14  C   UNL     1      -0.509  -1.233   2.771  0.00  0.00    +0.014 C 
ENDBRANCH   1  13
BRANCH   3  15
ATOM     15  O   UNL     1      -3.932  -2.232  -1.793  0.00  0.00    -0.438 OA
BRANCH  15  16
ATOM     16  C   UNL     1      -4.224  -1.404  -2.830  0.00  0.00    +0.133 A 
ATOM     17  C   UNL     1      -3.910  -0.054  -2.751  0.00  0.00    +0.046 A 
ATOM     18  C   UNL     1      -4.207   0.786  -3.806  0.00  0.00    +0.006 A 
ATOM     19  C   UNL     1      -4.817   0.285  -4.941  0.00  0.00    +0.038 A 
ATOM     20  C   UNL     1      -5.132  -1.061  -5.023  0.00  0.00    +0.127 A 
ATOM     21  C   UNL     1      -4.831  -1.907  -3.971  0.00  0.00    +0.084 A 
ATOM     22  F   UNL     1      -5.729  -1.548  -6.133  0.00  0.00    -0.205 F 
ENDBRANCH  15  16
ENDBRANCH   3  15
BRANCH   2  23
ATOM     23  C   UNL     1      -0.977  -1.610  -1.354  0.00  0.00    -0.036 C 
BRANCH  23  24
ATOM     24  N   UNL     1      -0.326  -2.887  -1.034  0.00  0.00    +0.384 N 
ATOM     25  H   UNL     1      -0.055  -2.892  -0.062  0.00  0.00    -0.081 HD
BRANCH  24  26
ATOM     26  C   UNL     1       0.866  -3.055  -1.875  0.00  0.00    -0.075 C 
BRANCH  26  27
ATOM     27  C   UNL     1       1.860  -1.929  -1.581  0.00  0.00    -0.028 C 
ATOM     28  C   UNL     1       2.177  -0.953  -2.716  0.00  0.00    +0.002 C 
ATOM     29  C   UNL     1       3.219  -1.986  -2.282  0.00  0.00    +0.002 C 
ENDBRANCH  26  27
ENDBRANCH  24  26
BRANCH  24  30
ATOM     30  C   UNL     1      -1.263  -3.990  -1.286  0.00  0.00    -0.046 C 
BRANCH  30  31
ATOM     31  C   UNL     1      -0.661  -5.299  -0.772  0.00  0.00    +0.101 C 
BRANCH  31  32
ATOM     32  C   UNL     1      -1.712  -6.408  -0.845  0.00  0.00    +0.010 C 
ATOM     33  C   UNL     1      -2.070  -6.675  -2.308  0.00  0.00    +0.010 C 
ATOM     34  C   UNL     1      -1.151  -7.685  -0.216  0.00  0.00    +0.010 C 
ENDBRANCH  31  32
BRANCH  31  35
ATOM     35  O   UNL     1       0.464  -5.655  -1.578  0.00  0.00    -0.393 OA
ATOM     36  H   UNL     1       0.253  -5.786  -2.512  0.00  0.00    +0.210 HD
ENDBRANCH  31  35
ENDBRANCH  30  31
ENDBRANCH  24  30
ENDBRANCH  23  24
ENDBRANCH   2  23
TORSDOF 12
