REMARK  Name = ZINC04253816
REMARK  9 active torsions:
REMARK  status: ('A' for Active; 'I' for Inactive)
REMARK    1  A    between atoms: C_1  and  C_2
REMARK    2  A    between atoms: C_2  and  O_3
REMARK    3  A    between atoms: O_3  and  C_4
REMARK    4  A    between atoms: N_10  and  C_24
REMARK    5  A    between atoms: N_12  and  C_13
REMARK    6  A    between atoms: C_13  and  C_15
REMARK    7  A    between atoms: C_15  and  O_16
REMARK    8  A    between atoms: O_16  and  C_17
REMARK    9  A    between atoms: C_24  and  C_25
REMARK                            x       y       z     vdW  Elec       q    Type
REMARK                         _______ _______ _______ _____ _____    ______ ____
ROOT
ATOM      1  C   UNL     1      -3.522  12.874   0.108  0.00  0.00    +0.145 A 
ATOM      2  C   UNL     1      -2.990  14.147   0.109  0.00  0.00    +0.048 A 
ATOM      3  C   UNL     1      -1.621  14.350   0.097  0.00  0.00    +0.005 A 
ATOM      4  C   UNL     1      -0.774  13.256   0.083  0.00  0.00    +0.017 A 
ATOM      5  C   UNL     1      -1.302  11.986   0.081  0.00  0.00    +0.042 A 
ATOM      6  C   UNL     1      -2.682  11.745   0.093  0.00  0.00    +0.101 A 
ATOM      7  N   UNL     1      -3.040  10.408   0.083  0.00  0.00    -0.307 N 
ATOM      8  C   UNL     1      -2.081   9.446   0.074  0.00  0.00    +0.167 A 
ATOM      9  N   UNL     1      -2.238   8.124   0.068  0.00  0.00    -0.153 NA
ATOM     10  S   UNL     1      -0.604  10.354   0.065  0.00  0.00    -0.052 S 
ENDROOT
BRANCH   9  11
ATOM     11  C   UNL     1      -1.173   7.329   0.054  0.00  0.00    +0.276 C 
ATOM     12  O   UNL     1      -0.056   7.809   0.046  0.00  0.00    -0.270 OA
BRANCH  11  13
ATOM     13  C   UNL     1      -1.350   5.832   0.047  0.00  0.00    +0.326 C 
BRANCH  13  14
ATOM     14  O   UNL     1      -0.069   5.201   0.031  0.00  0.00    -0.483 OA
BRANCH  14  15
ATOM     15  C   UNL     1      -0.050   3.842   0.023  0.00  0.00    +0.121 A 
ATOM     16  C   UNL     1       1.160   3.163   0.008  0.00  0.00    +0.045 A 
ATOM     17  C   UNL     1       1.176   1.782   0.000  0.00  0.00    +0.004 A 
ATOM     18  C   UNL     1      -0.013   1.076   0.008  0.00  0.00    +0.000 A 
ATOM     19  C   UNL     1      -1.220   1.750   0.017  0.00  0.00    +0.004 A 
ATOM     20  C   UNL     1      -1.241   3.131   0.031  0.00  0.00    +0.045 A 
ENDBRANCH  14  15
ENDBRANCH  13  14
ENDBRANCH  11  13
ENDBRANCH   9  11
BRANCH   1  21
ATOM     21  O   UNL     1      -4.872  12.709   0.119  0.00  0.00    -0.490 OA
BRANCH  21  23
ATOM     22  C   UNL     1      -7.152  13.511   0.145  0.00  0.00    +0.048 C 
ATOM     23  C   UNL     1      -5.670  13.894   0.134  0.00  0.00    +0.226 C 
ENDBRANCH  21  23
ENDBRANCH   1  21
BRANCH   7  24
ATOM     24  C   UNL     1      -4.456  10.029   0.087  0.00  0.00    +0.212 C 
BRANCH  24  25
ATOM     25  C   UNL     1      -4.924   9.896   1.476  0.00  0.00    -0.084 C 
ATOM     26  C   UNL     1      -5.298   9.790   2.584  0.00  0.00    +0.005 C 
ENDBRANCH  24  25
ENDBRANCH   7  24
TORSDOF 8
