REMARK  Name = ZINC05156472
REMARK  7 active torsions:
REMARK  status: ('A' for Active; 'I' for Inactive)
REMARK    1  A    between atoms: C_1  and  C_2
REMARK    2  A    between atoms: C_2  and  C_4
REMARK    3  A    between atoms: C_2  and  O_30
REMARK    4  A    between atoms: C_4  and  N_5
REMARK    5  A    between atoms: C_12  and  C_16
REMARK    6  A    between atoms: C_23  and  C_25
REMARK    7  A    between atoms: C_23  and  C_26
REMARK                            x       y       z     vdW  Elec       q    Type
REMARK                         _______ _______ _______ _____ _____    ______ ____
ROOT
ATOM      1  N   UNL     1       0.634  -1.958  -1.325  0.00  0.00    -0.326 N 
ATOM      2  C   UNL     1       1.215  -2.637  -2.386  0.00  0.00    +0.136 A 
ATOM      3  C   UNL     1       1.151  -4.021  -2.466  0.00  0.00    +0.080 A 
ATOM      4  C   UNL     1       1.732  -4.708  -3.539  0.00  0.00    +0.093 A 
ATOM      5  C   UNL     1       1.593  -6.176  -3.516  0.00  0.00    +0.037 A 
ATOM      6  C   UNL     1       2.088  -7.104  -4.466  0.00  0.00    -0.025 A 
ATOM      7  C   UNL     1       1.870  -8.433  -4.283  0.00  0.00    +0.011 A 
ATOM      8  C   UNL     1       1.151  -8.874  -3.161  0.00  0.00    +0.113 A 
ATOM      9  N   UNL     1       0.687  -8.001  -2.275  0.00  0.00    -0.236 NA
ATOM     10  C   UNL     1       0.887  -6.710  -2.423  0.00  0.00    +0.112 A 
ATOM     11  S   UNL     1       0.428  -5.289  -1.461  0.00  0.00    -0.064 S 
ATOM     12  C   UNL     1       2.390  -9.458  -5.258  0.00  0.00    +0.198 C 
ATOM     13  O   UNL     1       2.750  -8.831  -6.489  0.00  0.00    -0.369 OA
ATOM     14  C   UNL     1       3.627  -7.712  -6.316  0.00  0.00    +0.068 C 
ATOM     15  C   UNL     1       2.839  -6.576  -5.659  0.00  0.00    +0.070 C 
ATOM     16  C   UNL     1       4.801  -8.111  -5.419  0.00  0.00    +0.041 C 
ATOM     17  C   UNL     1       4.153  -7.255  -7.678  0.00  0.00    +0.041 C 
ATOM     18  N   UNL     1       2.355  -3.944  -4.465  0.00  0.00    -0.234 NA
ATOM     19  C   UNL     1       2.401  -2.641  -4.354  0.00  0.00    +0.224 A 
ATOM     20  N   UNL     1       1.853  -1.978  -3.352  0.00  0.00    -0.220 NA
ATOM     21  H   UNL     1       0.172  -2.451  -0.629  0.00  0.00    +0.148 HD
ENDROOT
BRANCH   8  22
ATOM     22  C   UNL     1       0.910 -10.317  -2.965  0.00  0.00    +0.153 A 
ATOM     23  C   UNL     1       0.870 -10.965  -1.769  0.00  0.00    +0.051 A 
ATOM     24  C   UNL     1       0.614 -12.320  -2.051  0.00  0.00    +0.042 A 
ATOM     25  C   UNL     1       0.511 -12.433  -3.391  0.00  0.00    +0.196 A 
ATOM     26  O   UNL     1       0.685 -11.221  -3.939  0.00  0.00    -0.461 OA
ENDBRANCH   8  22
BRANCH   1  27
ATOM     27  C   UNL     1       0.718  -0.497  -1.257  0.00  0.00    +0.134 C 
BRANCH  27  29
ATOM     28  C   UNL     1      -0.019   1.526   0.010  0.00  0.00    +0.039 C 
ATOM     29  C   UNL     1       0.002  -0.004   0.002  0.00  0.00    +0.128 C 
BRANCH  29  30
ATOM     30  O   UNL     1       0.693  -0.477   1.160  0.00  0.00    -0.391 OA
ATOM     31  H   UNL     1       1.611  -0.180   1.219  0.00  0.00    +0.210 HD
ENDBRANCH  29  30
ENDBRANCH  27  29
ENDBRANCH   1  27
TORSDOF 4
