REMARK  Name = ZINC08751258
REMARK  8 active torsions:
REMARK  status: ('A' for Active; 'I' for Inactive)
REMARK    1  A    between atoms: C_1  and  C_2
REMARK    2  A    between atoms: C_5  and  N_8
REMARK    3  A    between atoms: C_12  and  C_13
REMARK    4  A    between atoms: C_23  and  S_24
REMARK    5  A    between atoms: S_24  and  C_25
REMARK    6  A    between atoms: C_25  and  C_27
REMARK    7  A    between atoms: C_25  and  C_28
REMARK    8  A    between atoms: N_30  and  C_31
REMARK                            x       y       z     vdW  Elec       q    Type
REMARK                         _______ _______ _______ _____ _____    ______ ____
ROOT
ATOM      1  N   UNL     1       0.098  -4.174  -0.019  0.00  0.00    -0.214 N 
ATOM      2  C   UNL     1      -0.032  -4.959  -1.111  0.00  0.00    +0.275 C 
ATOM      3  O   UNL     1      -0.192  -4.598  -2.263  0.00  0.00    -0.268 OA
ATOM      4  C   UNL     1       0.061  -6.344  -0.614  0.00  0.00    +0.129 C 
ATOM      5  C   UNL     1      -0.014  -7.498  -1.359  0.00  0.00    +0.041 C 
ATOM      6  N   UNL     1       0.240  -6.246   0.738  0.00  0.00    -0.220 NA
ATOM      7  C   UNL     1       0.266  -4.984   1.078  0.00  0.00    +0.169 C 
ENDROOT
BRANCH   5   8
ATOM      8  C   UNL     1      -0.050  -8.802  -0.689  0.00  0.00    -0.019 A 
ATOM      9  C   UNL     1       0.012  -9.982  -1.442  0.00  0.00    +0.012 A 
ATOM     10  C   UNL     1      -0.021 -11.204  -0.809  0.00  0.00    +0.050 A 
ATOM     11  C   UNL     1      -0.115 -11.273   0.575  0.00  0.00    +0.166 A 
ATOM     12  C   UNL     1      -0.177 -10.102   1.333  0.00  0.00    +0.167 A 
ATOM     13  C   UNL     1      -0.139  -8.872   0.708  0.00  0.00    +0.057 A 
ATOM     14  O   UNL     1      -0.265 -10.442   2.652  0.00  0.00    -0.453 OA
ATOM     15  C   UNL     1      -0.668 -11.824   2.667  0.00  0.00    +0.466 C 
ATOM     16  O   UNL     1      -0.164 -12.342   1.422  0.00  0.00    -0.453 OA
ENDBRANCH   5   8
BRANCH   1  21
ATOM     17  C   UNL     1      -0.007   1.500   0.025  0.00  0.00    +0.044 C 
ATOM     18  C   UNL     1       0.021  -0.006   0.014  0.00  0.00    -0.050 A 
ATOM     19  C   UNL     1       1.123  -0.680   0.508  0.00  0.00    +0.005 A 
ATOM     20  C   UNL     1       1.151  -2.061   0.499  0.00  0.00    +0.024 A 
ATOM     21  C   UNL     1       0.072  -2.773  -0.007  0.00  0.00    +0.044 A 
ATOM     22  C   UNL     1      -1.033  -2.094  -0.502  0.00  0.00    +0.024 A 
ATOM     23  C   UNL     1      -1.058  -0.713  -0.486  0.00  0.00    +0.005 A 
ENDBRANCH   1  21
BRANCH   7  24
ATOM     24  S   UNL     1       0.483  -4.400   2.726  0.00  0.00    -0.077 S 
BRANCH  24  25
ATOM     25  C   UNL     1       0.650  -5.915   3.711  0.00  0.00    +0.137 C 
ATOM     26  C   UNL     1      -0.662  -6.701   3.662  0.00  0.00    +0.029 C 
BRANCH  25  27
ATOM     27  C   UNL     1       0.966  -5.553   5.139  0.00  0.00    +0.226 C 
ATOM     28  O   UNL     1       0.637  -4.471   5.578  0.00  0.00    -0.275 OA
ATOM     29  N   UNL     1       1.614  -6.432   5.929  0.00  0.00    -0.312 N 
ATOM     30  H   UNL     1       1.877  -7.297   5.578  0.00  0.00    +0.149 HD
BRANCH  29  31
ATOM     31  C   UNL     1       1.921  -6.081   7.318  0.00  0.00    +0.073 C 
ATOM     32  C   UNL     1       3.232  -5.294   7.367  0.00  0.00    +0.022 C 
ATOM     33  C   UNL     1       3.553  -4.927   8.817  0.00  0.00    +0.002 C 
ATOM     34  C   UNL     1       3.694  -6.205   9.647  0.00  0.00    +0.000 C 
ATOM     35  C   UNL     1       2.382  -6.991   9.598  0.00  0.00    +0.002 C 
ATOM     36  C   UNL     1       2.062  -7.358   8.148  0.00  0.00    +0.022 C 
ENDBRANCH  29  31
ENDBRANCH  25  27
ENDBRANCH  24  25
ENDBRANCH   7  24
TORSDOF 6
