REMARK  Name = ZINC02223315
REMARK  6 active torsions:
REMARK  status: ('A' for Active; 'I' for Inactive)
REMARK    1  A    between atoms: C_1  and  C_2
REMARK    2  A    between atoms: C_5  and  N_8
REMARK    3  A    between atoms: C_11  and  C_24
REMARK    4  A    between atoms: C_12  and  N_13
REMARK    5  A    between atoms: N_13  and  S_14
REMARK    6  A    between atoms: S_14  and  C_17
REMARK                            x       y       z     vdW  Elec       q    Type
REMARK                         _______ _______ _______ _____ _____    ______ ____
ROOT
ATOM      1  N   UNL     1      -0.148   1.500  -0.080  0.00  0.00    -0.278 N 
ATOM      2  C   UNL     1      -0.233   0.124  -0.161  0.00  0.00    +0.167 A 
ATOM      3  C   UNL     1       1.140  -0.387  -0.207  0.00  0.00    +0.128 A 
ATOM      4  C   UNL     1       2.002   0.804  -0.146  0.00  0.00    +0.120 A 
ATOM      5  C   UNL     1       1.155   1.903  -0.070  0.00  0.00    +0.144 A 
ATOM      6  N   UNL     1       1.362  -1.684  -0.288  0.00  0.00    -0.241 NA
ATOM      7  C   UNL     1       0.325  -2.530  -0.327  0.00  0.00    +0.090 A 
ATOM      8  C   UNL     1       0.544  -3.917  -0.413  0.00  0.00    +0.030 A 
ATOM      9  C   UNL     1      -0.517  -4.768  -0.453  0.00  0.00    +0.002 A 
ATOM     10  C   UNL     1      -1.824  -4.284  -0.409  0.00  0.00    +0.002 A 
ATOM     11  C   UNL     1      -2.074  -2.950  -0.326  0.00  0.00    +0.030 A 
ATOM     12  C   UNL     1      -1.003  -2.038  -0.283  0.00  0.00    +0.092 A 
ATOM     13  N   UNL     1      -1.240  -0.722  -0.201  0.00  0.00    -0.225 NA
ENDROOT
BRANCH   1  18
ATOM     14  C   UNL     1      -4.609   5.000   0.159  0.00  0.00    +0.044 C 
ATOM     15  C   UNL     1      -3.424   4.071   0.095  0.00  0.00    -0.050 A 
ATOM     16  C   UNL     1      -3.188   3.184   1.129  0.00  0.00    +0.005 A 
ATOM     17  C   UNL     1      -2.103   2.331   1.074  0.00  0.00    +0.026 A 
ATOM     18  C   UNL     1      -1.250   2.365  -0.021  0.00  0.00    +0.050 A 
ATOM     19  C   UNL     1      -1.487   3.261  -1.054  0.00  0.00    +0.026 A 
ATOM     20  C   UNL     1      -2.576   4.108  -0.996  0.00  0.00    +0.005 A 
ENDBRANCH   1  18
BRANCH   5  21
ATOM     21  N   UNL     1       1.571   3.208   0.003  0.00  0.00    -0.199 N 
ATOM     22  H   UNL     1       1.292   3.766   0.746  0.00  0.00    +0.175 HD
BRANCH  21  23
ATOM     23  S   UNL     1       2.551   3.833  -1.177  0.00  0.00    +0.073 S 
ATOM     24  O   UNL     1       2.760   5.199  -0.850  0.00  0.00    -0.150 OA
ATOM     25  O   UNL     1       3.624   2.916  -1.342  0.00  0.00    -0.150 OA
BRANCH  23  26
ATOM     26  C   UNL     1       1.634   3.809  -2.682  0.00  0.00    +0.109 A 
ATOM     27  C   UNL     1       1.609   2.666  -3.458  0.00  0.00    +0.030 A 
ATOM     28  C   UNL     1       0.885   2.646  -4.635  0.00  0.00    +0.022 A 
ATOM     29  C   UNL     1       0.194   3.773  -5.042  0.00  0.00    +0.041 A 
ATOM     30  C   UNL     1       0.224   4.919  -4.268  0.00  0.00    +0.022 A 
ATOM     31  C   UNL     1       0.944   4.937  -3.088  0.00  0.00    +0.030 A 
ATOM     32 CL   UNL     1      -0.710   3.750  -6.524  0.00  0.00    -0.084 Cl
ENDBRANCH  23  26
ENDBRANCH  21  23
ENDBRANCH   5  21
BRANCH   4  33
ATOM     33  C   UNL     1       3.434   0.826  -0.160  0.00  0.00    +0.105 C 
ATOM     34  N   UNL     1       4.570   0.844  -0.172  0.00  0.00    -0.191 NA
ENDBRANCH   4  33
TORSDOF 5
