REMARK  Name = ZINC63373510
REMARK  7 active torsions:
REMARK  status: ('A' for Active; 'I' for Inactive)
REMARK    1  A    between atoms: C_1  and  C_2
REMARK    2  A    between atoms: C_2  and  C_3
REMARK    3  A    between atoms: C_6  and  C_9
REMARK    4  A    between atoms: N_15  and  C_30
REMARK    5  A    between atoms: C_18  and  C_29
REMARK    6  A    between atoms: C_34  and  C_36
REMARK    7  A    between atoms: C_36  and  C_38
REMARK                            x       y       z     vdW  Elec       q    Type
REMARK                         _______ _______ _______ _____ _____    ______ ____
ROOT
ATOM      1  C   UNL     1       2.697  -1.906  -4.739  0.00  0.00    +0.065 C 
ATOM      2  C   UNL     1       3.420  -3.242  -4.473  0.00  0.00    +0.123 C 
ATOM      3  N   UNL     1       4.858  -3.021  -4.654  0.00  0.00    -0.268 N 
ATOM      4  C   UNL     1       5.844  -3.235  -3.772  0.00  0.00    +0.317 C 
ATOM      5  O   UNL     1       5.692  -3.807  -2.711  0.00  0.00    -0.252 OA
ATOM      6  N   UNL     1       7.018  -2.747  -4.197  0.00  0.00    -0.192 N 
ATOM      7  C   UNL     1       6.921  -2.233  -5.441  0.00  0.00    +0.253 C 
ATOM      8  O   UNL     1       7.798  -1.692  -6.080  0.00  0.00    -0.272 OA
ATOM      9  C   UNL     1       5.492  -2.474  -5.872  0.00  0.00    +0.137 C 
ATOM     10  C   UNL     1       4.797  -1.156  -6.207  0.00  0.00    +0.139 C 
ATOM     11  C   UNL     1       3.755  -0.903  -5.127  0.00  0.00    -0.027 C 
ATOM     12  C   UNL     1       4.008   0.311  -4.646  0.00  0.00    -0.000 A 
ATOM     13  C   UNL     1       3.300   1.137  -3.654  0.00  0.00    +0.010 A 
ATOM     14  C   UNL     1       3.854   2.347  -3.377  0.00  0.00    +0.001 A 
ATOM     15  C   UNL     1       5.027   2.812  -3.979  0.00  0.00    +0.002 A 
ATOM     16  C   UNL     1       5.739   2.123  -4.907  0.00  0.00    +0.026 A 
ATOM     17  C   UNL     1       5.251   0.839  -5.287  0.00  0.00    +0.043 A 
ATOM     18  N   UNL     1       5.719  -0.019  -6.165  0.00  0.00    -0.375 N 
ATOM     19  C   UNL     1       5.420  -3.469  -7.032  0.00  0.00    +0.044 C 
ATOM     20  H   UNL     1       6.527   0.076  -6.694  0.00  0.00    +0.160 HD
ENDROOT
BRANCH   1  24
ATOM     21  C   UNL     1       0.682  -0.611  -1.202  0.00  0.00    -0.048 A 
ATOM     22  C   UNL     1      -0.033  -0.828  -2.365  0.00  0.00    +0.004 A 
ATOM     23  C   UNL     1       0.619  -1.246  -3.510  0.00  0.00    +0.004 A 
ATOM     24  C   UNL     1       1.987  -1.449  -3.491  0.00  0.00    -0.039 A 
ATOM     25  C   UNL     1       2.702  -1.232  -2.328  0.00  0.00    +0.004 A 
ATOM     26  C   UNL     1       2.050  -0.808  -1.185  0.00  0.00    +0.004 A 
BRANCH  21  28
ATOM     27  C   UNL     1      -0.066   1.375   0.081  0.00  0.00    +0.009 C 
ATOM     28  C   UNL     1      -0.029  -0.154   0.046  0.00  0.00    +0.032 C 
ENDBRANCH  21  28
ENDBRANCH   1  24
BRANCH   6  29
ATOM     29  C   UNL     1       8.199  -2.767  -3.442  0.00  0.00    +0.046 A 
ATOM     30  C   UNL     1       8.174  -3.206  -2.124  0.00  0.00    +0.024 A 
ATOM     31  C   UNL     1       9.335  -3.228  -1.374  0.00  0.00    +0.003 A 
ATOM     32  C   UNL     1      10.528  -2.816  -1.929  0.00  0.00    +0.011 A 
ATOM     33  C   UNL     1      10.566  -2.373  -3.255  0.00  0.00    +0.019 A 
ATOM     34  C   UNL     1       9.392  -2.356  -4.013  0.00  0.00    +0.035 A 
BRANCH  33  35
ATOM     35  C   UNL     1      11.838  -1.932  -3.851  0.00  0.00    +0.160 C 
ATOM     36  O   UNL     1      11.867  -1.548  -5.001  0.00  0.00    -0.292 OA
ATOM     37  C   UNL     1      13.102  -1.956  -3.032  0.00  0.00    +0.091 C 
ENDBRANCH  33  35
ENDBRANCH   6  29
TORSDOF 4
