REMARK  Name = ZINC64985560
REMARK  8 active torsions:
REMARK  status: ('A' for Active; 'I' for Inactive)
REMARK    1  A    between atoms: C_1  and  C_2
REMARK    2  A    between atoms: C_2  and  C_3
REMARK    3  A    between atoms: C_2  and  C_4
REMARK    4  A    between atoms: C_2  and  C_5
REMARK    5  A    between atoms: N_11  and  S_26
REMARK    6  A    between atoms: C_13  and  C_16
REMARK    7  A    between atoms: N_18  and  C_19
REMARK    8  A    between atoms: S_26  and  C_29
REMARK                            x       y       z     vdW  Elec       q    Type
REMARK                         _______ _______ _______ _____ _____    ______ ____
ROOT
ATOM      1  C   UNL     1       0.798   0.589  -1.673  0.00  0.00    -0.040 A 
ATOM      2  C   UNL     1       0.135   0.058  -2.763  0.00  0.00    +0.008 A 
ATOM      3  C   UNL     1       0.843  -0.555  -3.780  0.00  0.00    +0.048 A 
ATOM      4  C   UNL     1       2.225  -0.642  -3.709  0.00  0.00    +0.144 A 
ATOM      5  C   UNL     1       2.891  -0.109  -2.609  0.00  0.00    +0.093 A 
ATOM      6  C   UNL     1       2.177   0.512  -1.596  0.00  0.00    +0.032 A 
ATOM      7  N   UNL     1       4.289  -0.201  -2.529  0.00  0.00    -0.195 N 
ATOM      8  C   UNL     1       5.021  -0.577  -3.751  0.00  0.00    +0.186 C 
ATOM      9  C   UNL     1       4.236  -1.706  -4.432  0.00  0.00    +0.278 C 
ATOM     10  O   UNL     1       2.913  -1.243  -4.715  0.00  0.00    -0.476 OA
ENDROOT
BRANCH   1  12
ATOM     11  C   UNL     1       0.465   2.717  -0.443  0.00  0.00    +0.015 C 
ATOM     12  C   UNL     1       0.019   1.259  -0.570  0.00  0.00    -0.013 C 
ATOM     13  C   UNL     1       0.276   0.530   0.750  0.00  0.00    +0.015 C 
ATOM     14  C   UNL     1      -1.474   1.209  -0.898  0.00  0.00    +0.015 C 
ENDBRANCH   1  12
BRANCH   9  15
ATOM     15  C   UNL     1       4.923  -2.096  -5.716  0.00  0.00    +0.260 C 
ATOM     16  O   UNL     1       4.369  -1.914  -6.780  0.00  0.00    -0.271 OA
ATOM     17  N   UNL     1       6.153  -2.646  -5.682  0.00  0.00    -0.280 N 
ATOM     18  H   UNL     1       6.562  -2.866  -4.831  0.00  0.00    +0.155 HD
BRANCH  17  19
ATOM     19  C   UNL     1       6.839  -2.901  -6.876  0.00  0.00    +0.069 A 
ATOM     20  C   UNL     1       6.469  -2.248  -8.044  0.00  0.00    +0.026 A 
ATOM     21  C   UNL     1       7.148  -2.500  -9.220  0.00  0.00    +0.002 A 
ATOM     22  C   UNL     1       8.196  -3.402  -9.236  0.00  0.00    +0.003 A 
ATOM     23  C   UNL     1       8.568  -4.055  -8.076  0.00  0.00    +0.040 A 
ATOM     24  C   UNL     1       7.897  -3.803  -6.893  0.00  0.00    +0.144 A 
ATOM     25  F   UNL     1       8.264  -4.437  -5.758  0.00  0.00    -0.204 F 
ENDBRANCH  17  19
ENDBRANCH   9  15
BRANCH   7  26
ATOM     26  S   UNL     1       5.089   0.103  -1.111  0.00  0.00    +0.075 S 
ATOM     27  O   UNL     1       4.185  -0.210  -0.060  0.00  0.00    -0.150 OA
ATOM     28  O   UNL     1       6.366  -0.509  -1.225  0.00  0.00    -0.150 OA
BRANCH  26  29
ATOM     29  C   UNL     1       5.369   1.841  -1.033  0.00  0.00    +0.109 A 
ATOM     30  C   UNL     1       6.524   2.380  -1.567  0.00  0.00    +0.029 A 
ATOM     31  C   UNL     1       6.744   3.743  -1.506  0.00  0.00    +0.002 A 
ATOM     32  C   UNL     1       5.807   4.568  -0.910  0.00  0.00    +0.000 A 
ATOM     33  C   UNL     1       4.652   4.029  -0.377  0.00  0.00    +0.002 A 
ATOM     34  C   UNL     1       4.430   2.667  -0.442  0.00  0.00    +0.029 A 
ENDBRANCH  26  29
ENDBRANCH   7  26
TORSDOF 5
