REMARK  Name = ZINC59982319
REMARK  12 active torsions:
REMARK  status: ('A' for Active; 'I' for Inactive)
REMARK    1  A    between atoms: C_1  and  C_2
REMARK    2  A    between atoms: C_5  and  C_36
REMARK    3  A    between atoms: N_8  and  C_10
REMARK    4  A    between atoms: C_10  and  C_11
REMARK    5  A    between atoms: C_10  and  C_12
REMARK    6  A    between atoms: C_10  and  C_13
REMARK    7  A    between atoms: C_13  and  N_14
REMARK    8  A    between atoms: C_15  and  C_17
REMARK    9  A    between atoms: C_21  and  S_23
REMARK   10  A    between atoms: S_23  and  N_26
REMARK   11  A    between atoms: C_28  and  C_35
REMARK   12  A    between atoms: C_31  and  C_34
REMARK                            x       y       z     vdW  Elec       q    Type
REMARK                         _______ _______ _______ _____ _____    ______ ____
ROOT
ATOM      1  N   UNL     1       0.625  -0.480   3.560  0.00  0.00    -0.313 N 
ATOM      2  C   UNL     1      -0.331  -0.065   4.415  0.00  0.00    +0.244 C 
ATOM      3  O   UNL     1      -0.086   0.811   5.221  0.00  0.00    -0.270 OA
ATOM      4  H   UNL     1       0.430  -1.178   2.916  0.00  0.00    +0.149 HD
ENDROOT
BRANCH   2   5
ATOM      5  C   UNL     1      -1.677  -0.675   4.371  0.00  0.00    +0.039 A 
ATOM      6  C   UNL     1      -1.959  -1.685   3.450  0.00  0.00    +0.013 A 
ATOM      7  C   UNL     1      -3.217  -2.250   3.415  0.00  0.00    +0.003 A 
ATOM      8  C   UNL     1      -4.198  -1.818   4.290  0.00  0.00    +0.028 A 
ATOM      9  C   UNL     1      -3.925  -0.818   5.206  0.00  0.00    +0.106 A 
ATOM     10  C   UNL     1      -2.669  -0.248   5.255  0.00  0.00    +0.041 A 
BRANCH   9  11
ATOM     11  S   UNL     1      -5.181  -0.274   6.315  0.00  0.00    +0.061 S 
ATOM     12  O   UNL     1      -4.835   1.048   6.704  0.00  0.00    -0.153 OA
ATOM     13  O   UNL     1      -6.425  -0.588   5.705  0.00  0.00    -0.153 OA
BRANCH  11  14
ATOM     14  N   UNL     1      -5.071  -1.212   7.676  0.00  0.00    -0.172 NA
ATOM     15  C   UNL     1      -5.822  -2.472   7.790  0.00  0.00    +0.140 C 
ATOM     16  C   UNL     1      -6.578  -2.466   9.123  0.00  0.00    +0.131 C 
ATOM     17  O   UNL     1      -5.663  -2.174  10.182  0.00  0.00    -0.371 OA
ATOM     18  C   UNL     1      -5.054  -0.883  10.091  0.00  0.00    +0.131 C 
ATOM     19  C   UNL     1      -4.215  -0.812   8.805  0.00  0.00    +0.140 C 
ATOM     20  C   UNL     1      -4.149  -0.658  11.303  0.00  0.00    +0.039 C 
ATOM     21  C   UNL     1      -7.211  -3.839   9.358  0.00  0.00    +0.039 C 
ENDBRANCH  11  14
ENDBRANCH   9  11
ENDBRANCH   2   5
BRANCH   1  22
ATOM     22  C   UNL     1       1.959   0.125   3.603  0.00  0.00    +0.092 C 
BRANCH  22  23
ATOM     23  C   UNL     1       2.882  -0.607   2.627  0.00  0.00    -0.055 C 
ATOM     24  C   UNL     1       4.296  -0.031   2.733  0.00  0.00    -0.008 C 
ATOM     25  C   UNL     1       2.363  -0.424   1.199  0.00  0.00    -0.008 C 
BRANCH  23  31
ATOM     26  C   UNL     1       1.894  -4.204   4.598  0.00  0.00    +0.005 C 
ATOM     27  C   UNL     1       3.330  -3.692   4.716  0.00  0.00    -0.031 C 
ATOM     28  C   UNL     1       4.235  -4.483   3.768  0.00  0.00    +0.003 C 
ATOM     29  C   UNL     1       3.784  -4.237   2.325  0.00  0.00    -0.031 C 
ATOM     30  C   UNL     1       3.814  -2.735   2.036  0.00  0.00    -0.075 C 
ATOM     31  N   UNL     1       2.910  -2.038   2.958  0.00  0.00    +0.384 N 
ATOM     32  C   UNL     1       3.377  -2.209   4.340  0.00  0.00    -0.075 C 
ATOM     33  C   UNL     1       4.729  -4.962   1.364  0.00  0.00    +0.005 C 
ATOM     34  H   UNL     1       1.980  -2.420   2.869  0.00  0.00    -0.081 HD
ENDBRANCH  23  31
ENDBRANCH  22  23
ENDBRANCH   1  22
TORSDOF 6
