REMARK  Name = ZINC36316292
REMARK  16 active torsions:
REMARK  status: ('A' for Active; 'I' for Inactive)
REMARK    1  A    between atoms: C_1  and  C_2
REMARK    2  A    between atoms: C_2  and  C_3
REMARK    3  A    between atoms: C_3  and  N_4
REMARK    4  A    between atoms: N_4  and  C_5
REMARK    5  A    between atoms: N_4  and  C_26
REMARK    6  A    between atoms: C_5  and  C_6
REMARK    7  A    between atoms: C_7  and  C_24
REMARK    8  A    between atoms: N_9  and  C_18
REMARK    9  A    between atoms: C_10  and  O_11
REMARK   10  A    between atoms: O_11  and  C_12
REMARK   11  A    between atoms: C_24  and  C_25
REMARK   12  A    between atoms: C_26  and  C_27
REMARK   13  A    between atoms: C_27  and  C_29
REMARK   14  A    between atoms: C_27  and  O_37
REMARK   15  A    between atoms: C_29  and  O_30
REMARK   16  A    between atoms: O_30  and  C_31
REMARK                            x       y       z     vdW  Elec       q    Type
REMARK                         _______ _______ _______ _____ _____    ______ ____
ROOT
ATOM      1  C   UNL     1       0.654  -1.653   3.511  0.00  0.00    +0.021 A 
ATOM      2  C   UNL     1       0.397  -0.776   4.569  0.00  0.00    +0.068 A 
ATOM      3  N   UNL     1      -0.833  -0.963   4.973  0.00  0.00    -0.168 NA
ATOM      4  N   UNL     1      -1.409  -1.969   4.186  0.00  0.00    -0.200 N 
ATOM      5  C   UNL     1      -0.475  -2.378   3.286  0.00  0.00    +0.225 A 
ENDROOT
BRANCH   4   6
ATOM      6  C   UNL     1      -2.716  -2.462   4.302  0.00  0.00    +0.069 A 
ATOM      7  C   UNL     1      -3.421  -2.837   3.166  0.00  0.00    +0.028 A 
ATOM      8  C   UNL     1      -4.709  -3.323   3.284  0.00  0.00    +0.002 A 
ATOM      9  C   UNL     1      -5.295  -3.436   4.531  0.00  0.00    +0.000 A 
ATOM     10  C   UNL     1      -4.596  -3.062   5.663  0.00  0.00    +0.002 A 
ATOM     11  C   UNL     1      -3.305  -2.582   5.553  0.00  0.00    +0.028 A 
ENDBRANCH   4   6
BRANCH   2  12
ATOM     12  C   UNL     1       1.373   0.217   5.147  0.00  0.00    +0.054 C 
ATOM     13  C   UNL     1       1.208   1.564   4.441  0.00  0.00    +0.010 C 
ENDBRANCH   2  12
BRANCH   1  14
ATOM     14  C   UNL     1       1.950  -1.771   2.750  0.00  0.00    -0.036 C 
BRANCH  14  15
ATOM     15  N   UNL     1       1.681  -1.680   1.309  0.00  0.00    +0.384 N 
ATOM     16  H   UNL     1       0.930  -2.309   1.066  0.00  0.00    -0.081 HD
BRANCH  15  17
ATOM     17  C   UNL     1       1.296  -0.304   0.968  0.00  0.00    -0.079 C 
BRANCH  17  19
ATOM     18  C   UNL     1      -0.559   1.367   1.056  0.00  0.00    +0.002 C 
ATOM     19  C   UNL     1      -0.090  -0.005   1.543  0.00  0.00    -0.022 C 
ENDBRANCH  17  19
ENDBRANCH  15  17
BRANCH  15  20
ATOM     20  C   UNL     1       2.891  -2.049   0.561  0.00  0.00    -0.043 C 
BRANCH  20  21
ATOM     21  C   UNL     1       2.572  -2.093  -0.934  0.00  0.00    +0.135 C 
BRANCH  21  22
ATOM     22  O   UNL     1       1.516  -3.027  -1.169  0.00  0.00    -0.390 OA
ATOM     23  H   UNL     1       1.722  -3.931  -0.895  0.00  0.00    +0.210 HD
ENDBRANCH  21  22
BRANCH  21  24
ATOM     24  C   UNL     1       3.818  -2.527  -1.709  0.00  0.00    +0.258 C 
BRANCH  24  25
ATOM     25  O   UNL     1       3.556  -2.457  -3.112  0.00  0.00    -0.489 OA
BRANCH  25  26
ATOM     26  C   UNL     1       4.568  -2.812  -3.947  0.00  0.00    +0.121 A 
ATOM     27  C   UNL     1       5.785  -3.225  -3.427  0.00  0.00    +0.045 A 
ATOM     28  C   UNL     1       6.812  -3.586  -4.278  0.00  0.00    +0.004 A 
ATOM     29  C   UNL     1       6.627  -3.535  -5.647  0.00  0.00    +0.000 A 
ATOM     30  C   UNL     1       5.414  -3.123  -6.168  0.00  0.00    +0.004 A 
ATOM     31  C   UNL     1       4.382  -2.767  -5.321  0.00  0.00    +0.045 A 
ENDBRANCH  25  26
ENDBRANCH  24  25
ENDBRANCH  21  24
ENDBRANCH  20  21
ENDBRANCH  15  20
ENDBRANCH  14  15
ENDBRANCH   1  14
BRANCH   5  32
ATOM     32  O   UNL     1      -0.638  -3.336   2.338  0.00  0.00    -0.438 OA
BRANCH  32  33
ATOM     33  C   UNL     1      -0.478  -4.633   2.709  0.00  0.00    +0.130 A 
ATOM     34  C   UNL     1      -0.265  -4.954   4.042  0.00  0.00    +0.046 A 
ATOM     35  C   UNL     1      -0.102  -6.274   4.416  0.00  0.00    +0.004 A 
ATOM     36  C   UNL     1      -0.151  -7.275   3.463  0.00  0.00    +0.000 A 
ATOM     37  C   UNL     1      -0.364  -6.958   2.134  0.00  0.00    +0.004 A 
ATOM     38  C   UNL     1      -0.533  -5.640   1.756  0.00  0.00    +0.046 A 
ENDBRANCH  32  33
ENDBRANCH   5  32
TORSDOF 14
