REMARK  Name = ZINC44649507
REMARK  13 active torsions:
REMARK  status: ('A' for Active; 'I' for Inactive)
REMARK    1  A    between atoms: C_1  and  C_2
REMARK    2  A    between atoms: C_4  and  C_33
REMARK    3  A    between atoms: C_5  and  C_32
REMARK    4  A    between atoms: C_6  and  C_8
REMARK    5  A    between atoms: C_8  and  C_10
REMARK    6  A    between atoms: C_10  and  C_12
REMARK    7  A    between atoms: C_10  and  S_13
REMARK    8  A    between atoms: S_13  and  C_14
REMARK    9  A    between atoms: C_17  and  C_25
REMARK   10  A    between atoms: N_18  and  C_19
REMARK   11  A    between atoms: C_25  and  N_26
REMARK   12  A    between atoms: C_33  and  O_35
REMARK   13  A    between atoms: O_35  and  C_36
REMARK                            x       y       z     vdW  Elec       q    Type
REMARK                         _______ _______ _______ _____ _____    ______ ____
ROOT
ATOM      1  C   UNL     1       3.408  -3.024   5.392  0.00  0.00    +0.197 A 
ATOM      2  N   UNL     1       4.216  -2.040   5.072  0.00  0.00    -0.122 NA
ATOM      3  N   UNL     1       5.357  -2.208   5.639  0.00  0.00    -0.135 NA
ATOM      4  C   UNL     1       5.348  -3.299   6.351  0.00  0.00    +0.122 A 
ATOM      5  N   UNL     1       4.103  -3.857   6.225  0.00  0.00    -0.276 N 
ENDROOT
BRANCH   5   6
ATOM      6  C   UNL     1       3.639  -5.038   6.822  0.00  0.00    +0.050 A 
ATOM      7  C   UNL     1       3.509  -5.115   8.202  0.00  0.00    +0.026 A 
ATOM      8  C   UNL     1       3.051  -6.279   8.788  0.00  0.00    +0.002 A 
ATOM      9  C   UNL     1       2.723  -7.368   8.001  0.00  0.00    +0.000 A 
ATOM     10  C   UNL     1       2.852  -7.295   6.626  0.00  0.00    +0.002 A 
ATOM     11  C   UNL     1       3.304  -6.131   6.034  0.00  0.00    +0.026 A 
ENDBRANCH   5   6
BRANCH   1  12
ATOM     12  S   UNL     1       1.741  -3.227   4.858  0.00  0.00    -0.074 S 
BRANCH  12  13
ATOM     13  C   UNL     1       1.445  -1.793   3.787  0.00  0.00    +0.124 C 
ATOM     14  C   UNL     1       1.516  -0.512   4.620  0.00  0.00    +0.028 C 
BRANCH  13  15
ATOM     15  C   UNL     1       0.081  -1.909   3.158  0.00  0.00    +0.194 C 
ATOM     16  O   UNL     1      -0.782  -2.557   3.702  0.00  0.00    -0.289 OA
BRANCH  15  21
ATOM     17  C   UNL     1      -0.019   1.526   0.010  0.00  0.00    +0.038 C 
ATOM     18  C   UNL     1       0.002  -0.004   0.002  0.00  0.00    +0.140 C 
ATOM     19  C   UNL     1      -1.410  -0.546   0.041  0.00  0.00    +0.065 C 
ATOM     20  C   UNL     1      -1.496  -1.272   1.173  0.00  0.00    -0.010 C 
ATOM     21  C   UNL     1      -0.203  -1.226   1.873  0.00  0.00    +0.106 C 
ATOM     22  N   UNL     1       0.656  -0.509   1.215  0.00  0.00    -0.272 NA
ATOM     23  C   UNL     1      -2.720  -2.011   1.647  0.00  0.00    +0.046 C 
BRANCH  19  24
ATOM     24  C   UNL     1      -2.470  -0.326  -0.952  0.00  0.00    +0.337 C 
ATOM     25  O   UNL     1      -3.566  -0.826  -0.792  0.00  0.00    -0.245 OA
BRANCH  24  26
ATOM     26  O   UNL     1      -2.227   0.432  -2.041  0.00  0.00    -0.465 OA
ATOM     27  C   UNL     1      -3.304   0.604  -2.965  0.00  0.00    +0.280 C 
ENDBRANCH  24  26
ENDBRANCH  19  24
ENDBRANCH  15  21
ENDBRANCH  13  15
ENDBRANCH  12  13
ENDBRANCH   1  12
BRANCH   4  28
ATOM     28  C   UNL     1       6.492  -3.844   7.166  0.00  0.00    -0.001 C 
BRANCH  28  29
ATOM     29  N   UNL     1       6.424  -3.302   8.530  0.00  0.00    +0.384 N 
ATOM     30  C   UNL     1       6.623  -1.848   8.487  0.00  0.00    -0.078 C 
ATOM     31  C   UNL     1       6.473  -1.267   9.895  0.00  0.00    -0.019 C 
ATOM     32  C   UNL     1       7.518  -1.901  10.817  0.00  0.00    -0.004 C 
ATOM     33  C   UNL     1       7.348  -3.423  10.796  0.00  0.00    -0.019 C 
ATOM     34  C   UNL     1       7.466  -3.924   9.355  0.00  0.00    -0.078 C 
ATOM     35  H   UNL     1       5.518  -3.503   8.926  0.00  0.00    -0.081 HD
ENDBRANCH  28  29
ENDBRANCH   4  28
TORSDOF 9
