REMARK  Name = ZINC59166942
REMARK  12 active torsions:
REMARK  status: ('A' for Active; 'I' for Inactive)
REMARK    1  A    between atoms: C_1  and  C_2
REMARK    2  A    between atoms: C_5  and  C_24
REMARK    3  A    between atoms: C_6  and  O_8
REMARK    4  A    between atoms: O_8  and  C_9
REMARK    5  A    between atoms: C_9  and  C_10
REMARK    6  A    between atoms: N_12  and  N_13
REMARK    7  A    between atoms: C_14  and  C_15
REMARK    8  A    between atoms: C_16  and  O_23
REMARK    9  A    between atoms: C_18  and  O_22
REMARK   10  A    between atoms: C_20  and  O_21
REMARK   11  A    between atoms: C_24  and  C_25
REMARK   12  A    between atoms: C_24  and  C_26
REMARK                            x       y       z     vdW  Elec       q    Type
REMARK                         _______ _______ _______ _____ _____    ______ ____
ROOT
ATOM      1  C   UNL     1       0.063  -2.932   4.751  0.00  0.00    +0.270 C 
ATOM      2  O   UNL     1       0.078  -4.133   4.584  0.00  0.00    -0.270 OA
ATOM      3  N   UNL     1       0.062  -2.425   6.000  0.00  0.00    -0.204 N 
ATOM      4  H   UNL     1       0.050  -1.465   6.134  0.00  0.00    +0.177 HD
ENDROOT
BRANCH   3   5
ATOM      5  N   UNL     1       0.078  -3.286   7.105  0.00  0.00    -0.187 NA
ATOM      6  C   UNL     1       0.077  -2.798   8.309  0.00  0.00    +0.145 C 
BRANCH   6   7
ATOM      7  C   UNL     1       0.095  -3.703   9.470  0.00  0.00    +0.078 A 
ATOM      8  C   UNL     1       0.118  -5.092   9.280  0.00  0.00    +0.132 A 
ATOM      9  C   UNL     1       0.135  -5.936  10.376  0.00  0.00    +0.091 A 
ATOM     10  C   UNL     1       0.128  -5.410  11.661  0.00  0.00    +0.124 A 
ATOM     11  C   UNL     1       0.105  -4.036  11.857  0.00  0.00    +0.091 A 
ATOM     12  C   UNL     1       0.094  -3.179  10.771  0.00  0.00    +0.132 A 
BRANCH  12  13
ATOM     13  O   UNL     1       0.076  -1.835  10.964  0.00  0.00    -0.506 OA
ATOM     14  H   UNL     1      -0.812  -1.458  11.024  0.00  0.00    +0.292 HD
ENDBRANCH  12  13
BRANCH  10  15
ATOM     15  O   UNL     1       0.143  -6.245  12.733  0.00  0.00    -0.507 OA
ATOM     16  H   UNL     1       1.031  -6.472  13.042  0.00  0.00    +0.292 HD
ENDBRANCH  10  15
BRANCH   8  17
ATOM     17  O   UNL     1       0.124  -5.607   8.024  0.00  0.00    -0.506 OA
ATOM     18  H   UNL     1       1.009  -5.742   7.658  0.00  0.00    +0.292 HD
ENDBRANCH   8  17
ENDBRANCH   6   7
ENDBRANCH   3   5
BRANCH   1  19
ATOM     19  C   UNL     1       0.045  -2.006   3.562  0.00  0.00    +0.326 C 
BRANCH  19  20
ATOM     20  O   UNL     1       0.050  -2.776   2.358  0.00  0.00    -0.482 OA
BRANCH  20  26
ATOM     21  C   UNL     1      -0.018   1.503   0.010  0.00  0.00    +0.044 C 
ATOM     22  C   UNL     1       0.002  -0.004   0.002  0.00  0.00    -0.047 A 
ATOM     23  C   UNL     1       0.006  -0.688  -1.200  0.00  0.00    +0.004 A 
ATOM     24  C   UNL     1       0.024  -2.071  -1.211  0.00  0.00    +0.008 A 
ATOM     25  C   UNL     1       0.039  -2.772  -0.020  0.00  0.00    -0.003 A 
ATOM     26  C   UNL     1       0.035  -2.088   1.186  0.00  0.00    +0.125 A 
ATOM     27  C   UNL     1       0.023  -0.700   1.195  0.00  0.00    +0.049 A 
BRANCH  25  28
ATOM     28  C   UNL     1       0.059  -4.279  -0.033  0.00  0.00    +0.016 C 
ATOM     29  C   UNL     1      -1.188  -4.799  -0.753  0.00  0.00    +0.012 C 
ATOM     30  C   UNL     1       1.311  -4.766  -0.764  0.00  0.00    +0.012 C 
ENDBRANCH  25  28
ENDBRANCH  20  26
ENDBRANCH  19  20
ENDBRANCH   1  19
TORSDOF 9
