REMARK  Name = ZINC46792004
REMARK  10 active torsions:
REMARK  status: ('A' for Active; 'I' for Inactive)
REMARK    1  A    between atoms: C_1  and  C_2
REMARK    2  A    between atoms: C_2  and  C_3
REMARK    3  A    between atoms: C_3  and  C_4
REMARK    4  A    between atoms: C_4  and  C_5
REMARK    5  A    between atoms: C_5  and  N_6
REMARK    6  A    between atoms: C_15  and  C_17
REMARK    7  A    between atoms: N_19  and  C_20
REMARK    8  A    between atoms: C_20  and  C_21
REMARK    9  A    between atoms: C_29  and  C_36
REMARK   10  A    between atoms: C_32  and  C_35
REMARK                            x       y       z     vdW  Elec       q    Type
REMARK                         _______ _______ _______ _____ _____    ______ ____
ROOT
ATOM      1  C   UNL     1      -2.777  -6.565  -2.618  0.00  0.00    +0.265 C 
ATOM      2  O   UNL     1      -2.779  -7.774  -2.744  0.00  0.00    -0.268 OA
ATOM      3  N   UNL     1      -2.798  -5.773  -3.708  0.00  0.00    -0.306 N 
ATOM      4  H   UNL     1      -2.796  -4.809  -3.607  0.00  0.00    +0.149 HD
ENDROOT
BRANCH   1  14
ATOM      5  N   UNL     1      -2.729  -4.063   0.007  0.00  0.00    -0.228 N 
ATOM      6  C   UNL     1      -2.707  -4.708   1.191  0.00  0.00    +0.275 A 
ATOM      7  O   UNL     1      -2.688  -4.088   2.238  0.00  0.00    -0.266 OA
ATOM      8  C   UNL     1      -2.706  -6.178   1.187  0.00  0.00    +0.050 A 
ATOM      9  C   UNL     1      -2.684  -6.936   2.353  0.00  0.00    +0.014 A 
ATOM     10  C   UNL     1      -2.685  -8.312   2.264  0.00  0.00    +0.001 A 
ATOM     11  C   UNL     1      -2.708  -8.943   1.027  0.00  0.00    +0.001 A 
ATOM     12  C   UNL     1      -2.730  -8.209  -0.140  0.00  0.00    +0.011 A 
ATOM     13  C   UNL     1      -2.730  -6.820  -0.072  0.00  0.00    +0.020 A 
ATOM     14  C   UNL     1      -2.752  -5.964  -1.269  0.00  0.00    +0.154 A 
ATOM     15  N   UNL     1      -2.755  -4.661  -1.124  0.00  0.00    -0.163 NA
BRANCH   5  16
ATOM     16  C   UNL     1      -2.730  -2.598   0.016  0.00  0.00    +0.147 C 
BRANCH  16  17
ATOM     17  C   UNL     1      -1.288  -2.087  -0.015  0.00  0.00    +0.023 C 
BRANCH  17  18
ATOM     18  C   UNL     1      -1.288  -0.557  -0.005  0.00  0.00    +0.002 C 
BRANCH  18  20
ATOM     19  C   UNL     1       0.153   1.484  -0.026  0.00  0.00    +0.004 C 
ATOM     20  C   UNL     1       0.153  -0.046  -0.035  0.00  0.00    -0.003 C 
ENDBRANCH  18  20
ENDBRANCH  17  18
ENDBRANCH  16  17
ENDBRANCH   5  16
ENDBRANCH   1  14
BRANCH   3  21
ATOM     21  C   UNL     1      -2.823  -6.370  -5.046  0.00  0.00    +0.141 C 
BRANCH  21  22
ATOM     22  C   UNL     1      -2.842  -5.277  -6.083  0.00  0.00    -0.014 A 
ATOM     23  C   UNL     1      -4.050  -4.764  -6.539  0.00  0.00    +0.010 A 
ATOM     24  C   UNL     1      -4.024  -3.762  -7.492  0.00  0.00    +0.042 A 
ATOM     25  C   UNL     1      -2.796  -3.303  -7.958  0.00  0.00    +0.099 A 
ATOM     26  N   UNL     1      -1.666  -3.817  -7.498  0.00  0.00    -0.349 N 
ATOM     27  C   UNL     1      -1.661  -4.771  -6.585  0.00  0.00    +0.089 A 
ATOM     28  N   UNL     1      -2.755  -2.296  -8.915  0.00  0.00    -0.312 N 
ATOM     29  C   UNL     1      -1.476  -1.702  -9.335  0.00  0.00    +0.137 C 
ATOM     30  C   UNL     1      -1.413  -1.724 -10.867  0.00  0.00    +0.133 C 
ATOM     31  O   UNL     1      -2.597  -1.121 -11.395  0.00  0.00    -0.371 OA
ATOM     32  C   UNL     1      -3.804  -1.810 -11.060  0.00  0.00    +0.133 C 
ATOM     33  C   UNL     1      -3.989  -1.797  -9.543  0.00  0.00    +0.137 C 
ATOM     34  C   UNL     1      -3.718  -3.257 -11.550  0.00  0.00    +0.039 C 
ATOM     35  C   UNL     1      -0.186  -0.941 -11.339  0.00  0.00    +0.039 C 
ATOM     36  H   UNL     1      -0.821  -3.483  -7.837  0.00  0.00    +0.167 HD
ENDBRANCH  21  22
ENDBRANCH   3  21
TORSDOF 7
