REMARK  Name = ZINC32913479
REMARK  6 active torsions:
REMARK  status: ('A' for Active; 'I' for Inactive)
REMARK    1  A    between atoms: C_3  and  C_35
REMARK    2  A    between atoms: C_5  and  N_7
REMARK    3  A    between atoms: C_8  and  C_10
REMARK    4  A    between atoms: C_11  and  C_20
REMARK    5  A    between atoms: C_22  and  C_33
REMARK    6  A    between atoms: N_25  and  C_27
REMARK                            x       y       z     vdW  Elec       q    Type
REMARK                         _______ _______ _______ _____ _____    ______ ____
ROOT
ATOM      1  C   UNL     1       1.090   7.389   0.240  0.00  0.00    +0.199 A 
ATOM      2  C   UNL     1       2.209   8.194   0.348  0.00  0.00    +0.042 A 
ATOM      3  C   UNL     1       1.699   9.571   0.437  0.00  0.00    +0.031 A 
ATOM      4  C   UNL     1       2.305  10.822   0.557  0.00  0.00    +0.050 A 
ATOM      5  C   UNL     1       1.523  11.955   0.623  0.00  0.00    +0.124 A 
ATOM      6  C   UNL     1       0.138  11.851   0.568  0.00  0.00    +0.042 A 
ATOM      7  C   UNL     1      -0.471  10.622   0.449  0.00  0.00    +0.050 A 
ATOM      8  C   UNL     1       0.299   9.466   0.382  0.00  0.00    +0.137 A 
ATOM      9  O   UNL     1      -0.018   8.161   0.265  0.00  0.00    -0.450 OA
ATOM     10  F   UNL     1       2.104  13.169   0.740  0.00  0.00    -0.205 F 
ENDROOT
BRANCH   2  11
ATOM     11  C   UNL     1       3.623   7.761   0.368  0.00  0.00    +0.004 A 
ATOM     12  C   UNL     1       4.248   7.463   1.593  0.00  0.00    +0.034 A 
ATOM     13  C   UNL     1       5.576   7.053   1.584  0.00  0.00    +0.117 A 
ATOM     14  C   UNL     1       6.271   6.961   0.298  0.00  0.00    +0.269 A 
ATOM     15  O   UNL     1       7.436   6.609   0.255  0.00  0.00    -0.266 OA
ATOM     16  N   UNL     1       5.614   7.267  -0.837  0.00  0.00    -0.311 N 
ATOM     17  C   UNL     1       4.326   7.657  -0.815  0.00  0.00    +0.098 A 
BRANCH  16  18
ATOM     18  C   UNL     1       6.314   7.173  -2.120  0.00  0.00    +0.090 C 
ATOM     19  C   UNL     1       6.793   5.736  -2.336  0.00  0.00    +0.025 C 
ATOM     20  C   UNL     1       7.524   5.637  -3.676  0.00  0.00    +0.002 C 
ATOM     21  C   UNL     1       8.729   6.581  -3.670  0.00  0.00    +0.000 C 
ATOM     22  C   UNL     1       8.250   8.018  -3.454  0.00  0.00    +0.002 C 
ATOM     23  C   UNL     1       7.519   8.116  -2.114  0.00  0.00    +0.025 C 
ENDBRANCH  16  18
BRANCH  13  24
ATOM     24  C   UNL     1       6.252   6.733   2.805  0.00  0.00    +0.105 C 
ATOM     25  N   UNL     1       6.788   6.480   3.774  0.00  0.00    -0.191 NA
ENDBRANCH  13  24
ENDBRANCH   2  11
BRANCH   1  27
ATOM     26  N   UNL     1      -0.056   5.251   0.029  0.00  0.00    -0.279 N 
ATOM     27  C   UNL     1       1.104   5.931   0.123  0.00  0.00    +0.284 C 
ATOM     28  O   UNL     1       2.164   5.331   0.110  0.00  0.00    -0.266 OA
ATOM     29  H   UNL     1      -1.008   5.796  -0.047  0.00  0.00    +0.155 HD
BRANCH  26  34
ATOM     30  C   UNL     1      -0.991   1.771  -0.717  0.00  0.00    +0.003 A 
ATOM     31  C   UNL     1      -0.050   1.076   0.015  0.00  0.00    +0.019 A 
ATOM     32  C   UNL     1       0.900   1.768   0.767  0.00  0.00    +0.054 A 
ATOM     33  C   UNL     1       0.901   3.164   0.767  0.00  0.00    +0.042 A 
ATOM     34  C   UNL     1      -0.048   3.853   0.028  0.00  0.00    +0.035 A 
ATOM     35  C   UNL     1      -0.994   3.153  -0.713  0.00  0.00    +0.023 A 
BRANCH  32  36
ATOM     36  C   UNL     1       1.874   1.050   1.532  0.00  0.00    +0.099 C 
ATOM     37  N   UNL     1       2.647   0.479   2.139  0.00  0.00    -0.191 NA
ENDBRANCH  32  36
ENDBRANCH  26  34
ENDBRANCH   1  27
TORSDOF 6
