REMARK  Name = ZINC41357319
REMARK  7 active torsions:
REMARK  status: ('A' for Active; 'I' for Inactive)
REMARK    1  A    between atoms: C_1  and  C_2
REMARK    2  A    between atoms: C_2  and  O_3
REMARK    3  A    between atoms: O_3  and  C_4
REMARK    4  A    between atoms: C_7  and  C_10
REMARK    5  A    between atoms: C_12  and  O_13
REMARK    6  A    between atoms: C_22  and  C_24
REMARK    7  A    between atoms: C_24  and  C_26
REMARK                            x       y       z     vdW  Elec       q    Type
REMARK                         _______ _______ _______ _____ _____    ______ ____
ROOT
ATOM      1  C   UNL     1       0.740  -6.069  -2.126  0.00  0.00    +0.139 A 
ATOM      2  C   UNL     1       1.509  -6.567  -3.160  0.00  0.00    +0.093 A 
ATOM      3  C   UNL     1       1.777  -7.934  -3.227  0.00  0.00    +0.131 A 
ATOM      4  C   UNL     1       1.243  -8.775  -2.219  0.00  0.00    +0.059 A 
ATOM      5  C   UNL     1       1.481 -10.158  -2.236  0.00  0.00    +0.017 A 
ATOM      6  C   UNL     1       0.961 -10.950  -1.260  0.00  0.00    +0.024 A 
ATOM      7  C   UNL     1       0.185 -10.390  -0.231  0.00  0.00    +0.037 A 
ATOM      8  C   UNL     1      -0.060  -9.017  -0.201  0.00  0.00    +0.070 A 
ATOM      9  C   UNL     1       0.465  -8.204  -1.189  0.00  0.00    +0.141 A 
ATOM     10  O   UNL     1       0.243  -6.872  -1.172  0.00  0.00    -0.455 OA
ATOM     11  N   UNL     1      -0.330 -11.192   0.741  0.00  0.00    -0.284 N 
ATOM     12  C   UNL     1       0.142 -12.412   0.909  0.00  0.00    +0.235 C 
ATOM     13  O   UNL     1       1.119 -12.779   0.280  0.00  0.00    -0.274 OA
ATOM     14  H   UNL     1      -1.045 -10.867   1.310  0.00  0.00    +0.155 HD
ENDROOT
BRANCH   1  18
ATOM     15  C   UNL     1      -0.053  -1.903  -1.949  0.00  0.00    +0.121 A 
ATOM     16  C   UNL     1      -0.562  -2.748  -0.969  0.00  0.00    +0.046 A 
ATOM     17  C   UNL     1      -0.308  -4.100  -1.022  0.00  0.00    +0.015 A 
ATOM     18  C   UNL     1       0.464  -4.623  -2.065  0.00  0.00    +0.018 A 
ATOM     19  C   UNL     1       0.974  -3.770  -3.049  0.00  0.00    +0.015 A 
ATOM     20  C   UNL     1       0.710  -2.420  -2.990  0.00  0.00    +0.046 A 
BRANCH  15  21
ATOM     21  O   UNL     1      -0.307  -0.571  -1.893  0.00  0.00    -0.492 OA
BRANCH  21  23
ATOM     22  C   UNL     1      -1.276   1.409  -0.902  0.00  0.00    +0.048 C 
ATOM     23  C   UNL     1      -1.098  -0.107  -0.797  0.00  0.00    +0.225 C 
ENDBRANCH  21  23
ENDBRANCH  15  21
ENDBRANCH   1  18
BRANCH  12  24
ATOM     24  C   UNL     1      -0.525 -13.351   1.880  0.00  0.00    +0.163 C 
ATOM     25  C   UNL     1       0.540 -14.053   2.725  0.00  0.00    +0.034 C 
ATOM     26 CL   UNL     1      -1.475 -14.582   0.968  0.00  0.00    -0.112 Cl
ENDBRANCH  12  24
BRANCH   3  27
ATOM     27  O   UNL     1       2.527  -8.443  -4.229  0.00  0.00    -0.506 OA
ATOM     28  H   UNL     1       2.840  -7.782  -4.861  0.00  0.00    +0.292 HD
ENDBRANCH   3  27
TORSDOF 5
