REMARK  Name = ZINC04737473
REMARK  5 active torsions:
REMARK  status: ('A' for Active; 'I' for Inactive)
REMARK    1  A    between atoms: C_1  and  C_2
REMARK    2  A    between atoms: C_9  and  N_14
REMARK    3  A    between atoms: C_10  and  N_11
REMARK    4  A    between atoms: C_15  and  C_16
REMARK    5  A    between atoms: C_21  and  O_22
REMARK                            x       y       z     vdW  Elec       q    Type
REMARK                         _______ _______ _______ _____ _____    ______ ____
ROOT
ATOM      1  C   UNL     1      -4.921  -8.447   0.519  0.00  0.00    +0.073 C 
ATOM      2  C   UNL     1      -4.660  -6.966   0.419  0.00  0.00    +0.077 A 
ATOM      3  N   UNL     1      -3.514  -6.351   0.343  0.00  0.00    -0.242 NA
ATOM      4  C   UNL     1      -3.417  -5.007   0.257  0.00  0.00    +0.111 A 
ATOM      5  C   UNL     1      -4.659  -4.328   0.257  0.00  0.00    +0.042 A 
ATOM      6  S   UNL     1      -5.815  -5.670   0.379  0.00  0.00    -0.072 S 
ATOM      7  C   UNL     1      -4.758  -2.959   0.176  0.00  0.00    +0.019 A 
ATOM      8  C   UNL     1      -3.623  -2.197   0.092  0.00  0.00    +0.031 A 
ATOM      9  C   UNL     1      -2.371  -2.826   0.088  0.00  0.00    +0.096 A 
ATOM     10  C   UNL     1      -2.261  -4.205   0.164  0.00  0.00    +0.178 A 
ENDROOT
BRANCH  10  11
ATOM     11  N   UNL     1      -0.924  -4.840   0.151  0.00  0.00    +0.061 N 
ATOM     12  O   UNL     1      -0.335  -5.040   1.198  0.00  0.00    -0.126 OA
ATOM     13  O   UNL     1      -0.412  -5.161  -0.906  0.00  0.00    -0.126 OA
ENDBRANCH  10  11
BRANCH   9  14
ATOM     14  N   UNL     1      -1.236  -2.064   0.003  0.00  0.00    -0.253 NA
ATOM     15  C   UNL     1      -1.089  -1.026   0.777  0.00  0.00    +0.123 C 
BRANCH  15  16
ATOM     16  C   UNL     1       0.073  -0.141   0.607  0.00  0.00    +0.036 A 
ATOM     17  C   UNL     1       0.235   0.974   1.435  0.00  0.00    +0.028 A 
ATOM     18  C   UNL     1       1.328   1.799   1.270  0.00  0.00    +0.019 A 
ATOM     19  C   UNL     1       2.268   1.526   0.288  0.00  0.00    +0.019 A 
ATOM     20  C   UNL     1       2.120   0.427  -0.536  0.00  0.00    +0.047 A 
ATOM     21  C   UNL     1       1.027  -0.412  -0.385  0.00  0.00    +0.125 A 
ATOM     22 BR   UNL     1       1.546   3.307   2.389  0.00  0.00    -0.050 Br
BRANCH  21  23
ATOM     23  O   UNL     1       0.881  -1.492  -1.194  0.00  0.00    -0.506 OA
ATOM     24  H   UNL     1       0.382  -1.314  -2.002  0.00  0.00    +0.292 HD
ENDBRANCH  21  23
ENDBRANCH  15  16
ENDBRANCH   9  14
TORSDOF 4
