REMARK  Name = ZINC17158438
REMARK  6 active torsions:
REMARK  status: ('A' for Active; 'I' for Inactive)
REMARK    1  A    between atoms: N_10  and  C_13
REMARK    2  A    between atoms: C_13  and  C_14
REMARK    3  A    between atoms: C_14  and  C_15
REMARK    4  A    between atoms: C_15  and  C_16
REMARK    5  A    between atoms: N_18  and  N_19
REMARK    6  A    between atoms: C_20  and  C_22
REMARK                            x       y       z     vdW  Elec       q    Type
REMARK                         _______ _______ _______ _____ _____    ______ ____
ROOT
ATOM      1  C   UNL     1      -3.337   3.547   2.901  0.00  0.00    +0.229 C 
ATOM      2  O   UNL     1      -2.677   3.106   3.817  0.00  0.00    -0.274 OA
ATOM      3  N   UNL     1      -4.438   4.281   3.157  0.00  0.00    -0.234 N 
ATOM      4  H   UNL     1      -4.967   4.634   2.424  0.00  0.00    +0.173 HD
ENDROOT
BRANCH   3   5
ATOM      5  N   UNL     1      -4.821   4.533   4.481  0.00  0.00    -0.234 N 
ATOM      6  C   UNL     1      -5.922   5.266   4.736  0.00  0.00    +0.235 C 
ATOM      7  O   UNL     1      -6.582   5.708   3.820  0.00  0.00    -0.274 OA
ATOM      8  H   UNL     1      -4.293   4.179   5.214  0.00  0.00    +0.173 HD
BRANCH   6   9
ATOM      9  C   UNL     1      -6.333   5.537   6.161  0.00  0.00    +0.049 C 
ATOM     10  C   UNL     1      -6.598   4.211   6.876  0.00  0.00    +0.019 C 
ATOM     11  C   UNL     1      -7.015   4.486   8.322  0.00  0.00    -0.009 C 
ATOM     12  C   UNL     1      -8.289   5.334   8.333  0.00  0.00    +0.007 C 
ATOM     13  C   UNL     1      -8.024   6.660   7.618  0.00  0.00    -0.009 C 
ATOM     14  C   UNL     1      -7.606   6.385   6.171  0.00  0.00    +0.019 C 
ATOM     15  C   UNL     1      -6.903   7.413   8.338  0.00  0.00    +0.007 C 
ATOM     16  C   UNL     1      -5.630   6.565   8.327  0.00  0.00    -0.009 C 
ATOM     17  C   UNL     1      -5.895   5.238   9.042  0.00  0.00    +0.007 C 
ATOM     18  C   UNL     1      -5.213   6.290   6.881  0.00  0.00    +0.019 C 
ENDBRANCH   6   9
ENDBRANCH   3   5
BRANCH   1  19
ATOM     19  C   UNL     1      -2.926   3.277   1.477  0.00  0.00    +0.099 C 
BRANCH  19  20
ATOM     20  C   UNL     1      -1.653   2.428   1.466  0.00  0.00    +0.029 C 
BRANCH  20  21
ATOM     21  C   UNL     1      -1.235   2.153   0.020  0.00  0.00    +0.117 C 
BRANCH  21  31
ATOM     22  C   UNL     1       4.179  -0.621  -0.041  0.00  0.00    +0.016 A 
ATOM     23  C   UNL     1       3.574   0.626  -0.029  0.00  0.00    +0.015 A 
ATOM     24  C   UNL     1       2.191   0.718  -0.015  0.00  0.00    +0.049 A 
ATOM     25  C   UNL     1       1.409  -0.456  -0.014  0.00  0.00    +0.050 A 
ATOM     26  C   UNL     1       2.027  -1.695  -0.026  0.00  0.00    +0.029 A 
ATOM     27  C   UNL     1       3.413  -1.772  -0.040  0.00  0.00    +0.019 A 
ATOM     28 BR   UNL     1       4.259  -3.463  -0.058  0.00  0.00    -0.050 Br
ATOM     29  C   UNL     1       0.002  -0.004   0.002  0.00  0.00    +0.254 C 
ATOM     30  O   UNL     1      -0.974  -0.726   0.008  0.00  0.00    -0.270 OA
ATOM     31  N   UNL     1      -0.016   1.341   0.009  0.00  0.00    -0.234 N 
ATOM     32  C   UNL     1       1.232   1.842   0.000  0.00  0.00    +0.254 C 
ATOM     33  O   UNL     1       1.523   3.021   0.004  0.00  0.00    -0.270 OA
ENDBRANCH  21  31
ENDBRANCH  20  21
ENDBRANCH  19  20
ENDBRANCH   1  19
TORSDOF 6
