REMARK  Name = ZINC44351606
REMARK  11 active torsions:
REMARK  status: ('A' for Active; 'I' for Inactive)
REMARK    1  A    between atoms: C_1  and  C_2
REMARK    2  A    between atoms: C_2  and  C_3
REMARK    3  A    between atoms: C_3  and  N_4
REMARK    4  A    between atoms: C_5  and  C_7
REMARK    5  A    between atoms: C_7  and  C_8
REMARK    6  A    between atoms: C_8  and  N_9
REMARK    7  A    between atoms: N_9  and  C_10
REMARK    8  A    between atoms: C_10  and  C_11
REMARK    9  A    between atoms: C_16  and  O_17
REMARK   10  A    between atoms: O_17  and  C_18
REMARK   11  A    between atoms: C_18  and  C_19
REMARK                            x       y       z     vdW  Elec       q    Type
REMARK                         _______ _______ _______ _____ _____    ______ ____
ROOT
ATOM      1  N   UNL     1      -3.966  -6.194   0.007  0.00  0.00    +0.382 N 
ATOM      2  H   UNL     1      -3.494  -6.519  -0.824  0.00  0.00    -0.085 HD
ATOM      3  H   UNL     1      -3.478  -6.528   0.824  0.00  0.00    -0.085 HD
ENDROOT
BRANCH   1   4
ATOM      4  C   UNL     1      -3.986  -4.725   0.015  0.00  0.00    -0.073 C 
BRANCH   4   5
ATOM      5  C   UNL     1      -2.551  -4.195   0.004  0.00  0.00    +0.077 C 
BRANCH   5   7
ATOM      6  N   UNL     1      -1.413  -1.998   0.005  0.00  0.00    -0.315 N 
ATOM      7  C   UNL     1      -2.571  -2.688   0.012  0.00  0.00    +0.211 C 
ATOM      8  O   UNL     1      -3.630  -2.096   0.025  0.00  0.00    -0.276 OA
ATOM      9  H   UNL     1      -0.567  -2.472  -0.006  0.00  0.00    +0.149 HD
BRANCH   6  10
ATOM     10  C   UNL     1      -1.433  -0.534   0.013  0.00  0.00    +0.104 C 
BRANCH  10  12
ATOM     11  C   UNL     1      -0.019   1.526   0.010  0.00  0.00    +0.005 C 
ATOM     12  C   UNL     1       0.002  -0.004   0.002  0.00  0.00    +0.015 C 
ENDBRANCH  10  12
ENDBRANCH   6  10
ENDBRANCH   5   7
ENDBRANCH   4   5
ENDBRANCH   1   4
BRANCH   1  13
ATOM     13  C   UNL     1      -5.345  -6.702   0.017  0.00  0.00    -0.043 C 
BRANCH  13  14
ATOM     14  C   UNL     1      -5.324  -8.209   0.009  0.00  0.00    -0.021 A 
ATOM     15  C   UNL     1      -5.528  -8.896  -1.172  0.00  0.00    +0.020 A 
ATOM     16  C   UNL     1      -5.510 -10.279  -1.181  0.00  0.00    +0.019 A 
ATOM     17  C   UNL     1      -5.287 -10.978  -0.007  0.00  0.00    +0.034 A 
ATOM     18  C   UNL     1      -5.083 -10.294   1.176  0.00  0.00    +0.061 A 
ATOM     19  C   UNL     1      -5.095  -8.906   1.185  0.00  0.00    +0.136 A 
ATOM     20 BR   UNL     1      -4.780 -11.249   2.780  0.00  0.00    -0.046 Br
ATOM     21 BR   UNL     1      -5.790 -11.217  -2.799  0.00  0.00    -0.050 Br
BRANCH  19  22
ATOM     22  O   UNL     1      -4.888  -8.231   2.347  0.00  0.00    -0.491 OA
BRANCH  22  23
ATOM     23  C   UNL     1      -6.041  -7.927   3.135  0.00  0.00    +0.226 C 
ATOM     24  C   UNL     1      -5.613  -7.171   4.394  0.00  0.00    +0.048 C 
ENDBRANCH  22  23
ENDBRANCH  19  22
ENDBRANCH  13  14
ENDBRANCH   1  13
TORSDOF 9
