REMARK  Name = ZINC38183706
REMARK  9 active torsions:
REMARK  status: ('A' for Active; 'I' for Inactive)
REMARK    1  A    between atoms: C_1  and  C_2
REMARK    2  A    between atoms: C_3  and  O_24
REMARK    3  A    between atoms: C_9  and  O_23
REMARK    4  A    between atoms: C_10  and  C_13
REMARK    5  A    between atoms: C_13  and  N_14
REMARK    6  A    between atoms: N_14  and  C_15
REMARK    7  A    between atoms: N_14  and  C_16
REMARK    8  A    between atoms: C_16  and  C_17
REMARK    9  A    between atoms: O_24  and  C_25
REMARK                            x       y       z     vdW  Elec       q    Type
REMARK                         _______ _______ _______ _____ _____    ______ ____
ROOT
ATOM      1  C   UNL     1      -0.024   1.489  -0.116  0.00  0.00    +0.090 C 
ATOM      2  C   UNL     1      -0.005  -0.017  -0.060  0.00  0.00    +0.148 A 
ATOM      3  C   UNL     1      -1.171  -0.672   0.105  0.00  0.00    +0.213 A 
ATOM      4  C   UNL     1      -1.175  -2.095   0.160  0.00  0.00    +0.235 A 
ATOM      5  O   UNL     1      -2.211  -2.722   0.308  0.00  0.00    -0.283 OA
ATOM      6  C   UNL     1       0.123  -2.779   0.030  0.00  0.00    +0.068 A 
ATOM      7  C   UNL     1       0.220  -4.170   0.070  0.00  0.00    +0.019 A 
ATOM      8  C   UNL     1       1.442  -4.768  -0.054  0.00  0.00    +0.046 A 
ATOM      9  C   UNL     1       2.590  -3.996  -0.221  0.00  0.00    +0.122 A 
ATOM     10  C   UNL     1       2.511  -2.615  -0.264  0.00  0.00    +0.020 A 
ATOM     11  C   UNL     1       1.277  -1.992  -0.139  0.00  0.00    +0.144 A 
ATOM     12  O   UNL     1       1.170  -0.648  -0.182  0.00  0.00    -0.456 OA
ENDROOT
BRANCH   9  13
ATOM     13  O   UNL     1       3.798  -4.605  -0.342  0.00  0.00    -0.506 OA
ATOM     14  H   UNL     1       4.043  -4.814  -1.254  0.00  0.00    +0.292 HD
ENDBRANCH   9  13
BRANCH  10  15
ATOM     15  C   UNL     1       3.759  -1.790  -0.444  0.00  0.00    -0.035 C 
BRANCH  15  16
ATOM     16  N   UNL     1       4.001  -1.574  -1.877  0.00  0.00    +0.383 N 
ATOM     17  C   UNL     1       2.914  -0.762  -2.439  0.00  0.00    -0.095 C 
ATOM     18  H   UNL     1       4.035  -2.465  -2.350  0.00  0.00    -0.081 HD
BRANCH  16  19
ATOM     19  C   UNL     1       5.279  -0.874  -2.058  0.00  0.00    -0.043 C 
BRANCH  19  20
ATOM     20  C   UNL     1       5.587  -0.761  -3.529  0.00  0.00    -0.064 A 
ATOM     21  C   UNL     1       6.301  -1.760  -4.164  0.00  0.00    +0.002 A 
ATOM     22  C   UNL     1       6.583  -1.656  -5.514  0.00  0.00    +0.000 A 
ATOM     23  C   UNL     1       6.149  -0.555  -6.228  0.00  0.00    +0.000 A 
ATOM     24  C   UNL     1       5.434   0.443  -5.593  0.00  0.00    +0.000 A 
ATOM     25  C   UNL     1       5.149   0.337  -4.244  0.00  0.00    +0.002 A 
ENDBRANCH  19  20
ENDBRANCH  16  19
ENDBRANCH  15  16
ENDBRANCH  10  15
BRANCH   3  26
ATOM     26  O   UNL     1      -2.337   0.021   0.219  0.00  0.00    -0.448 OA
BRANCH  26  27
ATOM     27  C   UNL     1      -2.987  -0.016   1.411  0.00  0.00    +0.143 A 
ATOM     28  C   UNL     1      -2.405  -0.648   2.501  0.00  0.00    +0.047 A 
ATOM     29  C   UNL     1      -3.068  -0.684   3.712  0.00  0.00    +0.004 A 
ATOM     30  C   UNL     1      -4.311  -0.092   3.840  0.00  0.00    +0.001 A 
ATOM     31  C   UNL     1      -4.894   0.538   2.756  0.00  0.00    +0.019 A 
ATOM     32  C   UNL     1      -4.233   0.582   1.543  0.00  0.00    +0.060 A 
ATOM     33 BR   UNL     1      -5.027   1.451   0.063  0.00  0.00    -0.046 Br
ENDBRANCH  26  27
ENDBRANCH   3  26
TORSDOF 7
