REMARK  Name = ZINC05276843
REMARK  10 active torsions:
REMARK  status: ('A' for Active; 'I' for Inactive)
REMARK    1  A    between atoms: C_1  and  C_2
REMARK    2  A    between atoms: C_3  and  C_15
REMARK    3  A    between atoms: C_4  and  O_14
REMARK    4  A    between atoms: C_5  and  C_8
REMARK    5  A    between atoms: C_15  and  O_17
REMARK    6  A    between atoms: O_17  and  C_18
REMARK    7  A    between atoms: C_21  and  C_30
REMARK    8  A    between atoms: C_25  and  C_27
REMARK    9  A    between atoms: C_27  and  C_28
REMARK   10  A    between atoms: C_27  and  C_29
REMARK                            x       y       z     vdW  Elec       q    Type
REMARK                         _______ _______ _______ _____ _____    ______ ____
ROOT
ATOM      1  C   UNL     1      -2.527  -2.881   4.088  0.00  0.00    +0.064 C 
ATOM      2  C   UNL     1      -3.136  -3.332   2.786  0.00  0.00    +0.031 A 
ATOM      3  C   UNL     1      -3.564  -2.505   1.767  0.00  0.00    +0.121 A 
ATOM      4  C   UNL     1      -4.072  -3.385   0.710  0.00  0.00    +0.156 A 
ATOM      5  C   UNL     1      -3.920  -4.659   1.169  0.00  0.00    +0.090 A 
ATOM      6  N   UNL     1      -3.357  -4.609   2.424  0.00  0.00    -0.355 N 
ATOM      7  H   UNL     1      -3.147  -5.384   2.968  0.00  0.00    +0.166 HD
ENDROOT
BRANCH   5   8
ATOM      8  C   UNL     1      -4.296  -5.888   0.441  0.00  0.00    +0.002 A 
ATOM      9  C   UNL     1      -5.530  -5.969  -0.208  0.00  0.00    +0.010 A 
ATOM     10  C   UNL     1      -5.873  -7.118  -0.890  0.00  0.00    +0.001 A 
ATOM     11  C   UNL     1      -5.002  -8.193  -0.923  0.00  0.00    +0.000 A 
ATOM     12  C   UNL     1      -3.780  -8.121  -0.278  0.00  0.00    +0.001 A 
ATOM     13  C   UNL     1      -3.422  -6.976   0.404  0.00  0.00    +0.010 A 
ENDBRANCH   5   8
BRANCH   4  14
ATOM     14  O   UNL     1      -4.592  -3.005  -0.488  0.00  0.00    -0.504 OA
ATOM     15  H   UNL     1      -3.936  -2.929  -1.195  0.00  0.00    +0.292 HD
ENDBRANCH   4  14
BRANCH   3  16
ATOM     16  C   UNL     1      -3.514  -1.035   1.743  0.00  0.00    +0.345 C 
ATOM     17  O   UNL     1      -4.453  -0.388   2.163  0.00  0.00    -0.245 OA
BRANCH  16  18
ATOM     18  O   UNL     1      -2.426  -0.406   1.256  0.00  0.00    -0.457 OA
BRANCH  18  19
ATOM     19  C   UNL     1      -2.445   1.046   1.264  0.00  0.00    +0.180 C 
ATOM     20  C   UNL     1      -3.041   1.555  -0.050  0.00  0.00    +0.048 C 
ATOM     21  C   UNL     1      -2.188   1.063  -1.221  0.00  0.00    -0.011 C 
ATOM     22  C   UNL     1      -0.760   1.592  -1.069  0.00  0.00    +0.004 C 
ATOM     23  C   UNL     1      -0.165   1.083   0.245  0.00  0.00    +0.007 C 
ATOM     24  C   UNL     1      -1.018   1.575   1.416  0.00  0.00    +0.032 C 
ATOM     25  C   UNL     1      -2.167  -0.467  -1.229  0.00  0.00    +0.007 C 
BRANCH  24  26
ATOM     26  C   UNL     1      -0.422   1.065   2.730  0.00  0.00    -0.011 C 
ATOM     27  C   UNL     1       1.006   1.594   2.881  0.00  0.00    +0.007 C 
ATOM     28  C   UNL     1      -1.275   1.557   3.901  0.00  0.00    +0.007 C 
ENDBRANCH  24  26
ENDBRANCH  18  19
ENDBRANCH  16  18
ENDBRANCH   3  16
TORSDOF 6
