REMARK  Name = ZINC20726568
REMARK  9 active torsions:
REMARK  status: ('A' for Active; 'I' for Inactive)
REMARK    1  A    between atoms: C_1  and  C_2
REMARK    2  A    between atoms: C_5  and  C_8
REMARK    3  A    between atoms: N_12  and  C_20
REMARK    4  A    between atoms: C_20  and  C_21
REMARK    5  A    between atoms: N_23  and  C_24
REMARK    6  A    between atoms: C_24  and  C_25
REMARK    7  A    between atoms: C_25  and  N_26
REMARK    8  A    between atoms: C_29  and  C_32
REMARK    9  A    between atoms: C_32  and  C_33
REMARK                            x       y       z     vdW  Elec       q    Type
REMARK                         _______ _______ _______ _____ _____    ______ ____
ROOT
ATOM      1  C   UNL     1       3.260  -0.687   1.785  0.00  0.00    +0.209 C 
ENDROOT
BRANCH   1   6
ATOM      2  C   UNL     1      -0.900  -0.729  -0.702  0.00  0.00    +0.028 C 
ATOM      3  C   UNL     1       0.079   0.001  -0.115  0.00  0.00    +0.076 C 
ATOM      4  C   UNL     1       1.123  -0.624   0.728  0.00  0.00    +0.258 C 
ATOM      5  O   UNL     1       0.882  -1.659   1.319  0.00  0.00    -0.269 OA
ATOM      6  N   UNL     1       2.328  -0.059   0.845  0.00  0.00    -0.257 N 
ATOM      7  C   UNL     1       2.787   1.063   0.167  0.00  0.00    +0.051 A 
ATOM      8  C   UNL     1       4.163   1.266   0.072  0.00  0.00    +0.024 A 
ATOM      9  C   UNL     1       4.664   2.366  -0.593  0.00  0.00    +0.002 A 
ATOM     10  C   UNL     1       3.808   3.284  -1.176  0.00  0.00    +0.001 A 
ATOM     11  C   UNL     1       2.441   3.098  -1.090  0.00  0.00    +0.017 A 
ATOM     12  C   UNL     1       1.933   1.996  -0.423  0.00  0.00    +0.034 A 
ATOM     13  S   UNL     1       0.184   1.760  -0.312  0.00  0.00    -0.082 S 
BRANCH   2  18
ATOM     14  C   UNL     1      -5.217   1.914  -3.425  0.00  0.00    +0.044 C 
ATOM     15  C   UNL     1      -4.085   1.221  -2.711  0.00  0.00    -0.050 A 
ATOM     16  C   UNL     1      -3.644  -0.014  -3.156  0.00  0.00    +0.004 A 
ATOM     17  C   UNL     1      -2.609  -0.654  -2.508  0.00  0.00    +0.008 A 
ATOM     18  C   UNL     1      -2.004  -0.053  -1.399  0.00  0.00    -0.024 A 
ATOM     19  C   UNL     1      -2.459   1.192  -0.953  0.00  0.00    +0.008 A 
ATOM     20  C   UNL     1      -3.492   1.822  -1.615  0.00  0.00    +0.004 A 
ENDBRANCH   2  18
ENDBRANCH   1   6
BRANCH   1  21
ATOM     21  C   UNL     1       4.071  -1.734   1.065  0.00  0.00    +0.231 C 
ATOM     22  O   UNL     1       3.888  -1.935  -0.117  0.00  0.00    -0.274 OA
ATOM     23  N   UNL     1       4.999  -2.446   1.734  0.00  0.00    -0.316 N 
ATOM     24  H   UNL     1       5.165  -2.263   2.806  0.00  0.00    +0.149 HD
BRANCH  23  25
ATOM     25  C   UNL     1       5.787  -3.463   1.034  0.00  0.00    +0.086 C 
BRANCH  25  26
ATOM     26  C   UNL     1       6.760  -4.119   2.015  0.00  0.00    -0.060 C 
BRANCH  26  27
ATOM     27  N   UNL     1       7.551  -5.139   1.313  0.00  0.00    +0.381 N 
ATOM     28  C   UNL     1       8.048  -4.628   0.029  0.00  0.00    -0.078 C 
ATOM     29  C   UNL     1       8.740  -5.757  -0.737  0.00  0.00    -0.015 C 
ATOM     30  C   UNL     1       9.900  -6.301   0.101  0.00  0.00    -0.010 C 
ATOM     31  C   UNL     1       9.362  -6.782   1.452  0.00  0.00    -0.015 C 
ATOM     32  C   UNL     1       8.652  -5.623   2.155  0.00  0.00    -0.078 C 
ATOM     33  H   UNL     1       6.891  -5.993   1.101  0.00  0.00    -0.082 HD
BRANCH  30  34
ATOM     34  C   UNL     1      10.559  -7.470  -0.632  0.00  0.00    +0.038 C 
BRANCH  34  35
ATOM     35  C   UNL     1      11.196  -6.971  -1.904  0.00  0.00    -0.047 A 
ATOM     36  C   UNL     1      10.469  -6.951  -3.079  0.00  0.00    +0.003 A 
ATOM     37  C   UNL     1      11.051  -6.489  -4.245  0.00  0.00    +0.000 A 
ATOM     38  C   UNL     1      12.363  -6.055  -4.237  0.00  0.00    +0.000 A 
ATOM     39  C   UNL     1      13.092  -6.079  -3.062  0.00  0.00    +0.000 A 
ATOM     40  C   UNL     1      12.508  -6.537  -1.896  0.00  0.00    +0.003 A 
ENDBRANCH  34  35
ENDBRANCH  30  34
ENDBRANCH  26  27
ENDBRANCH  25  26
ENDBRANCH  23  25
ENDBRANCH   1  21
TORSDOF 8
