REMARK  Name = ZINC63318895
REMARK  6 active torsions:
REMARK  status: ('A' for Active; 'I' for Inactive)
REMARK    1  A    between atoms: C_1  and  O_2
REMARK    2  A    between atoms: O_2  and  C_3
REMARK    3  A    between atoms: C_6  and  C_9
REMARK    4  A    between atoms: N_10  and  N_11
REMARK    5  A    between atoms: C_12  and  C_14
REMARK    6  A    between atoms: C_16  and  C_25
REMARK                            x       y       z     vdW  Elec       q    Type
REMARK                         _______ _______ _______ _____ _____    ______ ____
ROOT
ATOM      1  C   UNL     1       3.779  -6.422  -6.827  0.00  0.00    +0.199 C 
ATOM      2  C   UNL     1       5.280  -6.549  -6.689  0.00  0.00    -0.000 C 
ATOM      3  C   UNL     1       5.545  -7.907  -6.720  0.00  0.00    +0.006 A 
ATOM      4  C   UNL     1       6.748  -8.649  -6.636  0.00  0.00    +0.030 A 
ATOM      5  C   UNL     1       6.708 -10.003  -6.696  0.00  0.00    +0.042 A 
ATOM      6  C   UNL     1       5.500 -10.697  -6.841  0.00  0.00    +0.022 A 
ATOM      7  C   UNL     1       4.312 -10.055  -6.927  0.00  0.00    +0.027 A 
ATOM      8  C   UNL     1       4.270  -8.635  -6.872  0.00  0.00    +0.044 A 
ATOM      9  N   UNL     1       3.263  -7.790  -6.934  0.00  0.00    -0.370 N 
ATOM     10 CL   UNL     1       8.191 -10.899  -6.593  0.00  0.00    -0.084 Cl
ATOM     11  H   UNL     1       2.329  -8.033  -7.033  0.00  0.00    +0.161 HD
ENDROOT
BRANCH   2  12
ATOM     12  C   UNL     1       6.251  -5.461  -6.552  0.00  0.00    -0.019 A 
ATOM     13  C   UNL     1       7.493  -5.697  -5.946  0.00  0.00    +0.008 A 
ATOM     14  C   UNL     1       8.401  -4.668  -5.822  0.00  0.00    +0.001 A 
ATOM     15  C   UNL     1       8.089  -3.404  -6.293  0.00  0.00    +0.000 A 
ATOM     16  C   UNL     1       6.864  -3.161  -6.893  0.00  0.00    +0.001 A 
ATOM     17  C   UNL     1       5.946  -4.179  -7.031  0.00  0.00    +0.008 A 
ENDBRANCH   2  12
BRANCH   1  19
ATOM     18  N   UNL     1       3.088  -4.400  -5.580  0.00  0.00    -0.205 N 
ATOM     19  C   UNL     1       3.202  -5.743  -5.612  0.00  0.00    +0.259 C 
ATOM     20  O   UNL     1       2.840  -6.405  -4.662  0.00  0.00    -0.271 OA
ATOM     21  H   UNL     1       3.433  -3.867  -6.313  0.00  0.00    +0.177 HD
BRANCH  18  23
ATOM     22  C   UNL     1       2.361  -2.482  -4.458  0.00  0.00    +0.138 C 
ATOM     23  N   UNL     1       2.471  -3.775  -4.489  0.00  0.00    -0.188 NA
BRANCH  22  27
ATOM     24  C   UNL     1       0.490  -0.588  -1.151  0.00  0.00    +0.120 A 
ATOM     25  C   UNL     1       0.984   0.178  -2.200  0.00  0.00    +0.046 A 
ATOM     26  C   UNL     1       1.592  -0.433  -3.275  0.00  0.00    +0.013 A 
ATOM     27  C   UNL     1       1.711  -1.825  -3.310  0.00  0.00    -0.005 A 
ATOM     28  C   UNL     1       1.213  -2.591  -2.253  0.00  0.00    +0.013 A 
ATOM     29  C   UNL     1       0.611  -1.972  -1.179  0.00  0.00    +0.046 A 
BRANCH  24  31
ATOM     30  C   UNL     1      -0.200   1.444  -0.129  0.00  0.00    +0.277 C 
ATOM     31  O   UNL     1      -0.109   0.018  -0.093  0.00  0.00    -0.495 OA
ENDBRANCH  24  31
ENDBRANCH  22  27
ENDBRANCH  18  23
ENDBRANCH   1  19
TORSDOF 5
