REMARK  Name = ZINC12190557
REMARK  10 active torsions:
REMARK  status: ('A' for Active; 'I' for Inactive)
REMARK    1  A    between atoms: C_1  and  C_2
REMARK    2  A    between atoms: C_2  and  C_3
REMARK    3  A    between atoms: C_3  and  C_18
REMARK    4  A    between atoms: N_6  and  C_10
REMARK    5  A    between atoms: C_10  and  C_11
REMARK    6  A    between atoms: C_11  and  C_12
REMARK    7  A    between atoms: C_13  and  C_17
REMARK    8  A    between atoms: C_23  and  C_24
REMARK    9  A    between atoms: C_23  and  N_63
REMARK   10  A    between atoms: C_29  and  C_30
REMARK                            x       y       z     vdW  Elec       q    Type
REMARK                         _______ _______ _______ _____ _____    ______ ____
ROOT
ATOM      1  C   UNL     1       1.584   2.331  -0.086  0.00  0.00    +0.115 C 
ATOM      2  C   UNL     1       0.396   1.399  -0.214  0.00  0.00    +0.247 C 
ATOM      3  O   UNL     1       0.417   0.188  -0.267  0.00  0.00    -0.273 OA
ATOM      4  N   UNL     1      -0.689   2.197  -0.264  0.00  0.00    -0.224 N 
ATOM      5  C   UNL     1      -0.355   3.490  -0.177  0.00  0.00    +0.309 C 
ATOM      6  O   UNL     1      -1.162   4.399  -0.196  0.00  0.00    -0.252 OA
ATOM      7  N   UNL     1       0.974   3.671  -0.071  0.00  0.00    -0.285 N 
ATOM      8  H   UNL     1       1.439   4.519   0.000  0.00  0.00    +0.151 HD
ENDROOT
BRANCH   1   9
ATOM      9  C   UNL     1       2.336   2.068   1.220  0.00  0.00    +0.018 C 
ATOM     10  C   UNL     1       2.955   0.668   1.182  0.00  0.00    -0.013 C 
ATOM     11  C   UNL     1       3.652   0.386   2.515  0.00  0.00    -0.078 C 
ATOM     12  C   UNL     1       2.106   1.831   3.695  0.00  0.00    -0.078 C 
ATOM     13  C   UNL     1       1.361   2.155   2.398  0.00  0.00    -0.013 C 
ATOM     14  N   UNL     1       2.655   0.462   3.604  0.00  0.00    +0.382 N 
ATOM     15  H   UNL     1       1.889  -0.192   3.401  0.00  0.00    -0.081 HD
BRANCH  14  16
ATOM     16  C   UNL     1       3.281   0.082   4.888  0.00  0.00    -0.042 C 
BRANCH  16  17
ATOM     17  C   UNL     1       3.947  -1.260   4.731  0.00  0.00    -0.052 A 
ATOM     18  C   UNL     1       5.325  -1.344   4.653  0.00  0.00    +0.002 A 
ATOM     19  C   UNL     1       5.936  -2.576   4.514  0.00  0.00    +0.000 A 
ATOM     20  C   UNL     1       5.168  -3.724   4.444  0.00  0.00    +0.001 A 
ATOM     21  C   UNL     1       3.791  -3.640   4.518  0.00  0.00    +0.012 A 
ATOM     22  C   UNL     1       3.180  -2.408   4.661  0.00  0.00    +0.056 A 
BRANCH  22  23
ATOM     23  C   UNL     1       1.678  -2.317   4.741  0.00  0.00    +0.418 C 
ATOM     24  F   UNL     1       1.132  -3.605   4.755  0.00  0.00    -0.166 F 
ATOM     25  F   UNL     1       1.313  -1.643   5.912  0.00  0.00    -0.166 F 
ATOM     26  F   UNL     1       1.194  -1.617   3.630  0.00  0.00    -0.166 F 
ENDBRANCH  22  23
ENDBRANCH  16  17
ENDBRANCH  14  16
ENDBRANCH   1   9
BRANCH   1  28
ATOM     27  C   UNL     1       1.797   2.615  -2.559  0.00  0.00    +0.006 C 
ATOM     28  C   UNL     1       2.522   2.176  -1.285  0.00  0.00    +0.032 C 
ENDBRANCH   1  28
BRANCH   4  29
ATOM     29  C   UNL     1      -2.064   1.710  -0.395  0.00  0.00    +0.123 C 
BRANCH  29  30
ATOM     30  C   UNL     1      -2.656   1.475   0.997  0.00  0.00    +0.064 C 
BRANCH  30  31
ATOM     31  C   UNL     1      -4.071   0.974   0.863  0.00  0.00    +0.014 A 
ATOM     32  C   UNL     1      -4.535  -0.299   0.769  0.00  0.00    +0.049 A 
ATOM     33  N   UNL     1      -5.833  -0.485   0.658  0.00  0.00    -0.252 NA
ATOM     34  C   UNL     1      -6.671   0.526   0.637  0.00  0.00    +0.156 A 
ATOM     35  S   UNL     1      -5.605   1.888   0.791  0.00  0.00    -0.080 S 
ATOM     36  C   UNL     1      -3.586  -1.470   0.792  0.00  0.00    +0.066 C 
ENDBRANCH  30  31
ENDBRANCH  29  30
ENDBRANCH   4  29
TORSDOF 8
