REMARK  Name = ZINC40450542
REMARK  9 active torsions:
REMARK  status: ('A' for Active; 'I' for Inactive)
REMARK    1  A    between atoms: C_1  and  C_2
REMARK    2  A    between atoms: C_5  and  C_32
REMARK    3  A    between atoms: N_8  and  C_10
REMARK    4  A    between atoms: C_10  and  C_11
REMARK    5  A    between atoms: C_11  and  C_12
REMARK    6  A    between atoms: C_12  and  N_13
REMARK    7  A    between atoms: N_13  and  S_14
REMARK    8  A    between atoms: S_14  and  C_17
REMARK    9  A    between atoms: C_27  and  C_29
REMARK                            x       y       z     vdW  Elec       q    Type
REMARK                         _______ _______ _______ _____ _____    ______ ____
ROOT
ATOM      1  S   UNL     1       2.415  -0.246   7.617  0.00  0.00    +0.060 S 
ATOM      2  O   UNL     1       1.601   0.405   8.583  0.00  0.00    -0.153 OA
ATOM      3  O   UNL     1       2.309  -1.636   7.344  0.00  0.00    -0.153 OA
ENDROOT
BRANCH   1   4
ATOM      4  C   UNL     1       4.088   0.050   8.084  0.00  0.00    +0.121 A 
ATOM      5  C   UNL     1       4.976  -1.001   8.162  0.00  0.00    +0.053 A 
ATOM      6  C   UNL     1       6.303  -0.776   8.532  0.00  0.00    +0.041 A 
ATOM      7  C   UNL     1       6.712   0.516   8.818  0.00  0.00    -0.023 A 
ATOM      8  C   UNL     1       5.819   1.568   8.739  0.00  0.00    +0.022 A 
ATOM      9  C   UNL     1       4.507   1.338   8.367  0.00  0.00    +0.045 A 
ATOM     10 BR   UNL     1       3.288   2.779   8.250  0.00  0.00    -0.048 Br
ATOM     11  C   UNL     1       8.178   0.486   9.187  0.00  0.00    +0.056 C 
ATOM     12  C   UNL     1       8.575  -0.995   9.079  0.00  0.00    +0.118 C 
ATOM     13  N   UNL     1       7.352  -1.691   8.670  0.00  0.00    -0.271 N 
ATOM     14  C   UNL     1       7.253  -3.018   8.457  0.00  0.00    +0.223 C 
ATOM     15  O   UNL     1       6.192  -3.501   8.119  0.00  0.00    -0.275 OA
BRANCH  14  16
ATOM     16  C   UNL     1       8.459  -3.903   8.639  0.00  0.00    +0.076 C 
ATOM     17  C   UNL     1       9.063  -4.541   7.387  0.00  0.00    +0.013 C 
ATOM     18  C   UNL     1       8.282  -5.401   8.383  0.00  0.00    +0.013 C 
ENDBRANCH  14  16
ENDBRANCH   1   4
BRANCH   1  19
ATOM     19  N   UNL     1       2.162   0.539   6.180  0.00  0.00    -0.190 NA
ATOM     20  H   UNL     1       1.531   1.274   6.134  0.00  0.00    +0.148 HD
BRANCH  19  21
ATOM     21  C   UNL     1       2.891   0.122   4.980  0.00  0.00    +0.104 C 
BRANCH  21  22
ATOM     22  C   UNL     1       2.217   0.717   3.741  0.00  0.00    -0.002 C 
BRANCH  22  23
ATOM     23  C   UNL     1       2.978   0.281   2.488  0.00  0.00    -0.078 C 
BRANCH  23  29
ATOM     24  C   UNL     1       0.174   2.451   0.199  0.00  0.00    +0.005 C 
ATOM     25  C   UNL     1       0.274   0.942  -0.030  0.00  0.00    -0.031 C 
ATOM     26  C   UNL     1       1.077   0.670  -1.306  0.00  0.00    +0.003 C 
ATOM     27  C   UNL     1       2.503   1.195  -1.121  0.00  0.00    -0.031 C 
ATOM     28  C   UNL     1       3.129   0.534   0.109  0.00  0.00    -0.076 C 
ATOM     29  N   UNL     1       2.331   0.852   1.299  0.00  0.00    +0.380 N 
ATOM     30  C   UNL     1       0.982   0.290   1.160  0.00  0.00    -0.076 C 
ATOM     31  C   UNL     1       3.335   0.860  -2.361  0.00  0.00    +0.005 C 
ATOM     32  H   UNL     1       2.268   1.854   1.402  0.00  0.00    -0.082 HD
ENDBRANCH  23  29
ENDBRANCH  22  23
ENDBRANCH  21  22
ENDBRANCH  19  21
ENDBRANCH   1  19
TORSDOF 7
