REMARK  Name = ZINC15692237
REMARK  6 active torsions:
REMARK  status: ('A' for Active; 'I' for Inactive)
REMARK    1  A    between atoms: C_13  and  C_17
REMARK    2  A    between atoms: C_17  and  O_19
REMARK    3  A    between atoms: O_19  and  C_20
REMARK    4  A    between atoms: C_20  and  C_21
REMARK    5  A    between atoms: N_26  and  C_27
REMARK    6  A    between atoms: C_27  and  C_28
REMARK                            x       y       z     vdW  Elec       q    Type
REMARK                         _______ _______ _______ _____ _____    ______ ____
ROOT
ATOM      1  C   UNL     1       2.442   5.559   0.009  0.00  0.00    +0.340 C 
ATOM      2  O   UNL     1       1.987   6.170  -0.937  0.00  0.00    -0.245 OA
ENDROOT
BRANCH   1  15
ATOM      3  C   UNL     1      -3.647   1.918  -0.866  0.00  0.00    +0.001 A 
ATOM      4  C   UNL     1      -3.665   3.300  -0.861  0.00  0.00    +0.001 A 
ATOM      5  C   UNL     1      -2.495   4.016  -0.677  0.00  0.00    +0.012 A 
ATOM      6  C   UNL     1      -1.288   3.342  -0.516  0.00  0.00    +0.033 A 
ATOM      7  C   UNL     1      -1.268   1.936  -0.528  0.00  0.00    +0.033 A 
ATOM      8  C   UNL     1      -2.456   1.232  -0.701  0.00  0.00    +0.012 A 
ATOM      9  C   UNL     1       0.009   1.213  -0.351  0.00  0.00    +0.195 C 
ATOM     10  O   UNL     1       0.025  -0.002  -0.356  0.00  0.00    -0.287 OA
ATOM     11  C   UNL     1       1.267   1.969  -0.174  0.00  0.00    +0.034 A 
ATOM     12  C   UNL     1       2.475   1.292  -0.012  0.00  0.00    +0.012 A 
ATOM     13  C   UNL     1       3.652   2.000   0.155  0.00  0.00    +0.002 A 
ATOM     14  C   UNL     1       3.645   3.382   0.162  0.00  0.00    +0.016 A 
ATOM     15  C   UNL     1       2.447   4.081   0.001  0.00  0.00    +0.070 A 
ATOM     16  C   UNL     1       1.248   3.372  -0.168  0.00  0.00    +0.047 A 
ATOM     17  C   UNL     1      -0.030   4.098  -0.339  0.00  0.00    +0.195 C 
ATOM     18  O   UNL     1      -0.045   5.312  -0.334  0.00  0.00    -0.287 OA
ENDBRANCH   1  15
BRANCH   1  19
ATOM     19  O   UNL     1       2.942   6.229   1.065  0.00  0.00    -0.452 OA
BRANCH  19  20
ATOM     20  C   UNL     1       2.905   7.679   1.005  0.00  0.00    +0.328 C 
BRANCH  20  21
ATOM     21  C   UNL     1       3.503   8.250   2.264  0.00  0.00    +0.258 C 
ATOM     22  O   UNL     1       3.920   7.509   3.128  0.00  0.00    -0.272 OA
ATOM     23  N   UNL     1       3.574   9.586   2.431  0.00  0.00    -0.237 N 
ATOM     24  C   UNL     1       4.109  10.097   3.558  0.00  0.00    +0.306 C 
ATOM     25  O   UNL     1       4.527   9.353   4.423  0.00  0.00    -0.252 OA
ATOM     26  N   UNL     1       4.181  11.432   3.724  0.00  0.00    -0.290 N 
ATOM     27  H   UNL     1       3.241  10.179   1.740  0.00  0.00    +0.159 HD
ATOM     28  H   UNL     1       3.847  12.026   3.033  0.00  0.00    +0.151 HD
BRANCH  26  29
ATOM     29  C   UNL     1       4.762  11.988   4.949  0.00  0.00    +0.219 C 
BRANCH  29  30
ATOM     30  C   UNL     1       4.723  13.516   4.885  0.00  0.00    +0.405 C 
ATOM     31  F   UNL     1       3.396  13.943   4.763  0.00  0.00    -0.169 F 
ATOM     32  F   UNL     1       5.278  14.046   6.054  0.00  0.00    -0.169 F 
ATOM     33  F   UNL     1       5.457  13.956   3.779  0.00  0.00    -0.169 F 
ENDBRANCH  29  30
ENDBRANCH  26  29
ENDBRANCH  20  21
ENDBRANCH  19  20
ENDBRANCH   1  19
TORSDOF 6
