REMARK  Name = ZINC36301650
REMARK  19 active torsions:
REMARK  status: ('A' for Active; 'I' for Inactive)
REMARK    1  A    between atoms: C_1  and  C_2
REMARK    2  A    between atoms: C_2  and  C_3
REMARK    3  A    between atoms: C_3  and  C_5
REMARK    4  A    between atoms: C_3  and  N_6
REMARK    5  A    between atoms: N_6  and  C_7
REMARK    6  A    between atoms: N_6  and  C_30
REMARK    7  A    between atoms: C_7  and  C_8
REMARK    8  A    between atoms: C_9  and  C_29
REMARK    9  A    between atoms: N_11  and  C_22
REMARK   10  A    between atoms: C_12  and  O_13
REMARK   11  A    between atoms: O_13  and  C_14
REMARK   12  A    between atoms: C_17  and  O_20
REMARK   13  A    between atoms: O_20  and  C_21
REMARK   14  A    between atoms: C_30  and  C_31
REMARK   15  A    between atoms: C_31  and  C_33
REMARK   16  A    between atoms: C_31  and  O_37
REMARK   17  A    between atoms: C_33  and  O_34
REMARK   18  A    between atoms: O_34  and  C_35
REMARK   19  A    between atoms: C_35  and  C_36
REMARK                            x       y       z     vdW  Elec       q    Type
REMARK                         _______ _______ _______ _____ _____    ______ ____
ROOT
ATOM      1  C   UNL     1      -0.001  -1.977   3.971  0.00  0.00    +0.021 A 
ATOM      2  C   UNL     1      -1.246  -2.485   4.353  0.00  0.00    +0.065 A 
ATOM      3  N   UNL     1      -1.263  -3.770   4.107  0.00  0.00    -0.168 NA
ATOM      4  N   UNL     1      -0.025  -4.131   3.558  0.00  0.00    -0.200 N 
ATOM      5  C   UNL     1       0.737  -3.008   3.478  0.00  0.00    +0.225 A 
ATOM      6  C   UNL     1      -2.378  -1.687   4.947  0.00  0.00    +0.068 C 
ENDROOT
BRANCH   4   7
ATOM      7  C   UNL     1       0.356  -5.419   3.159  0.00  0.00    +0.070 A 
ATOM      8  C   UNL     1       1.052  -5.601   1.970  0.00  0.00    +0.028 A 
ATOM      9  C   UNL     1       1.427  -6.871   1.579  0.00  0.00    +0.003 A 
ATOM     10  C   UNL     1       1.111  -7.962   2.368  0.00  0.00    +0.020 A 
ATOM     11  C   UNL     1       0.419  -7.784   3.552  0.00  0.00    +0.043 A 
ATOM     12  C   UNL     1       0.045  -6.514   3.952  0.00  0.00    +0.048 A 
ATOM     13 CL   UNL     1       0.024  -9.156   4.540  0.00  0.00    -0.083 Cl
ENDBRANCH   4   7
BRANCH   1  14
ATOM     14  C   UNL     1       0.443  -0.541   4.080  0.00  0.00    -0.035 C 
BRANCH  14  15
ATOM     15  N   UNL     1      -0.388   0.296   3.206  0.00  0.00    +0.386 N 
ATOM     16  H   UNL     1      -1.361   0.063   3.342  0.00  0.00    -0.081 HD
BRANCH  15  17
ATOM     17  C   UNL     1      -0.019   0.058   1.804  0.00  0.00    -0.071 C 
ATOM     18  C   UNL     1       1.505   0.014   1.679  0.00  0.00    -0.013 C 
BRANCH  17  20
ATOM     19  C   UNL     1      -2.135  -1.212   1.415  0.00  0.00    +0.002 C 
ATOM     20  C   UNL     1      -0.608  -1.276   1.341  0.00  0.00    -0.019 C 
ENDBRANCH  17  20
ENDBRANCH  15  17
BRANCH  15  21
ATOM     21  C   UNL     1      -0.174   1.712   3.536  0.00  0.00    -0.044 C 
BRANCH  21  22
ATOM     22  C   UNL     1      -1.236   2.564   2.838  0.00  0.00    +0.124 C 
BRANCH  22  23
ATOM     23  O   UNL     1      -1.021   2.531   1.426  0.00  0.00    -0.391 OA
ATOM     24  H   UNL     1      -0.197   2.951   1.144  0.00  0.00    +0.210 HD
ENDBRANCH  22  23
BRANCH  22  25
ATOM     25  C   UNL     1      -1.139   4.008   3.336  0.00  0.00    +0.189 C 
BRANCH  25  26
ATOM     26  O   UNL     1      -2.203   4.778   2.773  0.00  0.00    -0.378 OA
BRANCH  26  27
ATOM     27  C   UNL     1      -2.204   6.149   3.176  0.00  0.00    +0.156 C 
ATOM     28  C   UNL     1      -3.380   6.873   2.518  0.00  0.00    +0.034 C 
ENDBRANCH  26  27
ENDBRANCH  25  26
ENDBRANCH  22  25
ENDBRANCH  21  22
ENDBRANCH  15  21
ENDBRANCH  14  15
ENDBRANCH   1  14
BRANCH   5  29
ATOM     29  O   UNL     1       2.004  -2.930   2.998  0.00  0.00    -0.438 OA
BRANCH  29  30
ATOM     30  C   UNL     1       3.029  -3.174   3.857  0.00  0.00    +0.131 A 
ATOM     31  C   UNL     1       2.763  -3.599   5.151  0.00  0.00    +0.050 A 
ATOM     32  C   UNL     1       3.804  -3.846   6.024  0.00  0.00    +0.049 A 
ATOM     33  C   UNL     1       5.116  -3.669   5.608  0.00  0.00    +0.120 A 
ATOM     34  C   UNL     1       5.381  -3.244   4.315  0.00  0.00    +0.049 A 
ATOM     35  C   UNL     1       4.341  -3.003   3.439  0.00  0.00    +0.050 A 
BRANCH  33  36
ATOM     36  O   UNL     1       6.141  -3.912   6.468  0.00  0.00    -0.495 OA
ATOM     37  C   UNL     1       7.465  -3.709   5.972  0.00  0.00    +0.277 C 
ENDBRANCH  33  36
ENDBRANCH  29  30
ENDBRANCH   5  29
TORSDOF 14
