REMARK  Name = ZINC01913607
REMARK  11 active torsions:
REMARK  status: ('A' for Active; 'I' for Inactive)
REMARK    1  A    between atoms: C_1  and  C_2
REMARK    2  A    between atoms: C_5  and  C_8
REMARK    3  A    between atoms: C_9  and  O_21
REMARK    4  A    between atoms: C_14  and  C_20
REMARK    5  A    between atoms: C_16  and  C_19
REMARK    6  A    between atoms: O_21  and  C_22
REMARK    7  A    between atoms: C_22  and  C_23
REMARK    8  A    between atoms: N_25  and  C_26
REMARK    9  A    between atoms: C_31  and  C_32
REMARK   10  A    between atoms: C_32  and  C_33
REMARK   11  A    between atoms: C_32  and  C_34
REMARK                            x       y       z     vdW  Elec       q    Type
REMARK                         _______ _______ _______ _____ _____    ______ ____
ROOT
ATOM      1  C   UNL     1       0.426   5.091   0.371  0.00  0.00    +0.181 A 
ATOM      2  C   UNL     1      -0.390   6.082   0.830  0.00  0.00    +0.211 A 
ATOM      3  C   UNL     1      -1.700   5.758   1.268  0.00  0.00    +0.235 A 
ATOM      4  O   UNL     1      -2.460   6.617   1.686  0.00  0.00    -0.283 OA
ATOM      5  C   UNL     1      -2.108   4.342   1.199  0.00  0.00    +0.068 A 
ATOM      6  C   UNL     1      -3.377   3.932   1.608  0.00  0.00    +0.019 A 
ATOM      7  C   UNL     1      -3.721   2.601   1.523  0.00  0.00    -0.049 A 
ATOM      8  C   UNL     1      -2.809   1.671   1.043  0.00  0.00    +0.010 A 
ATOM      9  C   UNL     1      -1.552   2.064   0.635  0.00  0.00    -0.007 A 
ATOM     10  C   UNL     1      -1.186   3.403   0.708  0.00  0.00    +0.142 A 
ATOM     11  O   UNL     1       0.039   3.806   0.314  0.00  0.00    -0.451 OA
ATOM     12  C   UNL     1      -0.576   1.042   0.112  0.00  0.00    +0.047 C 
ATOM     13  C   UNL     1      -5.092   2.152   1.957  0.00  0.00    +0.044 C 
ENDROOT
BRANCH   1  18
ATOM     14  C   UNL     1       5.725   6.466  -1.395  0.00  0.00    +0.044 C 
ATOM     15  C   UNL     1       4.337   6.106  -0.932  0.00  0.00    -0.050 A 
ATOM     16  C   UNL     1       4.157   5.060  -0.044  0.00  0.00    +0.004 A 
ATOM     17  C   UNL     1       2.889   4.725   0.384  0.00  0.00    +0.012 A 
ATOM     18  C   UNL     1       1.785   5.444  -0.082  0.00  0.00    +0.021 A 
ATOM     19  C   UNL     1       1.974   6.495  -0.983  0.00  0.00    +0.012 A 
ATOM     20  C   UNL     1       3.248   6.823  -1.398  0.00  0.00    +0.004 A 
ENDBRANCH   1  18
BRANCH   2  21
ATOM     21  O   UNL     1       0.048   7.369   0.868  0.00  0.00    -0.476 OA
BRANCH  21  22
ATOM     22  C   UNL     1       0.601   7.830   2.103  0.00  0.00    +0.325 C 
BRANCH  22  23
ATOM     23  C   UNL     1       1.028   9.267   1.956  0.00  0.00    +0.255 C 
ATOM     24  O   UNL     1       0.874   9.841   0.899  0.00  0.00    -0.272 OA
ATOM     25  N   UNL     1       1.582   9.915   3.000  0.00  0.00    -0.282 N 
ATOM     26  H   UNL     1       1.775   9.437   3.821  0.00  0.00    +0.155 HD
BRANCH  25  27
ATOM     27  C   UNL     1       1.879  11.279   2.899  0.00  0.00    +0.037 A 
ATOM     28  C   UNL     1       1.240  12.062   1.946  0.00  0.00    +0.023 A 
ATOM     29  C   UNL     1       1.531  13.408   1.852  0.00  0.00    +0.002 A 
ATOM     30  C   UNL     1       2.466  13.976   2.700  0.00  0.00    +0.000 A 
ATOM     31  C   UNL     1       3.107  13.198   3.646  0.00  0.00    +0.006 A 
ATOM     32  C   UNL     1       2.817  11.852   3.748  0.00  0.00    -0.024 A 
BRANCH  32  33
ATOM     33  C   UNL     1       3.518  11.005   4.779  0.00  0.00    +0.015 C 
ATOM     34  C   UNL     1       5.032  11.145   4.610  0.00  0.00    +0.012 C 
ATOM     35  C   UNL     1       3.115  11.470   6.180  0.00  0.00    +0.012 C 
ENDBRANCH  32  33
ENDBRANCH  25  27
ENDBRANCH  22  23
ENDBRANCH  21  22
ENDBRANCH   2  21
TORSDOF 6
