REMARK  Name = ZINC35768256
REMARK  8 active torsions:
REMARK  status: ('A' for Active; 'I' for Inactive)
REMARK    1  A    between atoms: C_1  and  C_2
REMARK    2  A    between atoms: C_2  and  C_3
REMARK    3  A    between atoms: C_3  and  C_4
REMARK    4  A    between atoms: C_4  and  C_5
REMARK    5  A    between atoms: C_14  and  C_18
REMARK    6  A    between atoms: N_20  and  C_21
REMARK    7  A    between atoms: C_21  and  C_22
REMARK    8  A    between atoms: C_22  and  C_23
REMARK                            x       y       z     vdW  Elec       q    Type
REMARK                         _______ _______ _______ _____ _____    ______ ____
ROOT
ATOM      1  C   UNL     1      -2.826  -2.585   0.015  0.00  0.00    +0.216 C 
ATOM      2  O   UNL     1      -3.759  -1.810   0.028  0.00  0.00    -0.276 OA
ATOM      3  N   UNL     1      -3.055  -3.913   0.010  0.00  0.00    -0.302 N 
ATOM      4  C   UNL     1      -1.935  -4.864   0.001  0.00  0.00    +0.107 C 
ATOM      5  C   UNL     1      -2.113  -5.822  -1.183  0.00  0.00    +0.017 C 
ATOM      6  C   UNL     1      -3.497  -6.452  -1.122  0.00  0.00    -0.016 C 
ATOM      7  C   UNL     1      -4.592  -5.396  -1.169  0.00  0.00    +0.017 C 
ATOM      8  C   UNL     1      -4.428  -4.436   0.021  0.00  0.00    +0.107 C 
ATOM      9  N   UNL     1      -3.638  -7.312   0.064  0.00  0.00    +0.397 N 
ATOM     10  C   UNL     1      -3.750  -8.750  -0.201  0.00  0.00    +0.028 C 
ATOM     11  C   UNL     1      -4.456  -9.007  -1.566  0.00  0.00    +0.061 C 
ATOM     12  S   UNL     1      -3.706  -7.617  -2.529  0.00  0.00    -0.174 S 
ATOM     13  H   UNL     1      -2.837  -7.162   0.659  0.00  0.00    -0.083 HD
ATOM     14  H   UNL     1      -4.462  -7.019   0.569  0.00  0.00    -0.083 HD
ENDROOT
BRANCH  10  15
ATOM     15  C   UNL     1      -4.551  -9.397   0.899  0.00  0.00    +0.200 C 
ATOM     16  O   UNL     1      -4.982  -8.724   1.811  0.00  0.00    -0.278 OA
ATOM     17  N   UNL     1      -4.787 -10.723   0.871  0.00  0.00    -0.316 N 
ATOM     18  H   UNL     1      -4.441 -11.262   0.141  0.00  0.00    +0.149 HD
BRANCH  17  19
ATOM     19  C   UNL     1      -5.565 -11.352   1.941  0.00  0.00    +0.109 C 
BRANCH  19  20
ATOM     20  C   UNL     1      -5.685 -12.853   1.669  0.00  0.00    +0.055 C 
BRANCH  20  21
ATOM     21  C   UNL     1      -6.486 -13.500   2.770  0.00  0.00    -0.027 A 
ATOM     22  C   UNL     1      -5.839 -14.076   3.847  0.00  0.00    +0.006 A 
ATOM     23  C   UNL     1      -6.572 -14.670   4.857  0.00  0.00    +0.020 A 
ATOM     24  C   UNL     1      -7.954 -14.687   4.791  0.00  0.00    +0.042 A 
ATOM     25  C   UNL     1      -8.602 -14.111   3.713  0.00  0.00    +0.040 A 
ATOM     26  C   UNL     1      -7.867 -13.512   2.705  0.00  0.00    +0.046 A 
ATOM     27 CL   UNL     1      -8.679 -12.783   1.355  0.00  0.00    -0.083 Cl
ATOM     28 CL   UNL     1      -8.876 -15.434   6.059  0.00  0.00    -0.083 Cl
ENDBRANCH  20  21
ENDBRANCH  19  20
ENDBRANCH  17  19
ENDBRANCH  10  15
BRANCH   1  29
ATOM     29  C   UNL     1      -1.413  -2.063   0.004  0.00  0.00    +0.096 C 
BRANCH  29  30
ATOM     30  C   UNL     1      -1.433  -0.534   0.013  0.00  0.00    +0.009 C 
BRANCH  30  32
ATOM     31  C   UNL     1      -0.019   1.526   0.010  0.00  0.00    +0.004 C 
ATOM     32  C   UNL     1       0.002  -0.004   0.002  0.00  0.00    -0.003 C 
ENDBRANCH  30  32
ENDBRANCH  29  30
ENDBRANCH   1  29
TORSDOF 7
