REMARK  Name = ZINC60015862
REMARK  14 active torsions:
REMARK  status: ('A' for Active; 'I' for Inactive)
REMARK    1  A    between atoms: C_1  and  C_2
REMARK    2  A    between atoms: C_5  and  C_35
REMARK    3  A    between atoms: N_8  and  C_10
REMARK    4  A    between atoms: C_10  and  C_11
REMARK    5  A    between atoms: C_11  and  C_13
REMARK    6  A    between atoms: C_11  and  N_14
REMARK    7  A    between atoms: C_15  and  C_17
REMARK    8  A    between atoms: C_17  and  C_19
REMARK    9  A    between atoms: C_17  and  N_23
REMARK   10  A    between atoms: C_19  and  C_20
REMARK   11  A    between atoms: C_20  and  S_21
REMARK   12  A    between atoms: S_21  and  C_22
REMARK   13  A    between atoms: C_24  and  C_26
REMARK   14  A    between atoms: C_30  and  N_32
REMARK                            x       y       z     vdW  Elec       q    Type
REMARK                         _______ _______ _______ _____ _____    ______ ____
ROOT
ATOM      1  C   UNL     1       1.145   3.909   3.930  0.00  0.00    +0.160 C 
ENDROOT
BRANCH   1   3
ATOM      2  N   UNL     1       2.109   1.674   3.488  0.00  0.00    -0.313 N 
ATOM      3  C   UNL     1       1.173   2.414   4.115  0.00  0.00    +0.234 C 
ATOM      4  O   UNL     1       0.353   1.876   4.829  0.00  0.00    -0.274 OA
ATOM      5  H   UNL     1       2.765   2.105   2.918  0.00  0.00    +0.149 HD
BRANCH   2   6
ATOM      6  C   UNL     1       2.136   0.221   3.668  0.00  0.00    +0.053 C 
ATOM      7  C   UNL     1       2.924  -0.122   4.934  0.00  0.00    +0.026 C 
BRANCH   6   8
ATOM      8  C   UNL     1       2.808  -0.431   2.458  0.00  0.00    -0.057 C 
BRANCH   8  14
ATOM      9  C   UNL     1      -0.019   1.526   0.010  0.00  0.00    +0.005 C 
ATOM     10  C   UNL     1       0.002  -0.004   0.002  0.00  0.00    -0.031 C 
ATOM     11  C   UNL     1       0.721  -0.499  -1.257  0.00  0.00    +0.003 C 
ATOM     12  C   UNL     1       2.177  -0.027  -1.220  0.00  0.00    -0.031 C 
ATOM     13  C   UNL     1       2.839  -0.534   0.063  0.00  0.00    -0.076 C 
ATOM     14  N   UNL     1       2.123  -0.005   1.230  0.00  0.00    +0.381 N 
ATOM     15  C   UNL     1       0.744  -0.512   1.240  0.00  0.00    -0.076 C 
ATOM     16  C   UNL     1       2.924  -0.581  -2.434  0.00  0.00    +0.005 C 
ATOM     17  H   UNL     1       2.109   1.003   1.187  0.00  0.00    -0.082 HD
ENDBRANCH   8  14
ENDBRANCH   6   8
ENDBRANCH   2   6
ENDBRANCH   1   3
BRANCH   1  18
ATOM     18  N   UNL     1       0.043   4.477   4.710  0.00  0.00    -0.300 N 
ATOM     19  C   UNL     1       0.098   5.761   5.119  0.00  0.00    +0.245 C 
ATOM     20  O   UNL     1       1.062   6.446   4.840  0.00  0.00    -0.270 OA
ATOM     21  H   UNL     1      -0.727   3.930   4.933  0.00  0.00    +0.150 HD
BRANCH  19  22
ATOM     22  C   UNL     1      -1.014   6.334   5.906  0.00  0.00    +0.039 A 
ATOM     23  C   UNL     1      -2.120   5.548   6.233  0.00  0.00    +0.013 A 
ATOM     24  C   UNL     1      -3.154   6.088   6.968  0.00  0.00    +0.003 A 
ATOM     25  C   UNL     1      -3.097   7.408   7.381  0.00  0.00    +0.033 A 
ATOM     26  C   UNL     1      -2.005   8.193   7.060  0.00  0.00    +0.127 A 
ATOM     27  C   UNL     1      -0.961   7.662   6.331  0.00  0.00    +0.045 A 
BRANCH  26  28
ATOM     28  N   UNL     1      -1.952   9.604   7.506  0.00  0.00    +0.056 N 
ATOM     29  O   UNL     1      -2.864  10.069   8.149  0.00  0.00    -0.126 OA
ATOM     30  O   UNL     1      -0.998  10.291   7.226  0.00  0.00    -0.126 OA
ENDBRANCH  26  28
ENDBRANCH  19  22
ENDBRANCH   1  18
BRANCH   1  31
ATOM     31  C   UNL     1       0.943   4.236   2.449  0.00  0.00    +0.042 C 
BRANCH  31  32
ATOM     32  C   UNL     1       1.039   5.749   2.243  0.00  0.00    +0.071 C 
BRANCH  32  33
ATOM     33  S   UNL     1       0.799   6.136   0.487  0.00  0.00    -0.164 S 
ATOM     34  C   UNL     1       0.941   7.943   0.413  0.00  0.00    +0.084 C 
ENDBRANCH  32  33
ENDBRANCH  31  32
ENDBRANCH   1  31
TORSDOF 10
