REMARK  Name = ZINC13499645
REMARK  15 active torsions:
REMARK  status: ('A' for Active; 'I' for Inactive)
REMARK    1  A    between atoms: C_1  and  C_2
REMARK    2  A    between atoms: C_2  and  C_3
REMARK    3  A    between atoms: C_3  and  C_4
REMARK    4  A    between atoms: C_4  and  C_6
REMARK    5  A    between atoms: C_4  and  N_71
REMARK    6  A    between atoms: N_10  and  C_11
REMARK    7  A    between atoms: C_11  and  C_12
REMARK    8  A    between atoms: C_12  and  O_14
REMARK    9  A    between atoms: O_14  and  C_15
REMARK   10  A    between atoms: C_15  and  C_16
REMARK   11  A    between atoms: C_17  and  C_18
REMARK   12  A    between atoms: C_17  and  N_71
REMARK   13  A    between atoms: C_23  and  C_31
REMARK   14  A    between atoms: C_24  and  C_30
REMARK   15  A    between atoms: C_32  and  N_71
REMARK                            x       y       z     vdW  Elec       q    Type
REMARK                         _______ _______ _______ _____ _____    ______ ____
ROOT
ATOM      1  N   UNL     1      -3.167   2.969   0.344  0.00  0.00    +0.391 N 
ATOM      2  H   UNL     1      -3.220   3.253   1.330  0.00  0.00    -0.080 HD
ENDROOT
BRANCH   1   3
ATOM      3  C   UNL     1      -2.147   3.793  -0.338  0.00  0.00    -0.067 C 
ATOM      4  C   UNL     1      -0.738   3.351   0.108  0.00  0.00    -0.015 C 
ATOM      5  C   UNL     1       0.059   4.676   0.214  0.00  0.00    -0.002 C 
ATOM      6  C   UNL     1      -0.989   5.661   0.790  0.00  0.00    -0.002 C 
ATOM      7  C   UNL     1      -2.307   5.261   0.095  0.00  0.00    -0.015 C 
ENDBRANCH   1   3
BRANCH   1   8
ATOM      8  C   UNL     1      -2.792   1.541   0.276  0.00  0.00    +0.003 C 
BRANCH   8   9
ATOM      9  C   UNL     1      -3.420   0.823   1.442  0.00  0.00    +0.139 A 
ATOM     10  N   UNL     1      -4.641   0.979   1.893  0.00  0.00    -0.115 NA
ATOM     11  N   UNL     1      -4.796   0.193   2.902  0.00  0.00    -0.023 NA
ATOM     12  N   UNL     1      -3.708  -0.464   3.104  0.00  0.00    -0.043 NA
ATOM     13  N   UNL     1      -2.836  -0.106   2.222  0.00  0.00    -0.220 N 
BRANCH  13  14
ATOM     14  C   UNL     1      -1.466  -0.611   2.098  0.00  0.00    +0.267 C 
BRANCH  14  15
ATOM     15  C   UNL     1      -1.454  -1.810   1.185  0.00  0.00    +0.329 C 
ATOM     16  O   UNL     1      -2.484  -2.203   0.690  0.00  0.00    -0.249 OA
BRANCH  15  17
ATOM     17  O   UNL     1      -0.300  -2.442   0.923  0.00  0.00    -0.464 OA
BRANCH  17  18
ATOM     18  C   UNL     1      -0.363  -3.590   0.036  0.00  0.00    +0.229 C 
ATOM     19  C   UNL     1       1.040  -4.175  -0.143  0.00  0.00    +0.048 C 
ENDBRANCH  17  18
ENDBRANCH  15  17
ENDBRANCH  14  15
ENDBRANCH  13  14
ENDBRANCH   8   9
BRANCH   8  20
ATOM     20  C   UNL     1      -3.289   0.921  -1.032  0.00  0.00    -0.008 C 
BRANCH  20  22
ATOM     21  C   UNL     1      -2.987   0.896  -3.512  0.00  0.00    +0.004 C 
ATOM     22  C   UNL     1      -2.613   1.617  -2.215  0.00  0.00    -0.005 C 
ENDBRANCH  20  22
ENDBRANCH   8  20
ENDBRANCH   1   8
BRANCH   1  23
ATOM     23  C   UNL     1      -4.488   3.176  -0.287  0.00  0.00    -0.036 C 
BRANCH  23  24
ATOM     24  C   UNL     1      -5.023   4.519   0.140  0.00  0.00    +0.001 A 
ATOM     25  C   UNL     1      -4.887   5.591  -0.679  0.00  0.00    +0.017 A 
ATOM     26  C   UNL     1      -5.418   6.881  -0.236  0.00  0.00    -0.001 A 
ATOM     27  C   UNL     1      -5.309   8.022  -1.037  0.00  0.00    +0.010 A 
ATOM     28  C   UNL     1      -5.814   9.211  -0.595  0.00  0.00    +0.004 A 
ATOM     29  C   UNL     1      -6.436   9.298   0.644  0.00  0.00    -0.046 A 
ATOM     30  C   UNL     1      -6.555   8.186   1.450  0.00  0.00    -0.024 A 
ATOM     31  C   UNL     1      -6.048   6.964   1.020  0.00  0.00    +0.052 A 
ATOM     32  N   UNL     1      -6.154   5.836   1.806  0.00  0.00    -0.322 N 
ATOM     33  H   UNL     1      -6.588   5.896   2.671  0.00  0.00    +0.169 HD
ATOM     34  C   UNL     1      -5.668   4.654   1.387  0.00  0.00    +0.251 A 
ATOM     35  O   UNL     1      -5.784   3.677   2.106  0.00  0.00    -0.268 OA
ATOM     36  C   UNL     1      -7.231   8.294   2.792  0.00  0.00    +0.046 C 
ATOM     37  C   UNL     1      -6.987  10.620   1.111  0.00  0.00    +0.044 C 
ENDBRANCH  23  24
ENDBRANCH   1  23
TORSDOF 11
