REMARK  Name = ZINC41631220
REMARK  3 active torsions:
REMARK  status: ('A' for Active; 'I' for Inactive)
REMARK    1  A    between atoms: C_3  and  N_16
REMARK    2  A    between atoms: C_4  and  N_15
REMARK    3  A    between atoms: C_6  and  C_7
REMARK                            x       y       z     vdW  Elec       q    Type
REMARK                         _______ _______ _______ _____ _____    ______ ____
ROOT
ATOM      1  C   UNL     1      -0.009   1.390  -0.133  0.00  0.00    +0.012 A 
ATOM      2  C   UNL     1       1.180   2.090  -0.147  0.00  0.00    +0.025 A 
ATOM      3  C   UNL     1       2.386   1.416  -0.020  0.00  0.00    +0.051 A 
ATOM      4  C   UNL     1       2.399   0.027   0.122  0.00  0.00    +0.047 A 
ATOM      5  C   UNL     1       1.208  -0.677   0.136  0.00  0.00    +0.034 A 
ATOM      6  C   UNL     1      -0.003   0.004   0.008  0.00  0.00    +0.004 A 
ENDROOT
BRANCH   6   7
ATOM      7  C   UNL     1      -1.282  -0.747   0.023  0.00  0.00    +0.091 A 
ATOM      8  C   UNL     1      -2.507  -0.053  -0.112  0.00  0.00    +0.035 A 
ATOM      9  C   UNL     1      -3.663  -0.777  -0.094  0.00  0.00    +0.073 A 
ATOM     10  C   UNL     1      -3.564  -2.178   0.060  0.00  0.00    +0.265 A 
ATOM     11  O   UNL     1      -4.572  -2.866   0.081  0.00  0.00    -0.266 OA
ATOM     12  N   UNL     1      -2.351  -2.748   0.181  0.00  0.00    -0.243 N 
ATOM     13  H   UNL     1      -2.290  -3.710   0.287  0.00  0.00    +0.192 HD
ATOM     14  N   UNL     1      -1.272  -2.052   0.157  0.00  0.00    -0.171 NA
ENDBRANCH   6   7
BRANCH   3  15
ATOM     15  N   UNL     1       3.590   2.128  -0.035  0.00  0.00    -0.328 N 
ATOM     16  C   UNL     1       4.148   2.572   1.222  0.00  0.00    +0.105 C 
ATOM     17  C   UNL     1       3.593   3.975   1.571  0.00  0.00    +0.019 C 
ATOM     18  C   UNL     1       4.169   4.989   0.675  0.00  0.00    +0.002 C 
ATOM     19  C   UNL     1       3.817   4.799  -0.798  0.00  0.00    +0.002 C 
ATOM     20  C   UNL     1       4.789   3.830  -1.423  0.00  0.00    +0.019 C 
ATOM     21  C   UNL     1       4.240   2.390  -1.334  0.00  0.00    +0.105 C 
ENDBRANCH   3  15
BRANCH   4  22
ATOM     22  N   UNL     1       3.616  -0.653   0.249  0.00  0.00    -0.357 N 
ATOM     23  H   UNL     1       4.446  -0.155   0.318  0.00  0.00    +0.142 HD
ATOM     24  H   UNL     1       3.630  -1.623   0.269  0.00  0.00    +0.142 HD
ENDBRANCH   4  22
TORSDOF 3
