REMARK  Name = ZINC38650558
REMARK  14 active torsions:
REMARK  status: ('A' for Active; 'I' for Inactive)
REMARK    1  A    between atoms: C_1  and  C_2
REMARK    2  A    between atoms: C_2  and  C_3
REMARK    3  A    between atoms: C_6  and  O_9
REMARK    4  A    between atoms: O_9  and  C_10
REMARK    5  A    between atoms: C_10  and  C_12
REMARK    6  A    between atoms: C_10  and  C_13
REMARK    7  A    between atoms: C_13  and  O_15
REMARK    8  A    between atoms: O_15  and  C_16
REMARK    9  A    between atoms: C_23  and  N_38
REMARK   10  A    between atoms: C_24  and  C_36
REMARK   11  A    between atoms: C_25  and  C_27
REMARK   12  A    between atoms: C_32  and  O_33
REMARK   13  A    between atoms: O_33  and  C_34
REMARK   14  A    between atoms: C_34  and  C_35
REMARK                            x       y       z     vdW  Elec       q    Type
REMARK                         _______ _______ _______ _____ _____    ______ ____
ROOT
ATOM      1  C   UNL     1      -8.454  -4.522  -1.587  0.00  0.00    +0.135 A 
ATOM      2  C   UNL     1      -8.523  -4.991  -0.282  0.00  0.00    +0.047 A 
ATOM      3  C   UNL     1      -9.458  -5.947   0.060  0.00  0.00    +0.012 A 
ATOM      4  C   UNL     1     -10.330  -6.442  -0.894  0.00  0.00    +0.008 A 
ATOM      5  C   UNL     1     -10.266  -5.978  -2.199  0.00  0.00    +0.138 A 
ATOM      6  C   UNL     1      -9.329  -5.011  -2.543  0.00  0.00    +0.093 A 
ATOM      7  O   UNL     1     -11.111  -6.451  -3.148  0.00  0.00    -0.441 OA
ATOM      8  C   UNL     1     -12.248  -7.067  -2.785  0.00  0.00    +0.199 C 
ATOM      9  C   UNL     1     -12.421  -7.580  -1.544  0.00  0.00    +0.098 C 
ATOM     10  C   UNL     1     -11.342  -7.485  -0.502  0.00  0.00    +0.101 C 
ENDROOT
BRANCH  10  11
ATOM     11  C   UNL     1     -10.657  -8.821  -0.370  0.00  0.00    +0.007 A 
ATOM     12  C   UNL     1     -10.003  -9.373  -1.454  0.00  0.00    +0.008 A 
ATOM     13  C   UNL     1      -9.375 -10.598  -1.334  0.00  0.00    +0.001 A 
ATOM     14  C   UNL     1      -9.399 -11.275  -0.128  0.00  0.00    +0.004 A 
ATOM     15  C   UNL     1     -10.051 -10.727   0.959  0.00  0.00    +0.046 A 
ATOM     16  C   UNL     1     -10.678  -9.495   0.843  0.00  0.00    +0.125 A 
BRANCH  16  17
ATOM     17  O   UNL     1     -11.315  -8.951   1.913  0.00  0.00    -0.492 OA
BRANCH  17  18
ATOM     18  C   UNL     1     -11.296  -9.701   3.129  0.00  0.00    +0.225 C 
ATOM     19  C   UNL     1     -12.058  -8.935   4.212  0.00  0.00    +0.048 C 
ENDBRANCH  17  18
ENDBRANCH  16  17
ENDBRANCH  10  11
BRANCH   8  20
ATOM     20  N   UNL     1     -13.265  -7.181  -3.700  0.00  0.00    -0.328 N 
ATOM     21  H   UNL     1     -13.156  -6.819  -4.593  0.00  0.00    +0.145 HD
ATOM     22  H   UNL     1     -14.092  -7.623  -3.454  0.00  0.00    +0.145 HD
ENDBRANCH   8  20
BRANCH   9  23
ATOM     23  C   UNL     1     -13.657  -8.225  -1.217  0.00  0.00    +0.101 C 
ATOM     24  N   UNL     1     -14.637  -8.737  -0.958  0.00  0.00    -0.191 NA
ENDBRANCH   9  23
BRANCH   1  25
ATOM     25  O   UNL     1      -7.534  -3.581  -1.925  0.00  0.00    -0.423 OA
BRANCH  25  26
ATOM     26  C   UNL     1      -6.237  -3.930  -1.902  0.00  0.00    +0.353 C 
ATOM     27  O   UNL     1      -5.924  -5.077  -1.683  0.00  0.00    -0.246 OA
BRANCH  26  28
ATOM     28  C   UNL     1      -5.173  -2.893  -2.149  0.00  0.00    +0.279 C 
ATOM     29  C   UNL     1      -5.197  -1.859  -1.021  0.00  0.00    +0.064 C 
BRANCH  28  30
ATOM     30  O   UNL     1      -3.892  -3.524  -2.188  0.00  0.00    -0.478 OA
BRANCH  30  34
ATOM     31  C   UNL     1      -0.886  -1.539  -4.198  0.00  0.00    -0.047 A 
ATOM     32  C   UNL     1      -2.168  -1.021  -4.187  0.00  0.00    +0.007 A 
ATOM     33  C   UNL     1      -3.176  -1.684  -3.515  0.00  0.00    +0.046 A 
ATOM     34  C   UNL     1      -2.902  -2.871  -2.851  0.00  0.00    +0.122 A 
ATOM     35  C   UNL     1      -1.615  -3.389  -2.864  0.00  0.00    +0.046 A 
ATOM     36  C   UNL     1      -0.611  -2.724  -3.542  0.00  0.00    +0.007 A 
BRANCH  31  38
ATOM     37  C   UNL     1       0.270  -1.305  -6.380  0.00  0.00    +0.009 C 
ATOM     38  C   UNL     1       0.212  -0.813  -4.932  0.00  0.00    +0.032 C 
ENDBRANCH  31  38
ENDBRANCH  30  34
ENDBRANCH  28  30
ENDBRANCH  26  28
ENDBRANCH  25  26
ENDBRANCH   1  25
TORSDOF 11
