REMARK  Name = ZINC40923830
REMARK  7 active torsions:
REMARK  status: ('A' for Active; 'I' for Inactive)
REMARK    1  A    between atoms: C_1  and  C_2
REMARK    2  A    between atoms: C_3  and  C_29
REMARK    3  A    between atoms: C_4  and  C_12
REMARK    4  A    between atoms: C_17  and  O_18
REMARK    5  A    between atoms: O_18  and  C_19
REMARK    6  A    between atoms: C_19  and  C_20
REMARK    7  A    between atoms: C_29  and  C_31
REMARK                            x       y       z     vdW  Elec       q    Type
REMARK                         _______ _______ _______ _____ _____    ______ ____
ROOT
ATOM      1  C   UNL     1      -1.738  -2.632  -1.368  0.00  0.00    +0.024 A 
ATOM      2  C   UNL     1      -1.006  -2.331  -2.500  0.00  0.00    +0.025 A 
ATOM      3  C   UNL     1      -1.446  -2.751  -3.743  0.00  0.00    +0.018 A 
ATOM      4  C   UNL     1      -2.622  -3.473  -3.854  0.00  0.00    +0.019 A 
ATOM      5  C   UNL     1      -3.357  -3.776  -2.725  0.00  0.00    +0.047 A 
ATOM      6  C   UNL     1      -2.914  -3.360  -1.477  0.00  0.00    +0.127 A 
ATOM      7 BR   UNL     1      -0.442  -2.338  -5.290  0.00  0.00    -0.050 Br
ENDROOT
BRANCH   1  11
ATOM      8  C   UNL     1      -0.018   1.503   0.010  0.00  0.00    +0.061 C 
ATOM      9  C   UNL     1       0.002  -0.004   0.002  0.00  0.00    +0.016 C 
ATOM     10  C   UNL     1      -1.169  -0.671   0.004  0.00  0.00    +0.040 C 
ATOM     11  C   UNL     1      -1.258  -2.174  -0.015  0.00  0.00    +0.181 C 
ATOM     12  N   UNL     1       0.060  -2.739   0.250  0.00  0.00    -0.201 N 
ATOM     13  C   UNL     1       1.208  -2.013   0.244  0.00  0.00    +0.240 A 
ATOM     14  N   UNL     1       2.185  -2.833   0.511  0.00  0.00    -0.092 NA
ATOM     15  N   UNL     1       1.731  -4.026   0.689  0.00  0.00    -0.021 NA
ATOM     16  N   UNL     1       0.445  -4.045   0.547  0.00  0.00    -0.042 NA
ATOM     17  N   UNL     1       1.210  -0.649  -0.013  0.00  0.00    -0.286 N 
ATOM     18  H   UNL     1       2.035  -0.171  -0.193  0.00  0.00    +0.155 HD
BRANCH  10  19
ATOM     19  C   UNL     1      -2.360   0.070   0.026  0.00  0.00    +0.160 C 
ATOM     20  O   UNL     1      -2.321   1.284   0.042  0.00  0.00    -0.293 OA
ATOM     21  C   UNL     1      -3.689  -0.641   0.029  0.00  0.00    +0.091 C 
ENDBRANCH  10  19
ENDBRANCH   1  11
BRANCH   6  22
ATOM     22  O   UNL     1      -3.633  -3.661  -0.364  0.00  0.00    -0.487 OA
BRANCH  22  23
ATOM     23  C   UNL     1      -4.833  -4.414  -0.551  0.00  0.00    +0.266 C 
BRANCH  23  24
ATOM     24  C   UNL     1      -5.491  -4.651   0.783  0.00  0.00    +0.008 A 
ATOM     25  C   UNL     1      -4.915  -4.152   1.936  0.00  0.00    +0.010 A 
ATOM     26  C   UNL     1      -5.518  -4.368   3.161  0.00  0.00    +0.020 A 
ATOM     27  C   UNL     1      -6.699  -5.085   3.233  0.00  0.00    +0.042 A 
ATOM     28  C   UNL     1      -7.277  -5.584   2.080  0.00  0.00    +0.040 A 
ATOM     29  C   UNL     1      -6.676  -5.363   0.854  0.00  0.00    +0.049 A 
ATOM     30 CL   UNL     1      -7.403  -5.984  -0.595  0.00  0.00    -0.083 Cl
ATOM     31 CL   UNL     1      -7.456  -5.357   4.772  0.00  0.00    -0.083 Cl
ENDBRANCH  23  24
ENDBRANCH  22  23
ENDBRANCH   6  22
TORSDOF 5
