REMARK  Name = ZINC01074670
REMARK  11 active torsions:
REMARK  status: ('A' for Active; 'I' for Inactive)
REMARK    1  A    between atoms: C_1  and  C_2
REMARK    2  A    between atoms: C_3  and  C_31
REMARK    3  A    between atoms: C_4  and  C_24
REMARK    4  A    between atoms: C_10  and  C_15
REMARK    5  A    between atoms: C_18  and  N_21
REMARK    6  A    between atoms: N_21  and  C_22
REMARK    7  A    between atoms: N_21  and  C_23
REMARK    8  A    between atoms: C_31  and  O_33
REMARK    9  A    between atoms: O_33  and  C_34
REMARK   10  A    between atoms: C_34  and  C_35
REMARK   11  A    between atoms: C_34  and  C_36
REMARK                            x       y       z     vdW  Elec       q    Type
REMARK                         _______ _______ _______ _____ _____    ______ ____
ROOT
ATOM      1  C   UNL     1      -0.080  10.054   3.921  0.00  0.00    +0.061 C 
ATOM      2  C   UNL     1      -0.513   9.560   2.564  0.00  0.00    +0.016 C 
ATOM      3  C   UNL     1      -0.569  10.415   1.529  0.00  0.00    +0.065 C 
ATOM      4  C   UNL     1      -1.001   9.960   0.166  0.00  0.00    +0.092 C 
ATOM      5  C   UNL     1      -0.920   8.459   0.046  0.00  0.00    +0.024 C 
ATOM      6  C   UNL     1      -0.857   7.682   1.148  0.00  0.00    +0.016 C 
ATOM      7  N   UNL     1      -0.846   8.245   2.396  0.00  0.00    -0.321 N 
ATOM      8  C   UNL     1      -0.794   6.179   1.036  0.00  0.00    +0.059 C 
ATOM      9  C   UNL     1      -0.073   5.790  -0.257  0.00  0.00    +0.032 C 
ATOM     10  C   UNL     1      -0.828   6.406  -1.439  0.00  0.00    +0.088 C 
ATOM     11  C   UNL     1      -0.916   7.894  -1.242  0.00  0.00    +0.162 C 
ATOM     12  O   UNL     1      -0.986   8.622  -2.212  0.00  0.00    -0.292 OA
ATOM     13  H   UNL     1      -1.109   7.628   3.268  0.00  0.00    +0.152 HD
ENDROOT
BRANCH   4  14
ATOM     14  C   UNL     1      -2.423  10.400  -0.073  0.00  0.00    -0.034 A 
ATOM     15  C   UNL     1      -2.713  11.264  -1.113  0.00  0.00    +0.004 A 
ATOM     16  C   UNL     1      -4.017  11.667  -1.333  0.00  0.00    +0.002 A 
ATOM     17  C   UNL     1      -5.031  11.208  -0.513  0.00  0.00    +0.020 A 
ATOM     18  C   UNL     1      -4.741  10.344   0.527  0.00  0.00    +0.041 A 
ATOM     19  C   UNL     1      -3.436   9.935   0.743  0.00  0.00    +0.024 A 
ATOM     20 CL   UNL     1      -6.013   9.766   1.557  0.00  0.00    -0.084 Cl
ENDBRANCH   4  14
BRANCH   9  21
ATOM     21  C   UNL     1      -0.055   4.289  -0.394  0.00  0.00    -0.043 A 
ATOM     22  C   UNL     1       1.152   3.617  -0.461  0.00  0.00    +0.006 A 
ATOM     23  C   UNL     1       1.173   2.242  -0.587  0.00  0.00    +0.023 A 
ATOM     24  C   UNL     1      -0.021   1.534  -0.646  0.00  0.00    +0.029 A 
ATOM     25  C   UNL     1      -1.231   2.212  -0.584  0.00  0.00    +0.023 A 
ATOM     26  C   UNL     1      -1.245   3.587  -0.453  0.00  0.00    +0.006 A 
BRANCH  24  27
ATOM     27  N   UNL     1      -0.004   0.143  -0.774  0.00  0.00    -0.336 N 
ATOM     28  C   UNL     1       1.274  -0.570  -0.846  0.00  0.00    +0.129 C 
ATOM     29  C   UNL     1      -1.264  -0.602  -0.837  0.00  0.00    +0.129 C 
ENDBRANCH  24  27
ENDBRANCH   9  21
BRANCH   3  30
ATOM     30  C   UNL     1      -0.212  11.770   1.728  0.00  0.00    +0.338 C 
ATOM     31  O   UNL     1       0.037  12.175   2.847  0.00  0.00    -0.245 OA
BRANCH  30  32
ATOM     32  O   UNL     1      -0.150  12.612   0.675  0.00  0.00    -0.459 OA
BRANCH  32  33
ATOM     33  C   UNL     1       0.216  13.966   0.949  0.00  0.00    +0.171 C 
ATOM     34  C   UNL     1       1.737  14.111   0.859  0.00  0.00    +0.052 C 
ATOM     35  C   UNL     1      -0.446  14.891  -0.074  0.00  0.00    +0.052 C 
ENDBRANCH  32  33
ENDBRANCH  30  32
ENDBRANCH   3  30
TORSDOF 6
