REMARK  Name = ZINC35807661
REMARK  2 active torsions:
REMARK  status: ('A' for Active; 'I' for Inactive)
REMARK    1  A    between atoms: C_8  and  C_27
REMARK    2  A    between atoms: C_27  and  C_29
REMARK                            x       y       z     vdW  Elec       q    Type
REMARK                         _______ _______ _______ _____ _____    ______ ____
ROOT
ATOM      1  C   UNL     1       0.597   1.222  -0.701  0.00  0.00    +0.000 A 
ATOM      2  C   UNL     1       1.880   1.712  -0.861  0.00  0.00    +0.002 A 
ATOM      3  C   UNL     1       2.964   0.863  -0.785  0.00  0.00    +0.023 A 
ATOM      4  C   UNL     1       2.774  -0.496  -0.547  0.00  0.00    +0.038 A 
ATOM      5  C   UNL     1       1.478  -0.978  -0.386  0.00  0.00    -0.011 A 
ATOM      6  C   UNL     1       0.399  -0.127  -0.463  0.00  0.00    +0.006 A 
ATOM      7  C   UNL     1       1.616  -2.455  -0.146  0.00  0.00    +0.085 C 
ATOM      8  C   UNL     1       1.023  -2.861   1.209  0.00  0.00    +0.066 C 
ATOM      9  C   UNL     1       0.256  -4.165   0.943  0.00  0.00    -0.055 C 
ATOM     10  C   UNL     1       0.859  -5.313   1.765  0.00  0.00    -0.016 C 
ATOM     11  C   UNL     1       1.313  -6.359   0.720  0.00  0.00    -0.020 C 
ATOM     12  C   UNL     1       1.509  -5.508  -0.557  0.00  0.00    -0.076 C 
ATOM     13  N   UNL     1       0.410  -4.501  -0.491  0.00  0.00    +0.395 N 
ATOM     14  C   UNL     1       0.855  -3.277  -1.179  0.00  0.00    +0.060 C 
ATOM     15  C   UNL     1      -0.313  -2.516  -1.746  0.00  0.00    -0.025 A 
ATOM     16  C   UNL     1      -1.433  -1.946  -1.183  0.00  0.00    +0.005 A 
ATOM     17  C   UNL     1      -2.355  -1.295  -1.982  0.00  0.00    +0.002 A 
ATOM     18  C   UNL     1      -2.150  -1.219  -3.348  0.00  0.00    +0.022 A 
ATOM     19  C   UNL     1      -1.029  -1.789  -3.917  0.00  0.00    +0.062 A 
ATOM     20  C   UNL     1      -0.095  -2.446  -3.118  0.00  0.00    +0.054 A 
ATOM     21  N   UNL     1       1.098  -3.092  -3.451  0.00  0.00    -0.285 N 
ATOM     22  C   UNL     1       1.716  -3.606  -2.370  0.00  0.00    +0.212 C 
ATOM     23  O   UNL     1       2.764  -4.216  -2.359  0.00  0.00    -0.277 OA
ATOM     24 CL   UNL     1      -0.782  -1.688  -5.632  0.00  0.00    -0.082 Cl
ATOM     25  C   UNL     1       3.096  -2.723  -0.196  0.00  0.00    +0.228 C 
ATOM     26  O   UNL     1       3.643  -3.796  -0.054  0.00  0.00    -0.275 OA
ATOM     27  N   UNL     1       3.695  -1.540  -0.430  0.00  0.00    -0.285 N 
ATOM     28  H   UNL     1       1.442  -3.162  -4.355  0.00  0.00    +0.155 HD
ATOM     29  H   UNL     1       4.655  -1.425  -0.509  0.00  0.00    +0.155 HD
ATOM     30  H   UNL     1      -0.448  -4.861  -0.880  0.00  0.00    -0.079 HD
ENDROOT
BRANCH   8  31
ATOM     31  C   UNL     1       2.123  -3.096   2.211  0.00  0.00    +0.172 C 
ATOM     32  O   UNL     1       3.050  -3.830   1.934  0.00  0.00    -0.291 OA
BRANCH  31  33
ATOM     33  C   UNL     1       2.077  -2.462   3.472  0.00  0.00    +0.055 A 
ATOM     34  C   UNL     1       2.983  -2.538   4.526  0.00  0.00    +0.019 A 
ATOM     35  C   UNL     1       2.664  -1.800   5.638  0.00  0.00    +0.008 A 
ATOM     36  C   UNL     1       1.521  -1.067   5.639  0.00  0.00    +0.046 A 
ATOM     37  S   UNL     1       0.847  -1.349   4.126  0.00  0.00    -0.094 S 
ENDBRANCH  31  33
ENDBRANCH   8  31
TORSDOF 2
