REMARK  Name = ZINC13586026
REMARK  9 active torsions:
REMARK  status: ('A' for Active; 'I' for Inactive)
REMARK    1  A    between atoms: C_1  and  C_2
REMARK    2  A    between atoms: C_4  and  S_17
REMARK    3  A    between atoms: C_5  and  C_16
REMARK    4  A    between atoms: N_6  and  S_7
REMARK    5  A    between atoms: S_7  and  C_10
REMARK    6  A    between atoms: S_17  and  N_20
REMARK    7  A    between atoms: N_20  and  C_21
REMARK    8  A    between atoms: C_26  and  O_27
REMARK    9  A    between atoms: O_27  and  C_28
REMARK                            x       y       z     vdW  Elec       q    Type
REMARK                         _______ _______ _______ _____ _____    ______ ____
ROOT
ATOM      1  S   UNL     1      -0.417   9.592   0.626  0.00  0.00    +0.074 S 
ATOM      2  O   UNL     1       0.860  10.198   0.488  0.00  0.00    -0.150 OA
ATOM      3  O   UNL     1      -1.604  10.193   0.125  0.00  0.00    -0.150 OA
ENDROOT
BRANCH   1   7
ATOM      4  C   UNL     1       0.217   9.560   5.926  0.00  0.00    +0.065 C 
ATOM      5  C   UNL     1      -0.365   9.348   4.553  0.00  0.00    +0.042 A 
ATOM      6  C   UNL     1       0.203   9.722   3.388  0.00  0.00    +0.053 A 
ATOM      7  C   UNL     1      -0.671   9.338   2.351  0.00  0.00    +0.131 A 
ATOM      8  C   UNL     1      -1.734   8.736   2.921  0.00  0.00    +0.066 A 
ATOM      9  N   UNL     1      -1.552   8.739   4.272  0.00  0.00    -0.218 N 
ATOM     10  C   UNL     1      -2.919   8.159   2.191  0.00  0.00    +0.067 C 
BRANCH   9  11
ATOM     11  S   UNL     1      -2.599   8.107   5.389  0.00  0.00    +0.084 S 
ATOM     12  O   UNL     1      -2.344   8.782   6.613  0.00  0.00    -0.148 OA
ATOM     13  O   UNL     1      -3.883   8.093   4.779  0.00  0.00    -0.148 OA
BRANCH  11  14
ATOM     14  C   UNL     1      -2.142   6.423   5.637  0.00  0.00    +0.111 A 
ATOM     15  C   UNL     1      -2.706   5.431   4.857  0.00  0.00    +0.029 A 
ATOM     16  C   UNL     1      -2.343   4.111   5.049  0.00  0.00    +0.002 A 
ATOM     17  C   UNL     1      -1.424   3.782   6.027  0.00  0.00    +0.000 A 
ATOM     18  C   UNL     1      -0.864   4.773   6.811  0.00  0.00    +0.002 A 
ATOM     19  C   UNL     1      -1.222   6.094   6.616  0.00  0.00    +0.029 A 
ENDBRANCH  11  14
ENDBRANCH   9  11
ENDBRANCH   1   7
BRANCH   1  20
ATOM     20  N   UNL     1      -0.310   8.097  -0.078  0.00  0.00    -0.213 N 
ATOM     21  H   UNL     1      -1.006   7.794  -0.682  0.00  0.00    +0.174 HD
BRANCH  20  22
ATOM     22  C   UNL     1       0.785   7.270   0.198  0.00  0.00    +0.092 A 
ATOM     23  C   UNL     1       1.403   7.326   1.439  0.00  0.00    +0.048 A 
ATOM     24  C   UNL     1       2.489   6.513   1.707  0.00  0.00    +0.043 A 
ATOM     25  C   UNL     1       2.958   5.639   0.742  0.00  0.00    +0.024 A 
ATOM     26  C   UNL     1       2.342   5.574  -0.494  0.00  0.00    +0.049 A 
ATOM     27  C   UNL     1       1.254   6.385  -0.771  0.00  0.00    +0.151 A 
ATOM     28 CL   UNL     1       3.267   6.590   3.257  0.00  0.00    -0.083 Cl
BRANCH  27  29
ATOM     29  O   UNL     1       0.648   6.322  -1.987  0.00  0.00    -0.454 OA
BRANCH  29  30
ATOM     30  C   UNL     1      -0.493   5.592  -2.094  0.00  0.00    +0.129 A 
ATOM     31  C   UNL     1      -1.208   5.590  -3.283  0.00  0.00    +0.046 A 
ATOM     32  C   UNL     1      -2.368   4.848  -3.389  0.00  0.00    +0.004 A 
ATOM     33  C   UNL     1      -2.817   4.107  -2.311  0.00  0.00    +0.000 A 
ATOM     34  C   UNL     1      -2.109   4.111  -1.123  0.00  0.00    +0.004 A 
ATOM     35  C   UNL     1      -0.946   4.847  -1.014  0.00  0.00    +0.046 A 
ENDBRANCH  29  30
ENDBRANCH  27  29
ENDBRANCH  20  22
ENDBRANCH   1  20
TORSDOF 7
