REMARK  Name = ZINC20386527
REMARK  11 active torsions:
REMARK  status: ('A' for Active; 'I' for Inactive)
REMARK    1  A    between atoms: C_1  and  C_2
REMARK    2  A    between atoms: C_2  and  N_3
REMARK    3  A    between atoms: C_9  and  N_32
REMARK    4  A    between atoms: C_10  and  C_11
REMARK    5  A    between atoms: C_11  and  C_13
REMARK    6  A    between atoms: C_11  and  N_14
REMARK    7  A    between atoms: N_17  and  C_18
REMARK    8  A    between atoms: C_19  and  C_27
REMARK    9  A    between atoms: C_27  and  O_29
REMARK   10  A    between atoms: O_29  and  C_30
REMARK   11  A    between atoms: C_30  and  C_31
REMARK                            x       y       z     vdW  Elec       q    Type
REMARK                         _______ _______ _______ _____ _____    ______ ____
ROOT
ATOM      1  N   UNL     1      -3.232   3.161  -0.573  0.00  0.00    -0.292 N 
ATOM      2  C   UNL     1      -2.092   2.451  -0.681  0.00  0.00    +0.305 C 
ATOM      3  O   UNL     1      -2.123   1.237  -0.617  0.00  0.00    -0.252 OA
ATOM      4  N   UNL     1      -0.917   3.086  -0.860  0.00  0.00    -0.263 N 
ATOM      5  H   UNL     1      -3.204   4.259  -0.631  0.00  0.00    +0.151 HD
ATOM      6  H   UNL     1      -0.888   4.184  -0.917  0.00  0.00    +0.157 HD
ENDROOT
BRANCH   4   7
ATOM      7  C   UNL     1       0.256   2.356  -0.971  0.00  0.00    +0.087 A 
ATOM      8  C   UNL     1       1.549   2.824  -1.161  0.00  0.00    +0.091 A 
ATOM      9  C   UNL     1       2.614   1.838  -1.251  0.00  0.00    -0.021 A 
ATOM     10  C   UNL     1       2.217   0.552  -1.136  0.00  0.00    -0.004 A 
ATOM     11  S   UNL     1       0.463   0.636  -0.913  0.00  0.00    -0.077 S 
ATOM     12  C   UNL     1       3.084  -0.668  -1.189  0.00  0.00    +0.043 C 
ATOM     13  C   UNL     1       4.449  -0.268  -1.768  0.00  0.00    +0.005 C 
ATOM     14  C   UNL     1       4.939   0.992  -1.048  0.00  0.00    +0.005 C 
ATOM     15  C   UNL     1       4.081   2.191  -1.458  0.00  0.00    +0.037 C 
BRANCH   8  16
ATOM     16  C   UNL     1       1.831   4.257  -1.268  0.00  0.00    +0.342 C 
ATOM     17  O   UNL     1       2.083   4.903  -0.269  0.00  0.00    -0.245 OA
BRANCH  16  18
ATOM     18  O   UNL     1       1.809   4.860  -2.475  0.00  0.00    -0.461 OA
BRANCH  18  19
ATOM     19  C   UNL     1       2.098   6.283  -2.505  0.00  0.00    +0.229 C 
ATOM     20  C   UNL     1       2.028   6.786  -3.948  0.00  0.00    +0.048 C 
ENDBRANCH  18  19
ENDBRANCH  16  18
ENDBRANCH   8  16
ENDBRANCH   4   7
BRANCH   1  21
ATOM     21  C   UNL     1      -4.510   2.470  -0.379  0.00  0.00    +0.104 C 
ATOM     22  C   UNL     1      -4.587   1.933   1.052  0.00  0.00    +0.033 C 
BRANCH  21  30
ATOM     23  N   UNL     1      -8.782   2.665  -3.279  0.00  0.00    +0.383 N 
ATOM     24  C   UNL     1      -8.305   1.508  -2.509  0.00  0.00    -0.074 C 
ATOM     25  C   UNL     1      -6.842   1.707  -2.105  0.00  0.00    +0.018 C 
ATOM     26  C   UNL     1      -6.715   3.069  -1.426  0.00  0.00    -0.034 A 
ATOM     27  C   UNL     1      -7.702   3.993  -1.590  0.00  0.00    -0.021 A 
ATOM     28  S   UNL     1      -7.151   5.377  -0.632  0.00  0.00    -0.077 S 
ATOM     29  C   UNL     1      -5.620   4.668  -0.042  0.00  0.00    +0.090 A 
ATOM     30  C   UNL     1      -5.643   3.435  -0.615  0.00  0.00    +0.007 A 
ATOM     31  C   UNL     1      -8.945   3.841  -2.403  0.00  0.00    -0.035 C 
ATOM     32  H   UNL     1      -8.025   2.902  -4.042  0.00  0.00    -0.081 HD
BRANCH  29  33
ATOM     33  N   UNL     1      -4.651   5.234   0.793  0.00  0.00    -0.317 N 
ATOM     34  C   UNL     1      -3.574   4.581   1.320  0.00  0.00    +0.092 A 
ATOM     35  C   UNL     1      -2.872   5.458   2.067  0.00  0.00    +0.019 A 
ATOM     36  C   UNL     1      -3.544   6.695   2.008  0.00  0.00    +0.019 A 
ATOM     37  C   UNL     1      -4.628   6.530   1.222  0.00  0.00    +0.092 A 
ENDBRANCH  29  33
BRANCH  23  39
ATOM     38  C   UNL     1     -11.088   1.904  -2.962  0.00  0.00    -0.017 C 
ATOM     39  C   UNL     1     -10.035   2.351  -3.978  0.00  0.00    -0.082 C 
ENDBRANCH  23  39
ENDBRANCH  21  30
ENDBRANCH   1  21
TORSDOF 8
