REMARK  Name = ZINC05072050
REMARK  3 active torsions:
REMARK  status: ('A' for Active; 'I' for Inactive)
REMARK    1  A    between atoms: C_4  and  C_7
REMARK    2  A    between atoms: C_9  and  C_21
REMARK    3  A    between atoms: C_10  and  C_15
REMARK                            x       y       z     vdW  Elec       q    Type
REMARK                         _______ _______ _______ _____ _____    ______ ____
ROOT
ATOM      1  C   UNL     1       3.570  -0.731  -0.015  0.00  0.00    +0.140 C 
ATOM      2  C   UNL     1       3.781  -1.129   1.431  0.00  0.00    +0.041 C 
ATOM      3  C   UNL     1       4.130  -2.417   1.688  0.00  0.00    +0.051 C 
ATOM      4  N   UNL     1       4.286  -3.326   0.658  0.00  0.00    -0.268 N 
ATOM      5  C   UNL     1       4.110  -3.015  -0.633  0.00  0.00    +0.305 C 
ATOM      6  O   UNL     1       4.269  -3.880  -1.472  0.00  0.00    -0.252 OA
ATOM      7  N   UNL     1       3.761  -1.778  -1.033  0.00  0.00    -0.288 N 
ATOM      8  H   UNL     1       4.537  -4.236   0.881  0.00  0.00    +0.156 HD
ATOM      9  H   UNL     1       3.639  -1.580  -1.974  0.00  0.00    +0.151 HD
ENDROOT
BRANCH   2  10
ATOM     10  C   UNL     1       3.615  -0.160   2.513  0.00  0.00    +0.139 A 
ATOM     11  N   UNL     1       4.323   1.009   2.645  0.00  0.00    -0.338 N 
ATOM     12  H   UNL     1       5.012   1.335   2.046  0.00  0.00    +0.167 HD
ATOM     13  C   UNL     1       3.868   1.634   3.792  0.00  0.00    +0.066 A 
ATOM     14  C   UNL     1       4.195   2.821   4.432  0.00  0.00    +0.028 A 
ATOM     15  C   UNL     1       3.542   3.177   5.594  0.00  0.00    +0.002 A 
ATOM     16  C   UNL     1       2.559   2.356   6.129  0.00  0.00    +0.002 A 
ATOM     17  C   UNL     1       2.221   1.175   5.509  0.00  0.00    +0.030 A 
ATOM     18  C   UNL     1       2.873   0.798   4.329  0.00  0.00    +0.089 A 
ATOM     19  N   UNL     1       2.759  -0.273   3.508  0.00  0.00    -0.228 NA
ENDBRANCH   2  10
BRANCH   1  23
ATOM     20  C   UNL     1      -0.413   0.764  -0.403  0.00  0.00    +0.000 A 
ATOM     21  C   UNL     1       0.640   1.641  -0.222  0.00  0.00    +0.000 A 
ATOM     22  C   UNL     1       1.929   1.157  -0.096  0.00  0.00    +0.006 A 
ATOM     23  C   UNL     1       2.165  -0.204  -0.151  0.00  0.00    -0.023 A 
ATOM     24  C   UNL     1       1.111  -1.081  -0.331  0.00  0.00    +0.006 A 
ATOM     25  C   UNL     1      -0.177  -0.597  -0.458  0.00  0.00    +0.000 A 
ENDBRANCH   1  23
BRANCH   3  26
ATOM     26  C   UNL     1       4.347  -2.850   3.083  0.00  0.00    -0.003 A 
ATOM     27  C   UNL     1       3.748  -4.020   3.555  0.00  0.00    +0.010 A 
ATOM     28  C   UNL     1       3.954  -4.420   4.859  0.00  0.00    +0.001 A 
ATOM     29  C   UNL     1       4.753  -3.664   5.699  0.00  0.00    +0.000 A 
ATOM     30  C   UNL     1       5.349  -2.503   5.238  0.00  0.00    +0.001 A 
ATOM     31  C   UNL     1       5.156  -2.095   3.935  0.00  0.00    +0.010 A 
ENDBRANCH   3  26
TORSDOF 3
