REMARK  Name = ZINC35725950
REMARK  7 active torsions:
REMARK  status: ('A' for Active; 'I' for Inactive)
REMARK    1  A    between atoms: C_4  and  C_7
REMARK    2  A    between atoms: C_7  and  N_8
REMARK    3  A    between atoms: C_11  and  N_14
REMARK    4  A    between atoms: C_15  and  C_17
REMARK    5  A    between atoms: C_19  and  C_31
REMARK    6  A    between atoms: N_21  and  C_22
REMARK    7  A    between atoms: C_25  and  N_28
REMARK                            x       y       z     vdW  Elec       q    Type
REMARK                         _______ _______ _______ _____ _____    ______ ____
ROOT
ATOM      1  C   UNL     1       6.874  -3.756   6.640  0.00  0.00    +0.130 A 
ATOM      2  C   UNL     1       6.448  -2.989   7.708  0.00  0.00    +0.063 A 
ATOM      3  C   UNL     1       7.251  -3.386   8.794  0.00  0.00    +0.097 A 
ATOM      4  N   UNL     1       8.075  -4.318   8.360  0.00  0.00    -0.166 NA
ATOM      5  N   UNL     1       7.877  -4.558   7.114  0.00  0.00    -0.227 N 
ENDROOT
BRANCH   3   6
ATOM      6  C   UNL     1       7.181  -2.853  10.177  0.00  0.00    +0.037 A 
ATOM      7  C   UNL     1       6.252  -1.866  10.500  0.00  0.00    +0.013 A 
ATOM      8  C   UNL     1       6.192  -1.373  11.787  0.00  0.00    +0.001 A 
ATOM      9  C   UNL     1       7.052  -1.855  12.758  0.00  0.00    +0.003 A 
ATOM     10  C   UNL     1       7.977  -2.834  12.445  0.00  0.00    +0.039 A 
ATOM     11  C   UNL     1       8.043  -3.341  11.159  0.00  0.00    +0.133 A 
ATOM     12  F   UNL     1       8.943  -4.301  10.855  0.00  0.00    -0.205 F 
ENDBRANCH   3   6
BRANCH   5  13
ATOM     13  C   UNL     1       8.583  -5.497   6.353  0.00  0.00    +0.066 A 
ATOM     14  C   UNL     1       8.804  -6.773   6.854  0.00  0.00    +0.030 A 
ATOM     15  C   UNL     1       9.501  -7.698   6.101  0.00  0.00    +0.035 A 
ATOM     16  C   UNL     1       9.979  -7.354   4.850  0.00  0.00    +0.126 A 
ATOM     17  C   UNL     1       9.761  -6.083   4.349  0.00  0.00    +0.035 A 
ATOM     18  C   UNL     1       9.060  -5.156   5.094  0.00  0.00    +0.030 A 
BRANCH  16  19
ATOM     19  N   UNL     1      10.725  -8.347   4.045  0.00  0.00    +0.056 N 
ATOM     20  O   UNL     1      10.917  -9.458   4.483  0.00  0.00    -0.126 OA
ATOM     21  O   UNL     1      11.143  -8.047   2.951  0.00  0.00    -0.126 OA
ENDBRANCH  16  19
ENDBRANCH   5  13
BRANCH   1  23
ATOM     22  N   UNL     1       5.434  -2.794   4.918  0.00  0.00    -0.307 N 
ATOM     23  C   UNL     1       6.348  -3.721   5.266  0.00  0.00    +0.263 C 
ATOM     24  O   UNL     1       6.739  -4.528   4.445  0.00  0.00    -0.269 OA
ATOM     25  H   UNL     1       5.068  -2.197   5.589  0.00  0.00    +0.149 HD
BRANCH  22  29
ATOM     26  N   UNL     1       4.125  -1.002   1.334  0.00  0.00    +0.382 N 
ATOM     27  C   UNL     1       3.171  -1.886   2.017  0.00  0.00    -0.077 C 
ATOM     28  C   UNL     1       3.593  -2.067   3.477  0.00  0.00    +0.004 C 
ATOM     29  C   UNL     1       4.992  -2.688   3.525  0.00  0.00    +0.070 C 
ATOM     30  C   UNL     1       5.963  -1.796   2.746  0.00  0.00    +0.004 C 
ATOM     31  C   UNL     1       5.454  -1.625   1.314  0.00  0.00    -0.077 C 
ATOM     32  H   UNL     1       4.174  -0.122   1.824  0.00  0.00    -0.081 HD
BRANCH  26  33
ATOM     33  C   UNL     1       3.673  -0.769  -0.044  0.00  0.00    -0.043 C 
BRANCH  33  37
ATOM     34  C   UNL     1      -0.033   1.354   0.009  0.00  0.00    +0.000 A 
ATOM     35  C   UNL     1       1.161   2.049  -0.018  0.00  0.00    +0.000 A 
ATOM     36  C   UNL     1       2.361   1.362  -0.035  0.00  0.00    +0.002 A 
ATOM     37  C   UNL     1       2.365  -0.020  -0.024  0.00  0.00    -0.064 A 
ATOM     38  C   UNL     1       1.171  -0.716   0.003  0.00  0.00    +0.002 A 
ATOM     39  C   UNL     1      -0.028  -0.029   0.019  0.00  0.00    +0.000 A 
ENDBRANCH  33  37
ENDBRANCH  26  33
ENDBRANCH  22  29
ENDBRANCH   1  23
TORSDOF 7
