REMARK  Name = ZINC15707689
REMARK  9 active torsions:
REMARK  status: ('A' for Active; 'I' for Inactive)
REMARK    1  A    between atoms: C_6  and  C_7
REMARK    2  A    between atoms: C_7  and  N_8
REMARK    3  A    between atoms: C_9  and  C_11
REMARK    4  A    between atoms: C_11  and  C_12
REMARK    5  A    between atoms: C_12  and  C_13
REMARK    6  A    between atoms: C_22  and  N_25
REMARK    7  A    between atoms: N_25  and  C_26
REMARK    8  A    between atoms: C_26  and  N_28
REMARK    9  A    between atoms: N_28  and  C_29
REMARK                            x       y       z     vdW  Elec       q    Type
REMARK                         _______ _______ _______ _____ _____    ______ ____
ROOT
ATOM      1  C   UNL     1      -0.013   1.086   0.008  0.00  0.00    -0.050 C 
ATOM      2  C   UNL     1      -0.739   1.510  -1.277  0.00  0.00    +0.089 C 
ATOM      3  N   UNL     1      -2.189   1.439  -1.133  0.00  0.00    -0.318 N 
ATOM      4  C   UNL     1      -2.836   1.242   0.031  0.00  0.00    +0.200 C 
ATOM      5  O   UNL     1      -4.046   1.306   0.079  0.00  0.00    -0.278 OA
ATOM      6  C   UNL     1      -2.046   0.943   1.264  0.00  0.00    +0.021 C 
ATOM      7  C   UNL     1      -0.146   1.616   2.459  0.00  0.00    -0.055 C 
ATOM      8  C   UNL     1      -1.336   1.628   3.452  0.00  0.00    +0.054 C 
ATOM      9  C   UNL     1      -2.606   1.556   2.557  0.00  0.00    +0.014 C 
ATOM     10  H   UNL     1      -2.726   1.540  -1.935  0.00  0.00    +0.149 HD
ATOM     11  N   UNL     1      -0.813   1.675   1.141  0.00  0.00    +0.391 N 
ATOM     12  H   UNL     1      -1.013   2.657   0.919  0.00  0.00    -0.080 HD
ENDROOT
BRANCH   8  13
ATOM     13  N   UNL     1      -1.333   2.866   4.237  0.00  0.00    -0.326 N 
ATOM     14  H   UNL     1      -1.854   3.628   3.942  0.00  0.00    +0.148 HD
BRANCH  13  15
ATOM     15  C   UNL     1      -0.605   2.944   5.368  0.00  0.00    +0.131 C 
ATOM     16  S   UNL     1       0.316   1.598   5.889  0.00  0.00    -0.019 S 
BRANCH  15  17
ATOM     17  N   UNL     1      -0.602   4.083   6.090  0.00  0.00    -0.324 N 
ATOM     18  H   UNL     1      -1.123   4.845   5.795  0.00  0.00    +0.148 HD
BRANCH  17  19
ATOM     19  C   UNL     1       0.190   4.168   7.320  0.00  0.00    +0.072 C 
ATOM     20  C   UNL     1      -0.466   4.824   8.537  0.00  0.00    +0.024 C 
ATOM     21  C   UNL     1       0.640   5.558   7.775  0.00  0.00    +0.024 C 
ENDBRANCH  17  19
ENDBRANCH  15  17
ENDBRANCH  13  15
ENDBRANCH   8  13
BRANCH   1  22
ATOM     22  C   UNL     1       1.419   1.625  -0.003  0.00  0.00    -0.005 C 
BRANCH  22  23
ATOM     23  C   UNL     1       2.219   0.925  -1.103  0.00  0.00    +0.094 C 
BRANCH  23  25
ATOM     24  N   UNL     1       4.556   0.876  -1.914  0.00  0.00    -0.311 N 
ATOM     25  C   UNL     1       3.659   1.366  -1.035  0.00  0.00    +0.213 C 
ATOM     26  O   UNL     1       4.010   2.160  -0.189  0.00  0.00    -0.276 OA
ATOM     27  H   UNL     1       4.275   0.240  -2.590  0.00  0.00    +0.149 HD
BRANCH  24  28
ATOM     28  C   UNL     1       5.955   1.304  -1.847  0.00  0.00    +0.139 C 
BRANCH  28  34
ATOM     29  C   UNL     1       7.350  -0.601  -2.678  0.00  0.00    +0.008 A 
ATOM     30  C   UNL     1       8.068  -1.237  -3.673  0.00  0.00    +0.038 A 
ATOM     31  C   UNL     1       8.190  -0.649  -4.921  0.00  0.00    +0.123 A 
ATOM     32  C   UNL     1       7.587   0.572  -5.172  0.00  0.00    +0.038 A 
ATOM     33  C   UNL     1       6.864   1.202  -4.177  0.00  0.00    +0.008 A 
ATOM     34  C   UNL     1       6.743   0.615  -2.932  0.00  0.00    -0.030 A 
ATOM     35  F   UNL     1       8.897  -1.266  -5.893  0.00  0.00    -0.205 F 
ENDBRANCH  28  34
ENDBRANCH  24  28
ENDBRANCH  23  25
ENDBRANCH  22  23
ENDBRANCH   1  22
TORSDOF 9
