REMARK  Name = ZINC03851560
REMARK  0 active torsions:
REMARK  status: ('A' for Active; 'I' for Inactive)
REMARK                            x       y       z     vdW  Elec       q    Type
REMARK                         _______ _______ _______ _____ _____    ______ ____
ROOT
ATOM      1  C   UNL     1      -1.588   3.004   0.033  0.00  0.00    +0.004 A 
ATOM      2  C   UNL     1      -1.250   1.651   0.017  0.00  0.00    +0.004 A 
ATOM      3  C   UNL     1      -0.013   1.076   0.008  0.00  0.00    +0.055 A 
ATOM      4  C   UNL     1       1.247   1.704  -0.001  0.00  0.00    +0.229 A 
ATOM      5  O   UNL     1       2.217   0.956  -0.014  0.00  0.00    -0.284 OA
ATOM      6  C   UNL     1       1.534   3.087   0.004  0.00  0.00    +0.271 A 
ATOM      7  C   UNL     1       0.637   4.148   0.017  0.00  0.00    +0.229 A 
ATOM      8  C   UNL     1      -0.760   4.104   0.031  0.00  0.00    +0.055 A 
ATOM      9  O   UNL     1       1.189   5.387   0.018  0.00  0.00    -0.284 OA
ATOM     10  O   UNL     1       2.848   3.420  -0.008  0.00  0.00    -0.280 OA
ENDROOT
TORSDOF 0
