REMARK  Name = ZINC01190514
REMARK  7 active torsions:
REMARK  status: ('A' for Active; 'I' for Inactive)
REMARK    1  A    between atoms: C_1  and  C_2
REMARK    2  A    between atoms: C_3  and  C_23
REMARK    3  A    between atoms: C_4  and  C_16
REMARK    4  A    between atoms: C_10  and  C_14
REMARK    5  A    between atoms: C_10  and  C_15
REMARK    6  A    between atoms: C_23  and  O_25
REMARK    7  A    between atoms: O_25  and  C_26
REMARK                            x       y       z     vdW  Elec       q    Type
REMARK                         _______ _______ _______ _____ _____    ______ ____
ROOT
ATOM      1  C   UNL     1      -0.029   1.030   0.025  0.00  0.00    +0.061 C 
ATOM      2  C   UNL     1      -0.728   1.542   1.258  0.00  0.00    +0.031 C 
ATOM      3  C   UNL     1      -0.042   1.680   2.405  0.00  0.00    +0.153 C 
ATOM      4  C   UNL     1      -0.704   2.180   3.653  0.00  0.00    +0.073 C 
ATOM      5  C   UNL     1      -2.014   2.857   3.340  0.00  0.00    +0.025 C 
ATOM      6  C   UNL     1      -2.619   2.676   2.145  0.00  0.00    +0.049 C 
ATOM      7  N   UNL     1      -2.056   1.861   1.202  0.00  0.00    -0.260 NA
ATOM      8  C   UNL     1      -3.929   3.348   1.827  0.00  0.00    +0.062 C 
ATOM      9  C   UNL     1      -4.736   3.546   3.111  0.00  0.00    -0.023 C 
ATOM     10  C   UNL     1      -3.899   4.380   4.088  0.00  0.00    +0.086 C 
ATOM     11  C   UNL     1      -2.585   3.686   4.322  0.00  0.00    +0.162 C 
ATOM     12  O   UNL     1      -2.007   3.844   5.379  0.00  0.00    -0.292 OA
ATOM     13  C   UNL     1      -5.049   2.185   3.735  0.00  0.00    +0.011 C 
ATOM     14  C   UNL     1      -6.041   4.280   2.796  0.00  0.00    +0.011 C 
ENDROOT
BRANCH   4  15
ATOM     15  C   UNL     1      -0.959   1.005   4.562  0.00  0.00    -0.038 A 
ATOM     16  C   UNL     1      -0.395   0.973   5.824  0.00  0.00    +0.004 A 
ATOM     17  C   UNL     1      -0.629  -0.104   6.658  0.00  0.00    +0.001 A 
ATOM     18  C   UNL     1      -1.427  -1.149   6.231  0.00  0.00    +0.014 A 
ATOM     19  C   UNL     1      -1.991  -1.117   4.969  0.00  0.00    +0.014 A 
ATOM     20  C   UNL     1      -1.761  -0.037   4.136  0.00  0.00    +0.018 A 
ATOM     21  I   UNL     1      -3.200  -2.701   4.321  0.00  0.00    -0.044 I 
ENDBRANCH   4  15
BRANCH   3  22
ATOM     22  C   UNL     1       1.334   1.357   2.434  0.00  0.00    +0.316 C 
ATOM     23  O   UNL     1       1.911   1.058   1.405  0.00  0.00    -0.250 OA
BRANCH  22  24
ATOM     24  O   UNL     1       2.008   1.379   3.603  0.00  0.00    -0.467 OA
ATOM     25  C   UNL     1       3.396   1.041   3.558  0.00  0.00    +0.280 C 
ENDBRANCH  22  24
ENDBRANCH   3  22
TORSDOF 3
