REMARK  Name = ZINC08797554
REMARK  7 active torsions:
REMARK  status: ('A' for Active; 'I' for Inactive)
REMARK    1  A    between atoms: C_1  and  C_2
REMARK    2  A    between atoms: N_5  and  S_11
REMARK    3  A    between atoms: C_7  and  C_10
REMARK    4  A    between atoms: S_11  and  C_14
REMARK    5  A    between atoms: C_17  and  C_20
REMARK    6  A    between atoms: C_20  and  N_22
REMARK    7  A    between atoms: N_24  and  C_34
REMARK                            x       y       z     vdW  Elec       q    Type
REMARK                         _______ _______ _______ _____ _____    ______ ____
ROOT
ATOM      1  C   UNL     1      -0.094   4.076   1.612  0.00  0.00    +0.106 A 
ATOM      2  C   UNL     1       1.115   3.406   1.555  0.00  0.00    +0.029 A 
ATOM      3  C   UNL     1       1.147   2.056   1.274  0.00  0.00    +0.015 A 
ATOM      4  C   UNL     1      -0.043   1.365   1.046  0.00  0.00    +0.039 A 
ATOM      5  C   UNL     1      -1.259   2.047   1.100  0.00  0.00    +0.015 A 
ATOM      6  C   UNL     1      -1.278   3.396   1.387  0.00  0.00    +0.029 A 
ENDROOT
BRANCH   1   7
ATOM      7  S   UNL     1      -0.127   5.800   1.972  0.00  0.00    +0.061 S 
ATOM      8  O   UNL     1      -1.414   6.079   2.506  0.00  0.00    -0.153 OA
ATOM      9  O   UNL     1       1.071   6.090   2.680  0.00  0.00    -0.153 OA
BRANCH   7  13
ATOM     10  C   UNL     1      -1.074   4.962  -1.708  0.00  0.00    +0.039 C 
ATOM     11  C   UNL     1      -1.077   6.491  -1.669  0.00  0.00    +0.131 C 
ATOM     12  C   UNL     1      -1.242   6.967  -0.221  0.00  0.00    +0.140 C 
ATOM     13  N   UNL     1      -0.029   6.604   0.528  0.00  0.00    -0.172 NA
ATOM     14  C   UNL     1       1.274   6.982  -0.042  0.00  0.00    +0.140 C 
ATOM     15  C   UNL     1       1.318   6.501  -1.501  0.00  0.00    +0.131 C 
ATOM     16  O   UNL     1       0.161   6.984  -2.188  0.00  0.00    -0.371 OA
ATOM     17  C   UNL     1       2.578   7.043  -2.179  0.00  0.00    +0.039 C 
ENDBRANCH   7  13
ENDBRANCH   1   7
BRANCH   4  18
ATOM     18  C   UNL     1      -0.016  -0.084   0.744  0.00  0.00    +0.269 C 
ATOM     19  O   UNL     1       1.048  -0.676   0.692  0.00  0.00    -0.268 OA
BRANCH  18  20
ATOM     20  N   UNL     1      -1.159  -0.743   0.526  0.00  0.00    -0.152 NA
ATOM     21  C   UNL     1      -1.134  -2.044   0.254  0.00  0.00    +0.167 A 
ATOM     22  N   UNL     1      -2.184  -2.875   0.013  0.00  0.00    -0.323 N 
ATOM     23  C   UNL     1      -1.960  -4.213  -0.258  0.00  0.00    +0.076 A 
ATOM     24  C   UNL     1      -0.612  -4.600  -0.246  0.00  0.00    +0.042 A 
ATOM     25  S   UNL     1       0.242  -3.091   0.130  0.00  0.00    -0.052 S 
ATOM     26  C   UNL     1      -0.214  -5.893  -0.489  0.00  0.00    +0.037 A 
ATOM     27  C   UNL     1      -1.166  -6.863  -0.757  0.00  0.00    +0.044 A 
ATOM     28  C   UNL     1      -2.505  -6.510  -0.775  0.00  0.00    +0.042 A 
ATOM     29  C   UNL     1      -2.904  -5.215  -0.532  0.00  0.00    +0.067 A 
ATOM     30 CL   UNL     1      -4.594  -4.818  -0.566  0.00  0.00    -0.081 Cl
ATOM     31 CL   UNL     1      -0.686  -8.502  -1.067  0.00  0.00    -0.083 Cl
ATOM     32  C   UNL     1      -3.552  -2.351   0.036  0.00  0.00    +0.151 C 
ENDBRANCH  18  20
ENDBRANCH   4  18
TORSDOF 4
