REMARK  Name = ZINC36157517
REMARK  10 active torsions:
REMARK  status: ('A' for Active; 'I' for Inactive)
REMARK    1  A    between atoms: C_1  and  C_2
REMARK    2  A    between atoms: C_2  and  C_3
REMARK    3  A    between atoms: C_2  and  C_4
REMARK    4  A    between atoms: C_14  and  C_40
REMARK    5  A    between atoms: C_18  and  C_19
REMARK    6  A    between atoms: C_18  and  C_20
REMARK    7  A    between atoms: C_20  and  N_21
REMARK    8  A    between atoms: N_21  and  C_22
REMARK    9  A    between atoms: N_32  and  C_33
REMARK   10  A    between atoms: C_33  and  C_34
REMARK                            x       y       z     vdW  Elec       q    Type
REMARK                         _______ _______ _______ _____ _____    ______ ____
ROOT
ATOM      1  C   UNL     1       6.442  -3.330  -5.038  0.00  0.00    -0.073 C 
ENDROOT
BRANCH   1  15
ATOM      2  C   UNL     1       1.491   0.772  -1.263  0.00  0.00    -0.045 A 
ATOM      3  C   UNL     1       1.023   1.024  -2.539  0.00  0.00    +0.004 A 
ATOM      4  C   UNL     1       1.623   0.420  -3.625  0.00  0.00    +0.005 A 
ATOM      5  C   UNL     1       2.699  -0.444  -3.449  0.00  0.00    -0.038 A 
ATOM      6  C   UNL     1       3.177  -0.665  -2.181  0.00  0.00    -0.043 A 
ATOM      7  C   UNL     1       2.569  -0.070  -1.086  0.00  0.00    +0.007 A 
ATOM      8  C   UNL     1       4.391  -1.526  -1.942  0.00  0.00    +0.036 C 
ATOM      9  C   UNL     1       5.237  -1.522  -3.225  0.00  0.00    +0.009 C 
ATOM     10  C   UNL     1       4.368  -2.098  -4.346  0.00  0.00    +0.004 C 
ATOM     11  C   UNL     1       3.278  -1.095  -4.692  0.00  0.00    -0.004 C 
ATOM     12  C   UNL     1       3.813   0.037  -5.570  0.00  0.00    +0.011 C 
ATOM     13  C   UNL     1       4.514  -0.514  -6.808  0.00  0.00    +0.001 C 
ATOM     14  C   UNL     1       5.694  -1.378  -6.368  0.00  0.00    +0.005 C 
ATOM     15  C   UNL     1       5.204  -2.554  -5.526  0.00  0.00    -0.044 C 
ATOM     16  C   UNL     1       4.426  -3.531  -6.418  0.00  0.00    +0.009 C 
ATOM     17  C   UNL     1       2.105  -1.788  -5.402  0.00  0.00    +0.016 C 
BRANCH   2  19
ATOM     18  C   UNL     1       0.916   2.940  -0.205  0.00  0.00    +0.012 C 
ATOM     19  C   UNL     1       0.832   1.418  -0.072  0.00  0.00    +0.013 C 
ATOM     20  C   UNL     1      -0.636   0.992  -0.008  0.00  0.00    +0.012 C 
ENDBRANCH   2  19
ENDBRANCH   1  15
BRANCH   1  21
ATOM     21  N   UNL     1       7.237  -3.762  -6.195  0.00  0.00    +0.394 N 
ATOM     22  H   UNL     1       6.653  -4.290  -6.826  0.00  0.00    -0.083 HD
ATOM     23  H   UNL     1       7.603  -2.952  -6.673  0.00  0.00    -0.083 HD
BRANCH  21  24
ATOM     24  C   UNL     1       8.350  -4.605  -5.737  0.00  0.00    +0.051 C 
ATOM     25  C   UNL     1       9.354  -3.771  -4.981  0.00  0.00    -0.032 A 
ATOM     26  C   UNL     1       9.278  -3.013  -3.835  0.00  0.00    +0.004 A 
ATOM     27  C   UNL     1      10.399  -2.343  -3.374  0.00  0.00    +0.000 A 
ATOM     28  C   UNL     1      11.596  -2.433  -4.062  0.00  0.00    +0.001 A 
ATOM     29  C   UNL     1      11.683  -3.191  -5.211  0.00  0.00    +0.013 A 
ATOM     30  C   UNL     1      10.558  -3.869  -5.683  0.00  0.00    +0.040 A 
ATOM     31  C   UNL     1      10.340  -4.738  -6.855  0.00  0.00    +0.246 C 
ATOM     32  O   UNL     1      11.192  -5.028  -7.673  0.00  0.00    -0.270 OA
ATOM     33  N   UNL     1       9.065  -5.166  -6.889  0.00  0.00    -0.305 N 
BRANCH  33  34
ATOM     34  C   UNL     1       8.485  -6.045  -7.907  0.00  0.00    +0.138 C 
BRANCH  34  35
ATOM     35  C   UNL     1       8.029  -5.208  -9.104  0.00  0.00    +0.136 C 
ATOM     36  C   UNL     1       7.343  -6.116 -10.148  0.00  0.00    +0.035 C 
ATOM     37  C   UNL     1       7.857  -5.525 -11.488  0.00  0.00    +0.031 C 
ATOM     38  C   UNL     1       9.286  -5.081 -11.085  0.00  0.00    +0.160 C 
ATOM     39  O   UNL     1       9.164  -4.603  -9.735  0.00  0.00    -0.375 OA
ENDBRANCH  34  35
ENDBRANCH  33  34
ENDBRANCH  21  24
ENDBRANCH   1  21
TORSDOF 6
