REMARK  Name = ZINC22919990
REMARK  6 active torsions:
REMARK  status: ('A' for Active; 'I' for Inactive)
REMARK    1  A    between atoms: C_1  and  C_2
REMARK    2  A    between atoms: C_2  and  C_4
REMARK    3  A    between atoms: C_2  and  N_17
REMARK    4  A    between atoms: N_20  and  C_23
REMARK    5  A    between atoms: C_23  and  C_24
REMARK    6  A    between atoms: C_23  and  C_31
REMARK                            x       y       z     vdW  Elec       q    Type
REMARK                         _______ _______ _______ _____ _____    ______ ____
ROOT
ATOM      1  N   UNL     1       0.746  -0.488   1.173  0.00  0.00    +0.389 N 
ATOM      2  C   UNL     1       0.002  -0.004   0.002  0.00  0.00    -0.062 C 
ATOM      3  C   UNL     1      -0.019   1.526   0.010  0.00  0.00    +0.067 C 
ATOM      4  N   UNL     1       1.361   2.032   0.000  0.00  0.00    -0.295 NA
ATOM      5  C   UNL     1       2.105   1.549   1.171  0.00  0.00    +0.067 C 
ATOM      6  C   UNL     1       2.126   0.018   1.163  0.00  0.00    -0.062 C 
ATOM      7  H   UNL     1       0.249  -0.101   2.075  0.00  0.00    -0.081 HD
ENDROOT
BRANCH   1   9
ATOM      8  C   UNL     1       1.580  -2.531   0.112  0.00  0.00    -0.004 C 
ATOM      9  C   UNL     1       0.724  -1.955   1.242  0.00  0.00    +0.017 C 
BRANCH   9  10
ATOM     10  C   UNL     1       1.278  -2.404   2.570  0.00  0.00    +0.206 C 
ATOM     11  O   UNL     1       1.653  -1.583   3.379  0.00  0.00    -0.277 OA
ATOM     12  N   UNL     1       1.355  -3.719   2.858  0.00  0.00    -0.262 N 
ATOM     13  C   UNL     1       0.901  -4.734   1.896  0.00  0.00    +0.209 C 
ATOM     14  C   UNL     1       0.147  -5.809   2.629  0.00  0.00    +0.235 C 
ATOM     15  O   UNL     1      -0.727  -6.424   2.056  0.00  0.00    -0.274 OA
ATOM     16  N   UNL     1       0.427  -6.094   3.915  0.00  0.00    -0.283 N 
ATOM     17  C   UNL     1       1.396  -5.366   4.614  0.00  0.00    +0.055 A 
ATOM     18  C   UNL     1       1.866  -4.162   4.088  0.00  0.00    +0.058 A 
ATOM     19  C   UNL     1       2.818  -3.428   4.771  0.00  0.00    +0.025 A 
ATOM     20  C   UNL     1       3.306  -3.894   5.980  0.00  0.00    +0.002 A 
ATOM     21  C   UNL     1       2.844  -5.088   6.502  0.00  0.00    +0.002 A 
ATOM     22  C   UNL     1       1.891  -5.825   5.824  0.00  0.00    +0.025 A 
ATOM     23  H   UNL     1      -0.109  -6.907   4.427  0.00  0.00    +0.155 HD
ENDBRANCH   9  10
ENDBRANCH   1   9
BRANCH   4  24
ATOM     24  C   UNL     1       1.383   3.500  -0.069  0.00  0.00    +0.117 C 
BRANCH  24  25
ATOM     25  C   UNL     1       2.804   3.987   0.046  0.00  0.00    -0.026 A 
ATOM     26  C   UNL     1       3.822   3.303  -0.592  0.00  0.00    +0.008 A 
ATOM     27  C   UNL     1       5.126   3.751  -0.491  0.00  0.00    +0.038 A 
ATOM     28  C   UNL     1       5.413   4.880   0.258  0.00  0.00    +0.123 A 
ATOM     29  C   UNL     1       4.393   5.561   0.900  0.00  0.00    +0.038 A 
ATOM     30  C   UNL     1       3.090   5.114   0.794  0.00  0.00    +0.008 A 
ATOM     31  F   UNL     1       6.688   5.316   0.361  0.00  0.00    -0.205 F 
ENDBRANCH  24  25
BRANCH  24  32
ATOM     32  C   UNL     1       0.802   3.950  -1.385  0.00  0.00    -0.026 A 
ATOM     33  C   UNL     1       1.102   3.259  -2.544  0.00  0.00    +0.008 A 
ATOM     34  C   UNL     1       0.567   3.668  -3.751  0.00  0.00    +0.038 A 
ATOM     35  C   UNL     1      -0.262   4.776  -3.799  0.00  0.00    +0.123 A 
ATOM     36  C   UNL     1      -0.557   5.470  -2.638  0.00  0.00    +0.038 A 
ATOM     37  C   UNL     1      -0.025   5.056  -1.432  0.00  0.00    +0.008 A 
ATOM     38  F   UNL     1      -0.782   5.180  -4.979  0.00  0.00    -0.205 F 
ENDBRANCH  24  32
ENDBRANCH   4  24
TORSDOF 5
