REMARK  Name = ZINC09087922
REMARK  4 active torsions:
REMARK  status: ('A' for Active; 'I' for Inactive)
REMARK    1  A    between atoms: C_1  and  C_2
REMARK    2  A    between atoms: C_7  and  C_8
REMARK    3  A    between atoms: N_24  and  C_27
REMARK    4  A    between atoms: C_31  and  N_33
REMARK                            x       y       z     vdW  Elec       q    Type
REMARK                         _______ _______ _______ _____ _____    ______ ____
ROOT
ATOM      1  C   UNL     1      -1.274   7.528  -0.646  0.00  0.00    +0.044 C 
ATOM      2  C   UNL     1      -0.559   6.260  -0.257  0.00  0.00    -0.046 A 
ATOM      3  C   UNL     1      -1.282   5.180   0.217  0.00  0.00    +0.004 A 
ATOM      4  C   UNL     1      -0.626   4.015   0.574  0.00  0.00    +0.005 A 
ATOM      5  C   UNL     1       0.743   3.933   0.457  0.00  0.00    -0.027 A 
ATOM      6  C   UNL     1       1.481   5.012  -0.017  0.00  0.00    +0.039 A 
ATOM      7  C   UNL     1       0.813   6.181  -0.375  0.00  0.00    -0.026 A 
ATOM      8  C   UNL     1       1.591   7.363  -0.892  0.00  0.00    +0.046 C 
ATOM      9  N   UNL     1       2.841   4.694  -0.044  0.00  0.00    -0.286 N 
ATOM     10  C   UNL     1       3.077   3.441   0.392  0.00  0.00    +0.212 C 
ATOM     11  O   UNL     1       4.158   2.897   0.479  0.00  0.00    -0.277 OA
ATOM     12  C   UNL     1       1.742   2.848   0.749  0.00  0.00    +0.053 C 
ATOM     13  C   UNL     1       1.693   2.421   2.220  0.00  0.00    +0.089 C 
ATOM     14  C   UNL     1       1.956   0.890   2.196  0.00  0.00    +0.074 C 
ATOM     15  C   UNL     1       2.151   0.541   0.709  0.00  0.00    -0.054 C 
ATOM     16  C   UNL     1       0.023   1.324  -0.002  0.00  0.00    -0.076 C 
ATOM     17  C   UNL     1      -0.122  -0.183   0.267  0.00  0.00    -0.020 C 
ATOM     18  C   UNL     1       1.323  -0.718   0.370  0.00  0.00    -0.016 C 
ATOM     19  C   UNL     1       3.275   0.751   2.921  0.00  0.00    +0.228 C 
ATOM     20  O   UNL     1       3.853  -0.293   3.132  0.00  0.00    -0.275 OA
ATOM     21  N   UNL     1       3.705   1.962   3.296  0.00  0.00    -0.210 N 
ATOM     22  C   UNL     1       2.896   2.970   2.952  0.00  0.00    +0.229 C 
ATOM     23  O   UNL     1       3.097   4.142   3.191  0.00  0.00    -0.275 OA
ATOM     24  H   UNL     1       3.534   5.303  -0.341  0.00  0.00    +0.155 HD
ATOM     25  N   UNL     1       1.475   1.617   0.008  0.00  0.00    +0.395 N 
ATOM     26  H   UNL     1       1.824   1.700  -0.954  0.00  0.00    -0.079 HD
ENDROOT
BRANCH  21  27
ATOM     27  C   UNL     1       4.907   2.158   3.992  0.00  0.00    +0.046 A 
ATOM     28  C   UNL     1       4.884   2.607   5.306  0.00  0.00    +0.025 A 
ATOM     29  C   UNL     1       6.068   2.798   5.990  0.00  0.00    +0.024 A 
ATOM     30  C   UNL     1       7.277   2.542   5.367  0.00  0.00    +0.071 A 
ATOM     31  C   UNL     1       7.303   2.094   4.058  0.00  0.00    +0.146 A 
ATOM     32  C   UNL     1       6.120   1.897   3.372  0.00  0.00    +0.058 A 
ATOM     33 CL   UNL     1       8.764   2.783   6.230  0.00  0.00    -0.081 Cl
BRANCH  31  34
ATOM     34  N   UNL     1       8.598   1.821   3.395  0.00  0.00    +0.058 N 
ATOM     35  O   UNL     1       8.620   1.426   2.243  0.00  0.00    -0.126 OA
ATOM     36  O   UNL     1       9.640   1.990   4.002  0.00  0.00    -0.126 OA
ENDBRANCH  31  34
ENDBRANCH  21  27
TORSDOF 2
