REMARK  Name = ZINC06077676
REMARK  11 active torsions:
REMARK  status: ('A' for Active; 'I' for Inactive)
REMARK    1  A    between atoms: C_1  and  C_2
REMARK    2  A    between atoms: C_2  and  C_3
REMARK    3  A    between atoms: C_3  and  C_4
REMARK    4  A    between atoms: C_3  and  C_5
REMARK    5  A    between atoms: C_3  and  N_6
REMARK    6  A    between atoms: C_7  and  C_11
REMARK    7  A    between atoms: C_11  and  C_13
REMARK    8  A    between atoms: C_11  and  N_71
REMARK    9  A    between atoms: C_17  and  C_26
REMARK   10  A    between atoms: C_18  and  C_25
REMARK   11  A    between atoms: N_29  and  C_32
REMARK                            x       y       z     vdW  Elec       q    Type
REMARK                         _______ _______ _______ _____ _____    ______ ____
ROOT
ATOM      1  C   UNL     1      -4.609   3.808  -0.098  0.00  0.00    +0.039 C 
ENDROOT
BRANCH   1   2
ATOM      2  C   UNL     1      -3.280   3.134  -0.322  0.00  0.00    +0.011 A 
ATOM      3  C   UNL     1      -2.161   3.883  -0.482  0.00  0.00    +0.017 A 
ATOM      4  C   UNL     1      -0.885   3.198  -0.699  0.00  0.00    -0.001 A 
ATOM      5  C   UNL     1       0.303   3.916  -0.870  0.00  0.00    +0.013 A 
ATOM      6  C   UNL     1       1.476   3.247  -1.071  0.00  0.00    -0.047 A 
ATOM      7  C   UNL     1       1.501   1.859  -1.106  0.00  0.00    -0.046 A 
ATOM      8  C   UNL     1       0.343   1.131  -0.940  0.00  0.00    +0.030 A 
ATOM      9  C   UNL     1      -0.865   1.791  -0.739  0.00  0.00    +0.049 A 
ATOM     10  N   UNL     1      -2.037   1.087  -0.563  0.00  0.00    -0.322 N 
ATOM     11  H   UNL     1      -2.020   0.087  -0.583  0.00  0.00    +0.169 HD
ATOM     12  C   UNL     1      -3.204   1.725  -0.365  0.00  0.00    +0.251 A 
ATOM     13  O   UNL     1      -4.222   1.071  -0.219  0.00  0.00    -0.268 OA
ATOM     14  C   UNL     1       2.807   1.142  -1.329  0.00  0.00    +0.044 C 
ATOM     15  C   UNL     1       2.756   4.021  -1.256  0.00  0.00    +0.044 C 
ENDBRANCH   1   2
BRANCH   1  21
ATOM     16  C   UNL     1      -6.557   3.861   1.340  0.00  0.00    -0.058 C 
ATOM     17  C   UNL     1      -7.187   3.240   2.589  0.00  0.00    +0.086 C 
ATOM     18  N   UNL     1      -6.324   3.499   3.750  0.00  0.00    -0.333 N 
ATOM     19  C   UNL     1      -4.985   2.930   3.546  0.00  0.00    +0.086 C 
ATOM     20  C   UNL     1      -4.355   3.551   2.297  0.00  0.00    -0.058 C 
ATOM     21  N   UNL     1      -5.220   3.264   1.134  0.00  0.00    +0.391 N 
ATOM     22  H   UNL     1      -5.321   2.247   1.035  0.00  0.00    -0.080 HD
BRANCH  18  23
ATOM     23  C   UNL     1      -6.903   3.008   4.923  0.00  0.00    +0.030 A 
ATOM     24  C   UNL     1      -6.212   2.098   5.713  0.00  0.00    +0.023 A 
ATOM     25  C   UNL     1      -6.785   1.618   6.874  0.00  0.00    +0.002 A 
ATOM     26  C   UNL     1      -8.050   2.035   7.245  0.00  0.00    +0.000 A 
ATOM     27  C   UNL     1      -8.743   2.936   6.459  0.00  0.00    +0.002 A 
ATOM     28  C   UNL     1      -8.174   3.424   5.299  0.00  0.00    +0.023 A 
ENDBRANCH  18  23
ENDBRANCH   1  21
BRANCH   1  30
ATOM     29  N   UNL     1      -5.935   4.406  -2.192  0.00  0.00    -0.225 N 
ATOM     30  C   UNL     1      -5.519   3.525  -1.264  0.00  0.00    +0.143 A 
ATOM     31  N   UNL     1      -6.056   2.370  -1.575  0.00  0.00    -0.115 NA
ATOM     32  N   UNL     1      -6.770   2.536  -2.635  0.00  0.00    -0.023 NA
ATOM     33  N   UNL     1      -6.697   3.764  -3.012  0.00  0.00    -0.043 NA
BRANCH  29  34
ATOM     34  C   UNL     1      -5.587   5.828  -2.260  0.00  0.00    +0.061 C 
ATOM     35  C   UNL     1      -6.118   6.542  -1.015  0.00  0.00    +0.036 C 
ATOM     36  C   UNL     1      -4.066   5.978  -2.324  0.00  0.00    +0.036 C 
BRANCH  34  38
ATOM     37  C   UNL     1      -5.851   7.932  -3.580  0.00  0.00    +0.006 C 
ATOM     38  C   UNL     1      -6.214   6.448  -3.510  0.00  0.00    +0.026 C 
ENDBRANCH  34  38
ENDBRANCH  29  34
ENDBRANCH   1  30
TORSDOF 6
