REMARK  Name = ZINC36800529
REMARK  7 active torsions:
REMARK  status: ('A' for Active; 'I' for Inactive)
REMARK    1  A    between atoms: C_1  and  C_2
REMARK    2  A    between atoms: C_2  and  C_3
REMARK    3  A    between atoms: C_3  and  C_26
REMARK    4  A    between atoms: N_6  and  C_10
REMARK    5  A    between atoms: C_10  and  C_11
REMARK    6  A    between atoms: C_13  and  O_14
REMARK    7  A    between atoms: C_23  and  C_25
REMARK                            x       y       z     vdW  Elec       q    Type
REMARK                         _______ _______ _______ _____ _____    ______ ____
ROOT
ATOM      1  C   UNL     1       0.764   1.675  -4.647  0.00  0.00    +0.154 C 
ENDROOT
BRANCH   1   2
ATOM      2  C   UNL     1       0.346   3.030  -4.136  0.00  0.00    -0.012 A 
ATOM      3  C   UNL     1      -0.965   3.276  -3.779  0.00  0.00    +0.093 A 
ATOM      4  C   UNL     1      -1.330   4.530  -3.311  0.00  0.00    +0.285 A 
ATOM      5  O   UNL     1      -0.436   5.518  -3.195  0.00  0.00    -0.425 OA
ATOM      6  C   UNL     1       0.857   5.332  -3.530  0.00  0.00    +0.141 A 
ATOM      7  C   UNL     1       1.287   4.074  -4.007  0.00  0.00    +0.022 A 
ATOM      8  C   UNL     1       2.635   3.874  -4.352  0.00  0.00    +0.014 A 
ATOM      9  C   UNL     1       3.526   4.892  -4.221  0.00  0.00    +0.024 A 
ATOM     10  C   UNL     1       3.109   6.146  -3.741  0.00  0.00    +0.037 A 
ATOM     11  C   UNL     1       1.772   6.362  -3.405  0.00  0.00    +0.070 A 
ATOM     12  N   UNL     1       4.011   7.157  -3.614  0.00  0.00    -0.286 N 
ATOM     13  C   UNL     1       3.717   8.215  -2.885  0.00  0.00    +0.214 C 
ATOM     14  O   UNL     1       2.692   8.236  -2.227  0.00  0.00    -0.276 OA
ATOM     15  C   UNL     1       4.650   9.399  -2.864  0.00  0.00    +0.109 C 
ATOM     16  H   UNL     1       4.871   7.099  -4.061  0.00  0.00    +0.155 HD
BRANCH   4  17
ATOM     17  O   UNL     1      -2.612   4.757  -2.966  0.00  0.00    -0.480 OA
ATOM     18  H   UNL     1      -2.782   5.655  -2.650  0.00  0.00    +0.295 HD
ENDBRANCH   4  17
ENDBRANCH   1   2
BRANCH   1  22
ATOM     19  C   UNL     1       0.887  -0.715  -1.808  0.00  0.00    +0.138 C 
ATOM     20  C   UNL     1       0.142   0.006  -2.913  0.00  0.00    +0.251 C 
ATOM     21  O   UNL     1      -1.031  -0.103  -3.198  0.00  0.00    -0.272 OA
ATOM     22  N   UNL     1       1.055   0.795  -3.514  0.00  0.00    -0.220 N 
ATOM     23  C   UNL     1       2.261   0.673  -2.947  0.00  0.00    +0.310 C 
ATOM     24  O   UNL     1       3.245   1.284  -3.315  0.00  0.00    -0.252 OA
ATOM     25  N   UNL     1       2.263  -0.201  -1.925  0.00  0.00    -0.281 N 
ATOM     26  H   UNL     1       3.022  -0.445  -1.372  0.00  0.00    +0.152 HD
BRANCH  19  27
ATOM     27  C   UNL     1       0.858  -2.206  -2.029  0.00  0.00    -0.015 A 
ATOM     28  C   UNL     1      -0.138  -2.970  -1.450  0.00  0.00    +0.007 A 
ATOM     29  C   UNL     1      -0.165  -4.337  -1.653  0.00  0.00    +0.020 A 
ATOM     30  C   UNL     1       0.804  -4.940  -2.434  0.00  0.00    +0.041 A 
ATOM     31  C   UNL     1       1.801  -4.174  -3.013  0.00  0.00    +0.020 A 
ATOM     32  C   UNL     1       1.824  -2.807  -2.814  0.00  0.00    +0.007 A 
ATOM     33 CL   UNL     1       0.771  -6.657  -2.688  0.00  0.00    -0.084 Cl
ENDBRANCH  19  27
BRANCH  19  35
ATOM     34  C   UNL     1       0.288   1.156  -0.264  0.00  0.00    +0.007 C 
ATOM     35  C   UNL     1       0.296  -0.363  -0.441  0.00  0.00    +0.037 C 
ENDBRANCH  19  35
ENDBRANCH   1  22
TORSDOF 5
