REMARK  Name = ZINC14584364
REMARK  9 active torsions:
REMARK  status: ('A' for Active; 'I' for Inactive)
REMARK    1  A    between atoms: C_1  and  C_2
REMARK    2  A    between atoms: C_2  and  N_3
REMARK    3  A    between atoms: N_3  and  C_4
REMARK    4  A    between atoms: C_5  and  N_20
REMARK    5  A    between atoms: N_6  and  C_13
REMARK    6  A    between atoms: C_13  and  C_14
REMARK    7  A    between atoms: C_21  and  C_23
REMARK    8  A    between atoms: C_26  and  C_28
REMARK    9  A    between atoms: C_32  and  C_34
REMARK                            x       y       z     vdW  Elec       q    Type
REMARK                         _______ _______ _______ _____ _____    ______ ____
ROOT
ATOM      1  N   UNL     1       2.759   8.426   0.095  0.00  0.00    -0.258 N 
ATOM      2  C   UNL     1       1.429   8.439  -0.123  0.00  0.00    +0.286 C 
ATOM      3  O   UNL     1       0.813   9.488  -0.074  0.00  0.00    -0.266 OA
ENDROOT
BRANCH   1   4
ATOM      4  C   UNL     1       3.425   9.616   0.458  0.00  0.00    +0.140 A 
ATOM      5  C   UNL     1       3.505  10.672  -0.426  0.00  0.00    +0.128 A 
ATOM      6  N   UNL     1       4.157  11.821  -0.041  0.00  0.00    -0.276 N 
ATOM      7  C   UNL     1       4.718  11.909   1.179  0.00  0.00    +0.331 A 
ATOM      8  O   UNL     1       5.294  12.932   1.498  0.00  0.00    -0.246 OA
ATOM      9  N   UNL     1       4.655  10.888   2.051  0.00  0.00    -0.273 N 
ATOM     10  H   UNL     1       5.081  10.979   2.951  0.00  0.00    +0.173 HD
ATOM     11  C   UNL     1       4.024   9.742   1.726  0.00  0.00    +0.277 A 
ATOM     12  O   UNL     1       3.971   8.822   2.524  0.00  0.00    -0.266 OA
BRANCH   5  13
ATOM     13  N   UNL     1       2.937  10.580  -1.673  0.00  0.00    -0.343 N 
ATOM     14  H   UNL     1       2.427   9.792  -1.917  0.00  0.00    +0.144 HD
ATOM     15  H   UNL     1       3.044  11.304  -2.310  0.00  0.00    +0.144 HD
ENDBRANCH   5  13
BRANCH   6  16
ATOM     16  C   UNL     1       4.246  12.953  -0.967  0.00  0.00    +0.163 C 
BRANCH  16  17
ATOM     17  C   UNL     1       5.491  12.820  -1.806  0.00  0.00    -0.028 A 
ATOM     18  C   UNL     1       6.677  13.384  -1.376  0.00  0.00    +0.005 A 
ATOM     19  C   UNL     1       7.820  13.257  -2.143  0.00  0.00    +0.000 A 
ATOM     20  C   UNL     1       7.774  12.576  -3.345  0.00  0.00    +0.000 A 
ATOM     21  C   UNL     1       6.586  12.017  -3.777  0.00  0.00    +0.000 A 
ATOM     22  C   UNL     1       5.444  12.138  -3.007  0.00  0.00    +0.005 A 
ENDBRANCH  16  17
ENDBRANCH   6  16
ENDBRANCH   1   4
BRANCH   2  23
ATOM     23  C   UNL     1       0.723   7.189  -0.417  0.00  0.00    +0.190 A 
ATOM     24  C   UNL     1      -0.641   7.039  -0.536  0.00  0.00    +0.055 A 
ATOM     25  C   UNL     1      -0.876   5.689  -0.821  0.00  0.00    +0.050 A 
ATOM     26  C   UNL     1       0.341   5.071  -0.864  0.00  0.00    +0.136 A 
ATOM     27  O   UNL     1       1.296   5.983  -0.614  0.00  0.00    -0.450 OA
BRANCH  26  28
ATOM     28  C   UNL     1       0.569   3.637  -1.135  0.00  0.00    +0.018 A 
ATOM     29  C   UNL     1      -0.514   2.788  -1.374  0.00  0.00    +0.011 A 
ATOM     30  C   UNL     1      -0.293   1.451  -1.631  0.00  0.00    +0.001 A 
ATOM     31  C   UNL     1       0.996   0.948  -1.641  0.00  0.00    +0.012 A 
ATOM     32  C   UNL     1       2.073   1.784  -1.405  0.00  0.00    +0.055 A 
ATOM     33  C   UNL     1       1.867   3.125  -1.152  0.00  0.00    +0.024 A 
BRANCH  32  34
ATOM     34  C   UNL     1       3.474   1.229  -1.425  0.00  0.00    +0.417 C 
ATOM     35  F   UNL     1       3.429  -0.142  -1.700  0.00  0.00    -0.166 F 
ATOM     36  F   UNL     1       4.220   1.879  -2.414  0.00  0.00    -0.166 F 
ATOM     37  F   UNL     1       4.074   1.435  -0.178  0.00  0.00    -0.166 F 
ENDBRANCH  32  34
ENDBRANCH  26  28
ENDBRANCH   2  23
BRANCH   1  39
ATOM     38  C   UNL     1       3.859   6.954  -1.518  0.00  0.00    +0.025 C 
ATOM     39  C   UNL     1       3.512   7.178  -0.045  0.00  0.00    +0.111 C 
ENDBRANCH   1  39
TORSDOF 8
