REMARK  Name = ZINC05030829
REMARK  9 active torsions:
REMARK  status: ('A' for Active; 'I' for Inactive)
REMARK    1  A    between atoms: C_1  and  O_2
REMARK    2  A    between atoms: O_2  and  C_3
REMARK    3  A    between atoms: C_3  and  C_4
REMARK    4  A    between atoms: C_4  and  C_5
REMARK    5  A    between atoms: C_5  and  N_6
REMARK    6  A    between atoms: C_7  and  C_8
REMARK    7  A    between atoms: C_9  and  C_24
REMARK    8  A    between atoms: N_12  and  C_15
REMARK    9  A    between atoms: C_18  and  N_21
REMARK                            x       y       z     vdW  Elec       q    Type
REMARK                         _______ _______ _______ _____ _____    ______ ____
ROOT
ATOM      1  C   UNL     1      -2.891  -6.423   0.942  0.00  0.00    +0.082 A 
ATOM      2  C   UNL     1      -2.974  -7.254   2.059  0.00  0.00    +0.077 A 
ATOM      3  N   UNL     1      -2.497  -8.484   1.706  0.00  0.00    -0.289 N 
ATOM      4  H   UNL     1      -2.441  -9.253   2.295  0.00  0.00    +0.187 HD
ATOM      5  N   UNL     1      -2.100  -8.466   0.365  0.00  0.00    -0.219 N 
ATOM      6  C   UNL     1      -2.326  -7.238  -0.142  0.00  0.00    +0.281 A 
ATOM      7  O   UNL     1      -2.102  -6.872  -1.281  0.00  0.00    -0.265 OA
ENDROOT
BRANCH   5   8
ATOM      8  C   UNL     1      -1.563  -9.549  -0.337  0.00  0.00    +0.067 A 
ATOM      9  C   UNL     1      -1.389 -10.773   0.296  0.00  0.00    +0.030 A 
ATOM     10  C   UNL     1      -0.857 -11.840  -0.401  0.00  0.00    +0.035 A 
ATOM     11  C   UNL     1      -0.499 -11.691  -1.728  0.00  0.00    +0.126 A 
ATOM     12  C   UNL     1      -0.670 -10.474  -2.362  0.00  0.00    +0.035 A 
ATOM     13  C   UNL     1      -1.207  -9.405  -1.672  0.00  0.00    +0.030 A 
BRANCH  11  14
ATOM     14  N   UNL     1       0.071 -12.837  -2.472  0.00  0.00    +0.056 N 
ATOM     15  O   UNL     1       0.222 -13.902  -1.919  0.00  0.00    -0.126 OA
ATOM     16  O   UNL     1       0.385 -12.709  -3.632  0.00  0.00    -0.126 OA
ENDBRANCH  11  14
ENDBRANCH   5   8
BRANCH   2  17
ATOM     17  C   UNL     1      -3.487  -6.872   3.388  0.00  0.00    +0.000 A 
ATOM     18  C   UNL     1      -4.388  -7.703   4.058  0.00  0.00    +0.010 A 
ATOM     19  C   UNL     1      -4.864  -7.339   5.301  0.00  0.00    +0.001 A 
ATOM     20  C   UNL     1      -4.451  -6.154   5.883  0.00  0.00    +0.000 A 
ATOM     21  C   UNL     1      -3.558  -5.325   5.225  0.00  0.00    +0.001 A 
ATOM     22  C   UNL     1      -3.070  -5.679   3.985  0.00  0.00    +0.010 A 
ENDBRANCH   2  17
BRANCH   1  24
ATOM     23  N   UNL     1      -3.067  -4.336  -0.220  0.00  0.00    -0.389 N 
ATOM     24  C   UNL     1      -3.293  -5.016   0.863  0.00  0.00    +0.093 C 
ATOM     25  H   UNL     1      -2.631  -4.759  -0.977  0.00  0.00    +0.159 HD
BRANCH  23  26
ATOM     26  C   UNL     1      -3.469  -2.930  -0.299  0.00  0.00    +0.114 C 
BRANCH  26  27
ATOM     27  C   UNL     1      -2.224  -2.049  -0.425  0.00  0.00    +0.049 C 
BRANCH  27  28
ATOM     28  C   UNL     1      -2.644  -0.581  -0.507  0.00  0.00    +0.161 C 
BRANCH  28  30
ATOM     29  C   UNL     1      -1.765   1.640  -0.709  0.00  0.00    +0.193 C 
ATOM     30  O   UNL     1      -1.482   0.242  -0.624  0.00  0.00    -0.383 OA
ENDBRANCH  28  30
ENDBRANCH  27  28
ENDBRANCH  26  27
ENDBRANCH  23  26
ENDBRANCH   1  24
TORSDOF 8
