REMARK  Name = ZINC02840301
REMARK  9 active torsions:
REMARK  status: ('A' for Active; 'I' for Inactive)
REMARK    1  A    between atoms: C_1  and  C_2
REMARK    2  A    between atoms: C_2  and  O_3
REMARK    3  A    between atoms: O_3  and  C_4
REMARK    4  A    between atoms: C_4  and  C_6
REMARK    5  A    between atoms: C_10  and  N_11
REMARK    6  A    between atoms: C_12  and  C_14
REMARK    7  A    between atoms: C_14  and  N_62
REMARK    8  A    between atoms: C_15  and  N_62
REMARK    9  A    between atoms: C_27  and  N_30
REMARK                            x       y       z     vdW  Elec       q    Type
REMARK                         _______ _______ _______ _____ _____    ______ ____
ROOT
ATOM      1  N   UNL     1       2.778   3.508  -0.965  0.00  0.00    +0.390 N 
ATOM      2  H   UNL     1       3.377   2.675  -0.970  0.00  0.00    -0.084 HD
ATOM      3  H   UNL     1       2.383   3.651  -1.902  0.00  0.00    -0.084 HD
ENDROOT
BRANCH   1   4
ATOM      4  C   UNL     1       1.680   3.312   0.001  0.00  0.00    -0.023 C 
ATOM      5  C   UNL     1       0.472   4.163  -0.407  0.00  0.00    -0.009 C 
ATOM      6  C   UNL     1      -0.740   3.766   0.440  0.00  0.00    +0.003 C 
ATOM      7  C   UNL     1      -1.210   2.366   0.032  0.00  0.00    +0.037 C 
ATOM      8  C   UNL     1      -0.018   1.444   0.010  0.00  0.00    -0.021 A 
ATOM      9  C   UNL     1       1.268   1.859  -0.000  0.00  0.00    +0.006 A 
ATOM     10  N   UNL     1       2.105   0.774  -0.013  0.00  0.00    -0.359 N 
ATOM     11  H   UNL     1       3.074   0.818  -0.021  0.00  0.00    +0.166 HD
ATOM     12  C   UNL     1       1.371  -0.377  -0.013  0.00  0.00    +0.047 A 
ATOM     13  C   UNL     1       0.002  -0.004   0.002  0.00  0.00    +0.005 A 
ATOM     14  C   UNL     1      -1.012  -0.967   0.006  0.00  0.00    +0.043 A 
ATOM     15  C   UNL     1      -0.618  -2.282  -0.004  0.00  0.00    +0.127 A 
ATOM     16  C   UNL     1       0.716  -2.651  -0.020  0.00  0.00    +0.035 A 
ATOM     17  C   UNL     1       1.740  -1.720  -0.024  0.00  0.00    +0.028 A 
BRANCH  15  18
ATOM     18  N   UNL     1      -1.654  -3.340  -0.000  0.00  0.00    +0.056 N 
ATOM     19  O   UNL     1      -1.327  -4.513  -0.010  0.00  0.00    -0.126 OA
ATOM     20  O   UNL     1      -2.834  -3.037   0.013  0.00  0.00    -0.126 OA
ENDBRANCH  15  18
ENDBRANCH   1   4
BRANCH   1  21
ATOM     21  C   UNL     1       3.584   4.685  -0.592  0.00  0.00    +0.016 C 
BRANCH  21  23
ATOM     22  N   UNL     1       5.570   5.878  -1.462  0.00  0.00    -0.281 N 
ATOM     23  C   UNL     1       4.696   4.860  -1.595  0.00  0.00    +0.201 C 
ATOM     24  O   UNL     1       4.804   4.086  -2.522  0.00  0.00    -0.278 OA
ATOM     25  H   UNL     1       5.483   6.497  -0.720  0.00  0.00    +0.155 HD
BRANCH  22  30
ATOM     26  C   UNL     1       7.580   7.014  -2.415  0.00  0.00    +0.091 A 
ATOM     27  C   UNL     1       8.543   6.958  -3.502  0.00  0.00    -0.021 A 
ATOM     28  C   UNL     1       8.366   5.944  -4.376  0.00  0.00    -0.004 A 
ATOM     29  S   UNL     1       6.952   5.067  -3.772  0.00  0.00    -0.077 S 
ATOM     30  C   UNL     1       6.592   6.038  -2.384  0.00  0.00    +0.086 A 
ATOM     31  C   UNL     1       9.196   5.638  -5.585  0.00  0.00    +0.043 C 
ATOM     32  C   UNL     1      10.061   6.867  -5.902  0.00  0.00    +0.005 C 
ATOM     33  C   UNL     1      10.731   7.345  -4.610  0.00  0.00    +0.005 C 
ATOM     34  C   UNL     1       9.684   7.953  -3.675  0.00  0.00    +0.037 C 
BRANCH  26  35
ATOM     35  C   UNL     1       7.648   8.060  -1.393  0.00  0.00    +0.342 C 
ATOM     36  O   UNL     1       8.301   7.881  -0.383  0.00  0.00    -0.245 OA
BRANCH  35  37
ATOM     37  O   UNL     1       6.986   9.222  -1.571  0.00  0.00    -0.461 OA
BRANCH  37  39
ATOM     38  C   UNL     1       6.287  11.454  -0.894  0.00  0.00    +0.048 C 
ATOM     39  C   UNL     1       7.098  10.213  -0.517  0.00  0.00    +0.229 C 
ENDBRANCH  37  39
ENDBRANCH  35  37
ENDBRANCH  26  35
ENDBRANCH  22  30
ENDBRANCH  21  23
ENDBRANCH   1  21
TORSDOF 8
