REMARK  Name = ZINC17180630
REMARK  12 active torsions:
REMARK  status: ('A' for Active; 'I' for Inactive)
REMARK    1  A    between atoms: C_1  and  O_2
REMARK    2  A    between atoms: O_2  and  C_3
REMARK    3  A    between atoms: C_5  and  C_12
REMARK    4  A    between atoms: C_7  and  O_10
REMARK    5  A    between atoms: C_8  and  O_9
REMARK    6  A    between atoms: O_10  and  C_11
REMARK    7  A    between atoms: C_22  and  C_24
REMARK    8  A    between atoms: C_26  and  O_33
REMARK    9  A    between atoms: C_27  and  O_32
REMARK   10  A    between atoms: C_28  and  O_30
REMARK   11  A    between atoms: O_30  and  C_31
REMARK   12  A    between atoms: O_33  and  C_34
REMARK                            x       y       z     vdW  Elec       q    Type
REMARK                         _______ _______ _______ _____ _____    ______ ____
ROOT
ATOM      1  C   UNL     1       1.139   3.398   0.076  0.00  0.00    +0.212 C 
ATOM      2  N   UNL     1      -0.315   3.599   0.169  0.00  0.00    -0.302 N 
ATOM      3  C   UNL     1      -0.895   2.388   0.136  0.00  0.00    +0.153 C 
ATOM      4  S   UNL     1      -2.586   2.132   0.224  0.00  0.00    -0.017 S 
ATOM      5  N   UNL     1       0.008   1.404   0.024  0.00  0.00    -0.203 N 
ATOM      6  N   UNL     1       1.304   1.938  -0.018  0.00  0.00    -0.203 N 
ATOM      7  C   UNL     1       2.208   0.954  -0.126  0.00  0.00    +0.153 C 
ATOM      8  S   UNL     1       3.899   1.209  -0.206  0.00  0.00    -0.017 S 
ATOM      9  N   UNL     1       1.627  -0.258  -0.164  0.00  0.00    -0.302 N 
ATOM     10  C   UNL     1       0.173  -0.056  -0.070  0.00  0.00    +0.212 C 
ATOM     11  H   UNL     1      -0.725   4.617   0.247  0.00  0.00    +0.150 HD
ATOM     12  H   UNL     1       2.037  -1.275  -0.246  0.00  0.00    +0.150 HD
ENDROOT
BRANCH   1  15
ATOM     13  C   UNL     1       2.083   3.939   3.695  0.00  0.00    +0.165 A 
ATOM     14  C   UNL     1       1.455   3.456   2.557  0.00  0.00    +0.056 A 
ATOM     15  C   UNL     1       1.823   3.926   1.310  0.00  0.00    -0.001 A 
ATOM     16  C   UNL     1       2.821   4.875   1.192  0.00  0.00    +0.056 A 
ATOM     17  C   UNL     1       3.449   5.368   2.326  0.00  0.00    +0.165 A 
ATOM     18  C   UNL     1       3.082   4.898   3.581  0.00  0.00    +0.201 A 
BRANCH  13  20
ATOM     19  C   UNL     1       0.685   2.491   4.963  0.00  0.00    +0.277 C 
ATOM     20  O   UNL     1       1.720   3.476   4.921  0.00  0.00    -0.491 OA
ENDBRANCH  13  20
BRANCH  18  21
ATOM     21  O   UNL     1       3.700   5.375   4.696  0.00  0.00    -0.501 OA
ATOM     22  H   UNL     1       4.491   6.134   4.604  0.00  0.00    +0.292 HD
ENDBRANCH  18  21
BRANCH  17  23
ATOM     23  O   UNL     1       4.426   6.307   2.209  0.00  0.00    -0.491 OA
ATOM     24  C   UNL     1       4.751   6.745   0.888  0.00  0.00    +0.277 C 
ENDBRANCH  17  23
ENDBRANCH   1  15
BRANCH  10  25
ATOM     25  C   UNL     1      -0.511  -0.584  -1.305  0.00  0.00    -0.001 A 
ATOM     26  C   UNL     1      -1.500  -1.543  -1.188  0.00  0.00    +0.056 A 
ATOM     27  C   UNL     1      -2.136  -2.027  -2.321  0.00  0.00    +0.165 A 
ATOM     28  C   UNL     1      -1.770  -1.557  -3.576  0.00  0.00    +0.201 A 
ATOM     29  C   UNL     1      -0.771  -0.597  -3.690  0.00  0.00    +0.165 A 
ATOM     30  C   UNL     1      -0.144  -0.113  -2.551  0.00  0.00    +0.056 A 
BRANCH  29  31
ATOM     31  O   UNL     1      -0.409  -0.133  -4.916  0.00  0.00    -0.491 OA
ATOM     32  C   UNL     1       0.625   0.853  -4.957  0.00  0.00    +0.277 C 
ENDBRANCH  29  31
BRANCH  28  33
ATOM     33  O   UNL     1      -2.387  -2.035  -4.691  0.00  0.00    -0.501 OA
ATOM     34  H   UNL     1      -2.096  -1.661  -5.684  0.00  0.00    +0.292 HD
ENDBRANCH  28  33
BRANCH  27  35
ATOM     35  O   UNL     1      -3.113  -2.966  -2.204  0.00  0.00    -0.491 OA
ATOM     36  C   UNL     1      -3.438  -3.404  -0.883  0.00  0.00    +0.277 C 
ENDBRANCH  27  35
ENDBRANCH  10  25
TORSDOF 8
