REMARK  Name = ZINC09121465
REMARK  12 active torsions:
REMARK  status: ('A' for Active; 'I' for Inactive)
REMARK    1  A    between atoms: C_1  and  C_2
REMARK    2  A    between atoms: C_2  and  C_34
REMARK    3  A    between atoms: C_8  and  O_11
REMARK    4  A    between atoms: O_11  and  C_12
REMARK    5  A    between atoms: C_12  and  C_13
REMARK    6  A    between atoms: N_15  and  C_16
REMARK    7  A    between atoms: C_16  and  C_17
REMARK    8  A    between atoms: N_20  and  C_24
REMARK    9  A    between atoms: C_27  and  O_32
REMARK   10  A    between atoms: C_28  and  O_30
REMARK   11  A    between atoms: O_30  and  C_31
REMARK   12  A    between atoms: O_32  and  C_33
REMARK                            x       y       z     vdW  Elec       q    Type
REMARK                         _______ _______ _______ _____ _____    ______ ____
ROOT
ATOM      1  C   UNL     1       4.724   4.020  -0.029  0.00  0.00    +0.251 C 
ATOM      2  O   UNL     1       4.554   5.221  -0.024  0.00  0.00    -0.272 OA
ATOM      3  N   UNL     1       5.974   3.517  -0.043  0.00  0.00    -0.309 N 
ATOM      4  H   UNL     1       6.109   2.556  -0.047  0.00  0.00    +0.149 HD
ENDROOT
BRANCH   1   5
ATOM      5  C   UNL     1       3.537   3.092  -0.020  0.00  0.00    +0.324 C 
BRANCH   5   6
ATOM      6  O   UNL     1       2.332   3.859  -0.005  0.00  0.00    -0.479 OA
BRANCH   6  14
ATOM      7  C   UNL     1      -1.683   5.631   1.981  0.00  0.00    +0.056 C 
ATOM      8  C   UNL     1      -1.644   5.436   0.464  0.00  0.00    +0.109 C 
ATOM      9  C   UNL     1      -2.375   4.134   0.060  0.00  0.00    +0.086 C 
ATOM     10  C   UNL     1      -1.237   3.132   0.032  0.00  0.00    +0.002 A 
ATOM     11  C   UNL     1      -1.218   1.753   0.017  0.00  0.00    +0.007 A 
ATOM     12  C   UNL     1      -0.013   1.076   0.008  0.00  0.00    +0.004 A 
ATOM     13  C   UNL     1       1.174   1.786   0.000  0.00  0.00    +0.049 A 
ATOM     14  C   UNL     1       1.160   3.169   0.004  0.00  0.00    +0.163 A 
ATOM     15  C   UNL     1      -0.055   3.858   0.019  0.00  0.00    +0.166 A 
ATOM     16  O   UNL     1      -0.299   5.198   0.015  0.00  0.00    -0.482 OA
ATOM     17  C   UNL     1      -2.250   6.643  -0.255  0.00  0.00    +0.056 C 
ENDBRANCH   6  14
ENDBRANCH   5   6
ENDBRANCH   1   5
BRANCH   3  18
ATOM     18  C   UNL     1       7.127   4.419  -0.052  0.00  0.00    +0.150 C 
BRANCH  18  19
ATOM     19  C   UNL     1       8.418   3.598  -0.067  0.00  0.00    +0.213 C 
ATOM     20  C   UNL     1       9.647   4.520   0.049  0.00  0.00    +0.163 C 
ATOM     21  N   UNL     1      10.385   4.279  -1.201  0.00  0.00    -0.234 N 
ATOM     22  C   UNL     1       9.717   3.376  -1.932  0.00  0.00    +0.408 C 
ATOM     23  O   UNL     1      10.100   2.988  -3.018  0.00  0.00    -0.226 OA
ATOM     24  O   UNL     1       8.590   2.941  -1.357  0.00  0.00    -0.444 OA
BRANCH  21  25
ATOM     25  C   UNL     1      11.590   4.894  -1.567  0.00  0.00    +0.043 A 
ATOM     26  C   UNL     1      12.181   5.821  -0.720  0.00  0.00    +0.027 A 
ATOM     27  C   UNL     1      13.373   6.423  -1.077  0.00  0.00    +0.051 A 
ATOM     28  C   UNL     1      13.973   6.112  -2.286  0.00  0.00    +0.162 A 
ATOM     29  C   UNL     1      13.380   5.188  -3.140  0.00  0.00    +0.163 A 
ATOM     30  C   UNL     1      12.189   4.580  -2.779  0.00  0.00    +0.073 A 
BRANCH  29  31
ATOM     31  O   UNL     1      13.968   4.882  -4.327  0.00  0.00    -0.491 OA
ATOM     32  C   UNL     1      13.303   3.924  -5.153  0.00  0.00    +0.277 C 
ENDBRANCH  29  31
BRANCH  28  33
ATOM     33  O   UNL     1      15.143   6.711  -2.639  0.00  0.00    -0.491 OA
ATOM     34  C   UNL     1      15.696   7.650  -1.714  0.00  0.00    +0.277 C 
ENDBRANCH  28  33
ENDBRANCH  21  25
ENDBRANCH  18  19
ENDBRANCH   3  18
TORSDOF 8
