REMARK  Name = ZINC05151603
REMARK  5 active torsions:
REMARK  status: ('A' for Active; 'I' for Inactive)
REMARK    1  A    between atoms: C_1  and  C_2
REMARK    2  A    between atoms: C_5  and  C_8
REMARK    3  A    between atoms: C_10  and  C_26
REMARK    4  A    between atoms: N_14  and  C_19
REMARK    5  A    between atoms: C_23  and  C_25
REMARK                            x       y       z     vdW  Elec       q    Type
REMARK                         _______ _______ _______ _____ _____    ______ ____
ROOT
ATOM      1  C   UNL     1       0.600   3.990   0.018  0.00  0.00    +0.163 A 
ATOM      2  N   UNL     1      -0.674   3.631   0.028  0.00  0.00    -0.220 NA
ATOM      3  C   UNL     1      -1.024   2.345   0.029  0.00  0.00    +0.154 A 
ATOM      4  C   UNL     1      -0.017   1.379   0.010  0.00  0.00    +0.117 A 
ATOM      5  C   UNL     1       1.324   1.805  -0.001  0.00  0.00    +0.170 A 
ATOM      6  N   UNL     1       1.586   3.100   0.004  0.00  0.00    -0.208 NA
ATOM      7  N   UNL     1       2.103   0.661  -0.015  0.00  0.00    -0.245 N 
ATOM      8  C   UNL     1       1.287  -0.410  -0.012  0.00  0.00    +0.333 A 
ATOM      9  O   UNL     1       1.654  -1.570  -0.023  0.00  0.00    -0.246 OA
ATOM     10  N   UNL     1       0.002  -0.004   0.002  0.00  0.00    -0.303 N 
ATOM     11  H   UNL     1      -0.776  -0.583   0.007  0.00  0.00    +0.171 HD
ENDROOT
BRANCH   1  16
ATOM     12  C   UNL     1       1.911   9.598   0.037  0.00  0.00    +0.044 C 
ATOM     13  C   UNL     1       1.568   8.130   0.032  0.00  0.00    -0.050 A 
ATOM     14  C   UNL     1       0.243   7.732   0.042  0.00  0.00    +0.004 A 
ATOM     15  C   UNL     1      -0.077   6.390   0.037  0.00  0.00    +0.012 A 
ATOM     16  C   UNL     1       0.937   5.434   0.022  0.00  0.00    +0.019 A 
ATOM     17  C   UNL     1       2.270   5.841   0.018  0.00  0.00    +0.012 A 
ATOM     18  C   UNL     1       2.579   7.186   0.017  0.00  0.00    +0.004 A 
ENDBRANCH   1  16
BRANCH   7  19
ATOM     19  C   UNL     1       3.504   0.624  -0.029  0.00  0.00    +0.053 A 
ATOM     20  C   UNL     1       4.231   1.807  -0.029  0.00  0.00    +0.026 A 
ATOM     21  C   UNL     1       5.611   1.767  -0.043  0.00  0.00    +0.002 A 
ATOM     22  C   UNL     1       6.269   0.550  -0.056  0.00  0.00    +0.003 A 
ATOM     23  C   UNL     1       5.548  -0.629  -0.054  0.00  0.00    -0.048 A 
ATOM     24  C   UNL     1       4.167  -0.595  -0.036  0.00  0.00    +0.029 A 
ATOM     25  C   UNL     1       6.269  -1.952  -0.067  0.00  0.00    +0.044 C 
ENDBRANCH   7  19
BRANCH   3  26
ATOM     26  C   UNL     1      -2.451   1.949   0.047  0.00  0.00    +0.262 C 
ATOM     27  O   UNL     1      -2.756   0.772   0.045  0.00  0.00    -0.269 OA
ATOM     28  N   UNL     1      -3.412   2.893   0.066  0.00  0.00    -0.324 N 
ATOM     29  H   UNL     1      -3.169   3.832   0.069  0.00  0.00    +0.145 HD
ATOM     30  H   UNL     1      -4.347   2.634   0.078  0.00  0.00    +0.145 HD
ENDBRANCH   3  26
TORSDOF 3
