REMARK  Name = ZINC39694266
REMARK  6 active torsions:
REMARK  status: ('A' for Active; 'I' for Inactive)
REMARK    1  A    between atoms: C_4  and  N_34
REMARK    2  A    between atoms: C_5  and  C_7
REMARK    3  A    between atoms: C_7  and  N_8
REMARK    4  A    between atoms: C_9  and  C_11
REMARK    5  A    between atoms: C_22  and  C_24
REMARK    6  A    between atoms: C_29  and  C_30
REMARK                            x       y       z     vdW  Elec       q    Type
REMARK                         _______ _______ _______ _____ _____    ______ ____
ROOT
ATOM      1  C   UNL     1       1.381  -4.657   3.506  0.00  0.00    +0.100 C 
ATOM      2  C   UNL     1       2.845  -4.201   3.697  0.00  0.00    +0.121 C 
ATOM      3  N   UNL     1       3.520  -5.361   4.325  0.00  0.00    -0.296 N 
ATOM      4  C   UNL     1       2.941  -6.540   3.639  0.00  0.00    +0.115 C 
ATOM      5  C   UNL     1       1.449  -6.193   3.467  0.00  0.00    -0.004 C 
ATOM      6  C   UNL     1       0.634  -6.787   4.612  0.00  0.00    -0.010 C 
ATOM      7  C   UNL     1       0.670  -8.315   4.519  0.00  0.00    -0.082 C 
ATOM      8  N   UNL     1       0.118  -8.741   3.227  0.00  0.00    +0.379 N 
ATOM      9  C   UNL     1       0.961  -8.242   2.134  0.00  0.00    -0.082 C 
ATOM     10  C   UNL     1       0.938  -6.711   2.126  0.00  0.00    -0.010 C 
ATOM     11  C   UNL     1       4.451  -5.347   5.300  0.00  0.00    +0.247 C 
ATOM     12  O   UNL     1       4.987  -6.383   5.643  0.00  0.00    -0.270 OA
ATOM     13  H   UNL     1       0.086  -9.749   3.193  0.00  0.00    -0.086 HD
ATOM     14  H   UNL     1      -0.816  -8.374   3.124  0.00  0.00    -0.086 HD
ENDROOT
BRANCH  11  15
ATOM     15  C   UNL     1       4.819  -4.072   5.952  0.00  0.00    +0.049 A 
ATOM     16  C   UNL     1       4.880  -2.895   5.206  0.00  0.00    +0.013 A 
ATOM     17  C   UNL     1       5.223  -1.709   5.821  0.00  0.00    +0.001 A 
ATOM     18  C   UNL     1       5.508  -1.685   7.175  0.00  0.00    +0.001 A 
ATOM     19  C   UNL     1       5.450  -2.849   7.920  0.00  0.00    +0.013 A 
ATOM     20  C   UNL     1       5.102  -4.040   7.319  0.00  0.00    +0.067 A 
BRANCH  20  21
ATOM     21  C   UNL     1       5.033  -5.306   8.134  0.00  0.00    +0.418 C 
ATOM     22  F   UNL     1       5.355  -5.021   9.465  0.00  0.00    -0.166 F 
ATOM     23  F   UNL     1       3.738  -5.832   8.070  0.00  0.00    -0.166 F 
ATOM     24  F   UNL     1       5.941  -6.239   7.623  0.00  0.00    -0.166 F 
ENDBRANCH  20  21
ENDBRANCH  11  15
BRANCH   1  26
ATOM     25  N   UNL     1      -0.488  -3.872   2.089  0.00  0.00    -0.311 N 
ATOM     26  C   UNL     1       0.831  -4.123   2.209  0.00  0.00    +0.218 C 
ATOM     27  O   UNL     1       1.574  -3.920   1.272  0.00  0.00    -0.275 OA
ATOM     28  H   UNL     1      -1.083  -4.035   2.838  0.00  0.00    +0.149 HD
BRANCH  25  29
ATOM     29  C   UNL     1      -1.024  -3.353   0.828  0.00  0.00    +0.141 C 
BRANCH  29  34
ATOM     30  C   UNL     1      -4.746  -3.927   0.557  0.00  0.00    +0.000 A 
ATOM     31  C   UNL     1      -5.249  -2.806   1.191  0.00  0.00    +0.002 A 
ATOM     32  C   UNL     1      -4.389  -1.858   1.709  0.00  0.00    +0.023 A 
ATOM     33  C   UNL     1      -3.015  -2.033   1.593  0.00  0.00    +0.035 A 
ATOM     34  C   UNL     1      -2.513  -3.160   0.957  0.00  0.00    -0.009 A 
ATOM     35  C   UNL     1      -3.379  -4.104   0.440  0.00  0.00    +0.007 A 
BRANCH  33  36
ATOM     36  N   UNL     1      -2.142  -1.076   2.116  0.00  0.00    -0.325 N 
ATOM     37  C   UNL     1      -1.688   0.061   1.300  0.00  0.00    +0.133 C 
ATOM     38  C   UNL     1      -1.912   1.350   2.099  0.00  0.00    +0.178 C 
ATOM     39  O   UNL     1      -1.312   1.214   3.390  0.00  0.00    -0.377 OA
ATOM     40  C   UNL     1      -1.875   0.173   4.191  0.00  0.00    +0.178 C 
ATOM     41  C   UNL     1      -1.654  -1.173   3.501  0.00  0.00    +0.133 C 
ENDBRANCH  33  36
ENDBRANCH  29  34
ENDBRANCH  25  29
ENDBRANCH   1  26
TORSDOF 6
