REMARK  Name = ZINC32479649
REMARK  10 active torsions:
REMARK  status: ('A' for Active; 'I' for Inactive)
REMARK    1  A    between atoms: C_1  and  C_2
REMARK    2  A    between atoms: C_2  and  O_3
REMARK    3  A    between atoms: O_3  and  C_4
REMARK    4  A    between atoms: C_4  and  C_6
REMARK    5  A    between atoms: C_7  and  C_33
REMARK    6  A    between atoms: C_14  and  C_15
REMARK    7  A    between atoms: C_22  and  C_24
REMARK    8  A    between atoms: C_27  and  N_30
REMARK    9  A    between atoms: N_30  and  C_31
REMARK   10  A    between atoms: N_30  and  C_32
REMARK                            x       y       z     vdW  Elec       q    Type
REMARK                         _______ _______ _______ _____ _____    ______ ____
ROOT
ATOM      1  C   UNL     1       0.416   4.388   1.730  0.00  0.00    +0.085 C 
ATOM      2  C   UNL     1      -0.833   4.008   1.324  0.00  0.00    +0.053 C 
ATOM      3  N   UNL     1      -1.044   2.790   0.841  0.00  0.00    -0.228 NA
ATOM      4  C   UNL     1      -0.122   1.874   0.702  0.00  0.00    +0.178 A 
ATOM      5  N   UNL     1       1.200   2.048   1.049  0.00  0.00    -0.275 N 
ATOM      6  C   UNL     1       2.043   1.026   0.859  0.00  0.00    +0.268 A 
ATOM      7  O   UNL     1       3.220   1.137   1.152  0.00  0.00    -0.266 OA
ATOM      8  C   UNL     1       1.551  -0.190   0.311  0.00  0.00    +0.082 A 
ATOM      9  C   UNL     1       2.218  -1.347   0.035  0.00  0.00    +0.046 C 
ATOM     10  S   UNL     1      -0.177   0.204   0.083  0.00  0.00    -0.046 S 
ATOM     11  C   UNL     1       1.541   3.385   1.608  0.00  0.00    +0.162 C 
ATOM     12  C   UNL     1      -1.980   4.980   1.430  0.00  0.00    +0.066 C 
ENDROOT
BRANCH   9  13
ATOM     13  C   UNL     1       3.628  -1.341  -0.077  0.00  0.00    +0.040 A 
ATOM     14  C   UNL     1       4.461  -2.443   0.005  0.00  0.00    +0.027 A 
ATOM     15  C   UNL     1       5.770  -1.982  -0.164  0.00  0.00    +0.019 A 
ATOM     16  C   UNL     1       5.721  -0.639  -0.333  0.00  0.00    +0.083 A 
ATOM     17  N   UNL     1       4.424  -0.236  -0.283  0.00  0.00    -0.361 N 
ATOM     18  H   UNL     1       3.968   0.761  -0.375  0.00  0.00    +0.165 HD
ENDBRANCH   9  13
BRANCH  11  19
ATOM     19  C   UNL     1       2.129   3.177   2.980  0.00  0.00    -0.020 A 
ATOM     20  C   UNL     1       1.585   2.229   3.827  0.00  0.00    +0.008 A 
ATOM     21  C   UNL     1       2.125   2.033   5.083  0.00  0.00    +0.023 A 
ATOM     22  C   UNL     1       3.208   2.797   5.499  0.00  0.00    +0.029 A 
ATOM     23  C   UNL     1       3.748   3.752   4.648  0.00  0.00    +0.023 A 
ATOM     24  C   UNL     1       3.207   3.940   3.391  0.00  0.00    +0.008 A 
BRANCH  22  25
ATOM     25  N   UNL     1       3.753   2.604   6.771  0.00  0.00    -0.336 N 
ATOM     26  C   UNL     1       4.896   3.410   7.207  0.00  0.00    +0.129 C 
ATOM     27  C   UNL     1       3.183   1.596   7.667  0.00  0.00    +0.129 C 
ENDBRANCH  22  25
ENDBRANCH  11  19
BRANCH   1  28
ATOM     28  C   UNL     1       0.648   5.672   2.248  0.00  0.00    +0.339 C 
ATOM     29  O   UNL     1      -0.287   6.428   2.444  0.00  0.00    -0.245 OA
BRANCH  28  30
ATOM     30  O   UNL     1       1.908   6.071   2.527  0.00  0.00    -0.462 OA
BRANCH  30  32
ATOM     31  C   UNL     1       3.555   7.660   3.303  0.00  0.00    +0.048 C 
ATOM     32  C   UNL     1       2.070   7.390   3.051  0.00  0.00    +0.229 C 
ENDBRANCH  30  32
ENDBRANCH  28  30
ENDBRANCH   1  28
TORSDOF 6
