REMARK  Name = ZINC09441805
REMARK  10 active torsions:
REMARK  status: ('A' for Active; 'I' for Inactive)
REMARK    1  A    between atoms: C_1  and  C_2
REMARK    2  A    between atoms: C_6  and  C_7
REMARK    3  A    between atoms: N_19  and  C_21
REMARK    4  A    between atoms: C_21  and  C_22
REMARK    5  A    between atoms: N_24  and  C_25
REMARK    6  A    between atoms: C_25  and  C_26
REMARK    7  A    between atoms: C_26  and  C_27
REMARK    8  A    between atoms: C_27  and  N_74
REMARK    9  A    between atoms: C_28  and  N_74
REMARK   10  A    between atoms: C_29  and  N_74
REMARK                            x       y       z     vdW  Elec       q    Type
REMARK                         _______ _______ _______ _____ _____    ______ ____
ROOT
ATOM      1  C   UNL     1       6.602   1.713   9.337  0.00  0.00    +0.048 C 
ATOM      2  C   UNL     1       8.076   1.417   9.432  0.00  0.00    +0.009 A 
ATOM      3  C   UNL     1       8.991   1.391   8.384  0.00  0.00    +0.047 A 
ATOM      4  C   UNL     1      10.234   1.121   8.918  0.00  0.00    +0.116 A 
ATOM      5  O   UNL     1      10.078   0.931  10.226  0.00  0.00    -0.454 OA
ATOM      6  C   UNL     1       8.782   1.121  10.566  0.00  0.00    +0.193 A 
ATOM      7  C   UNL     1      11.494   1.104   8.095  0.00  0.00    +0.080 C 
ATOM      8  C   UNL     1      11.234   0.639   6.662  0.00  0.00    +0.046 C 
ATOM      9  C   UNL     1       9.986   1.267   6.103  0.00  0.00    -0.002 A 
ATOM     10  C   UNL     1       8.870   1.606   6.925  0.00  0.00    +0.099 A 
ATOM     11  N   UNL     1       7.934   2.085   6.169  0.00  0.00    -0.170 NA
ATOM     12  N   UNL     1       8.406   2.086   4.844  0.00  0.00    -0.262 N 
ATOM     13  C   UNL     1       9.666   1.587   4.843  0.00  0.00    +0.113 A 
ENDROOT
BRANCH   6  14
ATOM     14  C   UNL     1       8.228   1.024  11.921  0.00  0.00    +0.282 C 
ATOM     15  O   UNL     1       7.041   1.216  12.108  0.00  0.00    -0.267 OA
ATOM     16  N   UNL     1       9.034   0.723  12.959  0.00  0.00    -0.295 N 
ATOM     17  C   UNL     1      10.478   0.462  12.875  0.00  0.00    +0.108 C 
ATOM     18  C   UNL     1      10.969   0.139  14.302  0.00  0.00    +0.020 C 
ATOM     19  C   UNL     1       9.673  -0.327  15.016  0.00  0.00    +0.020 C 
ATOM     20  C   UNL     1       8.611   0.594  14.366  0.00  0.00    +0.108 C 
ENDBRANCH   6  14
BRANCH  12  21
ATOM     21  C   UNL     1       7.666   2.552   3.670  0.00  0.00    +0.239 C 
BRANCH  21  22
ATOM     22  C   UNL     1       6.350   1.823   3.583  0.00  0.00    +0.234 C 
ATOM     23  O   UNL     1       6.059   0.995   4.420  0.00  0.00    -0.274 OA
ATOM     24  N   UNL     1       5.496   2.090   2.575  0.00  0.00    -0.314 N 
ATOM     25  H   UNL     1       5.729   2.752   1.905  0.00  0.00    +0.149 HD
BRANCH  24  26
ATOM     26  C   UNL     1       4.217   1.381   2.491  0.00  0.00    +0.102 C 
BRANCH  26  27
ATOM     27  C   UNL     1       3.444   1.868   1.264  0.00  0.00    +0.000 C 
BRANCH  27  28
ATOM     28  C   UNL     1       2.108   1.127   1.176  0.00  0.00    -0.077 C 
BRANCH  28  30
ATOM     29  C   UNL     1       2.056   1.218  -1.243  0.00  0.00    -0.096 C 
ATOM     30  N   UNL     1       1.364   1.623  -0.001  0.00  0.00    +0.380 N 
ATOM     31  H   UNL     1       1.323   2.648   0.038  0.00  0.00    -0.082 HD
BRANCH  30  32
ATOM     32  C   UNL     1      -0.013   1.086   0.008  0.00  0.00    -0.069 C 
ATOM     33  C   UNL     1      -0.729   1.579   1.267  0.00  0.00    -0.015 C 
ATOM     34  C   UNL     1      -2.164   1.050   1.278  0.00  0.00    -0.002 C 
ATOM     35  C   UNL     1      -2.904   1.556   0.038  0.00  0.00    -0.000 C 
ATOM     36  C   UNL     1      -2.188   1.063  -1.221  0.00  0.00    -0.002 C 
ATOM     37  C   UNL     1      -0.753   1.593  -1.232  0.00  0.00    -0.015 C 
ENDBRANCH  30  32
ENDBRANCH  28  30
ENDBRANCH  27  28
ENDBRANCH  26  27
ENDBRANCH  24  26
ENDBRANCH  21  22
ENDBRANCH  12  21
TORSDOF 8
