REMARK  Name = ZINC12873113
REMARK  14 active torsions:
REMARK  status: ('A' for Active; 'I' for Inactive)
REMARK    1  A    between atoms: CD1_1  and  CG_2
REMARK    2  A    between atoms: CG_2  and  CD2_3
REMARK    3  A    between atoms: CG_2  and  CB_4
REMARK    4  A    between atoms: CB_4  and  CA_5
REMARK    5  A    between atoms: CA_5  and  C_7
REMARK    6  A    between atoms: CA_5  and  N_9
REMARK    7  A    between atoms: C_10  and  C_12
REMARK    8  A    between atoms: C_12  and  O_13
REMARK    9  A    between atoms: O_13  and  N_14
REMARK   10  A    between atoms: C_18  and  C_40
REMARK   11  A    between atoms: C_23  and  C_39
REMARK   12  A    between atoms: C_34  and  C_35
REMARK   13  A    between atoms: C_34  and  O_38
REMARK   14  A    between atoms: C_35  and  C_37
REMARK                            x       y       z     vdW  Elec       q    Type
REMARK                         _______ _______ _______ _____ _____    ______ ____
ROOT
ATOM      1  N   UNK A   0      -2.419   2.133  -0.208  0.00  0.00    -0.089 NA
ATOM      2  C   UNK A   0      -1.370   1.377  -0.122  0.00  0.00    +0.080 C 
ATOM      3  C   UNK A   0       0.029   1.959  -0.046  0.00  0.00    +0.059 C 
ATOM      4  C   UNK A   0       0.880   1.234  -1.088  0.00  0.00    +0.017 C 
ATOM      5  C   UNK A   0       0.896  -0.266  -0.857  0.00  0.00    -0.007 C 
ATOM      6  C   UNK A   0       1.389  -0.965  -2.130  0.00  0.00    +0.002 C 
ATOM      7  C   UNK A   0       2.784  -0.458  -2.483  0.00  0.00    +0.005 C 
ATOM      8  C   UNK A   0       3.392  -1.218  -3.673  0.00  0.00    +0.010 C 
ATOM      9  C   UNK A   0       3.412  -2.688  -3.302  0.00  0.00    +0.007 C 
ATOM     10  C   UNK A   0       1.935  -3.144  -3.163  0.00  0.00    +0.002 C 
ATOM     11  C   UNK A   0       1.378  -2.485  -1.914  0.00  0.00    -0.003 C 
ATOM     12  C   UNK A   0      -0.064  -2.946  -1.685  0.00  0.00    +0.008 C 
ATOM     13  C   UNK A   0      -0.582  -2.344  -0.378  0.00  0.00    +0.031 C 
ATOM     14  C   UNK A   0      -0.424  -0.836  -0.437  0.00  0.00    -0.062 C 
ATOM     15  C   UNK A   0      -1.471  -0.092  -0.099  0.00  0.00    +0.026 C 
ATOM     16  C   UNK A   0       2.065  -4.670  -3.109  0.00  0.00    +0.008 C 
ATOM     17  C   UNK A   0       3.163  -4.955  -4.181  0.00  0.00    +0.043 C 
ATOM     18  C   UNK A   0       3.979  -3.648  -4.342  0.00  0.00    +0.129 C 
ATOM     19  C   UNK A   0       4.141  -2.877  -1.970  0.00  0.00    +0.015 C 
ATOM     20  C   UNK A   0       1.908  -0.547   0.256  0.00  0.00    +0.016 C 
ENDROOT
BRANCH  18  21
ATOM     21  C   UNK A   0       5.439  -3.908  -4.072  0.00  0.00    +0.162 C 
ATOM     22  O   UNK A   0       5.770  -4.857  -3.402  0.00  0.00    -0.295 OA
ATOM     23  C   UNK A   0       6.486  -2.983  -4.638  0.00  0.00    +0.089 C 
ENDBRANCH  18  21
BRANCH  18  24
ATOM     24  O   UNK A   0       3.807  -3.113  -5.656  0.00  0.00    -0.381 OA
ATOM     25  H   UNK A   0       4.149  -3.681  -6.360  0.00  0.00    +0.211 HD
ENDBRANCH  18  24
BRANCH   1  26
ATOM     26  O   UNK A   0      -2.278   3.542  -0.226  0.00  0.00    -0.384 OA
BRANCH  26  27
ATOM     27  C   UNK A   0      -3.516   4.249  -0.324  0.00  0.00    +0.358 C 
BRANCH  27  29
ATOM     28  N   LEU A   1      -4.274   6.601  -0.422  0.00  0.00    -0.299 N 
ATOM     29  C   UNK A   0      -3.248   5.731  -0.335  0.00  0.00    +0.254 C 
ATOM     30  O   UNK A   0      -2.108   6.142  -0.267  0.00  0.00    -0.272 OA
ATOM     31  H   LEU A   1      -5.184   6.273  -0.477  0.00  0.00    +0.150 HD
BRANCH  28  32
ATOM     32  CA  LEU A   1      -4.013   8.043  -0.433  0.00  0.00    +0.187 C 
BRANCH  32  33
ATOM     33  C   LEU A   1      -3.707   8.487  -1.840  0.00  0.00    +0.376 C 
ATOM     34  O   LEU A   1      -3.707   7.682  -2.741  0.00  0.00    -0.244 OA
ATOM     35  OXT LEU A   1      -3.435   9.777  -2.093  0.00  0.00    -0.244 OA
ENDBRANCH  32  33
BRANCH  32  36
ATOM     36  CB  LEU A   1      -5.247   8.788   0.080  0.00  0.00    +0.037 C 
BRANCH  36  38
ATOM     37  CD1 LEU A   1      -4.346   8.915   2.407  0.00  0.00    +0.007 C 
ATOM     38  CG  LEU A   1      -5.501   8.409   1.540  0.00  0.00    -0.015 C 
ATOM     39  CD2 LEU A   1      -6.810   9.045   2.012  0.00  0.00    +0.007 C 
ENDBRANCH  36  38
ENDBRANCH  32  36
ENDBRANCH  28  32
ENDBRANCH  27  29
ENDBRANCH  26  27
ENDBRANCH   1  26
TORSDOF 9
