REMARK  Name = ZINC01162852
REMARK  11 active torsions:
REMARK  status: ('A' for Active; 'I' for Inactive)
REMARK    1  A    between atoms: C_1  and  C_2
REMARK    2  A    between atoms: C_5  and  C_8
REMARK    3  A    between atoms: C_8  and  N_9
REMARK    4  A    between atoms: N_9  and  C_10
REMARK    5  A    between atoms: N_9  and  S_22
REMARK    6  A    between atoms: C_10  and  C_11
REMARK    7  A    between atoms: N_13  and  C_14
REMARK    8  A    between atoms: C_17  and  C_21
REMARK    9  A    between atoms: C_19  and  C_20
REMARK   10  A    between atoms: S_22  and  C_25
REMARK   11  A    between atoms: C_28  and  C_31
REMARK                            x       y       z     vdW  Elec       q    Type
REMARK                         _______ _______ _______ _____ _____    ______ ____
ROOT
ATOM      1  N   UNL     1       2.407   1.044  -0.032  0.00  0.00    -0.163 NA
ENDROOT
BRANCH   1   2
ATOM      2  S   UNL     1       3.145   0.611   1.386  0.00  0.00    +0.062 S 
ATOM      3  O   UNL     1       4.502   0.334   1.069  0.00  0.00    -0.153 OA
ATOM      4  O   UNL     1       2.772   1.584   2.352  0.00  0.00    -0.153 OA
BRANCH   2   5
ATOM      5  C   UNL     1       2.428  -0.913   1.903  0.00  0.00    +0.106 A 
ATOM      6  C   UNL     1       1.318  -0.910   2.727  0.00  0.00    +0.029 A 
ATOM      7  C   UNL     1       0.752  -2.106   3.129  0.00  0.00    +0.005 A 
ATOM      8  C   UNL     1       1.302  -3.304   2.715  0.00  0.00    -0.050 A 
ATOM      9  C   UNL     1       2.415  -3.307   1.894  0.00  0.00    +0.005 A 
ATOM     10  C   UNL     1       2.978  -2.112   1.489  0.00  0.00    +0.029 A 
ATOM     11  C   UNL     1       0.688  -4.607   3.157  0.00  0.00    +0.044 C 
ENDBRANCH   2   5
ENDBRANCH   1   2
BRANCH   1  12
ATOM     12  C   UNL     1       2.880   0.490  -1.303  0.00  0.00    +0.145 C 
BRANCH  12  17
ATOM     13  C   UNL     1       6.617   4.167  -3.733  0.00  0.00    +0.044 C 
ATOM     14  C   UNL     1       5.643   3.208  -3.100  0.00  0.00    -0.050 A 
ATOM     15  C   UNL     1       6.098   2.228  -2.237  0.00  0.00    +0.003 A 
ATOM     16  C   UNL     1       5.204   1.349  -1.656  0.00  0.00    +0.005 A 
ATOM     17  C   UNL     1       3.854   1.449  -1.937  0.00  0.00    -0.032 A 
ATOM     18  C   UNL     1       3.399   2.426  -2.803  0.00  0.00    +0.005 A 
ATOM     19  C   UNL     1       4.293   3.308  -3.381  0.00  0.00    +0.003 A 
ENDBRANCH  12  17
ENDBRANCH   1  12
BRANCH   1  20
ATOM     20  C   UNL     1       1.280   1.980  -0.015  0.00  0.00    +0.205 C 
BRANCH  20  21
ATOM     21  C   UNL     1      -0.014   1.209   0.005  0.00  0.00    +0.233 C 
ATOM     22  O   UNL     1       0.003  -0.004   0.005  0.00  0.00    -0.274 OA
ATOM     23  N   UNL     1      -1.191   1.867   0.018  0.00  0.00    -0.284 N 
ATOM     24  H   UNL     1      -1.205   2.833   0.099  0.00  0.00    +0.155 HD
BRANCH  23  25
ATOM     25  C   UNL     1      -2.391   1.155  -0.086  0.00  0.00    +0.036 A 
ATOM     26  C   UNL     1      -2.411  -0.091  -0.699  0.00  0.00    +0.024 A 
ATOM     27  C   UNL     1      -3.597  -0.791  -0.800  0.00  0.00    +0.005 A 
ATOM     28  C   UNL     1      -4.765  -0.252  -0.291  0.00  0.00    -0.050 A 
ATOM     29  C   UNL     1      -4.748   0.989   0.320  0.00  0.00    +0.008 A 
ATOM     30  C   UNL     1      -3.564   1.691   0.428  0.00  0.00    -0.029 A 
ATOM     31  C   UNL     1      -3.546   3.040   1.100  0.00  0.00    +0.045 C 
ATOM     32  C   UNL     1      -6.057  -1.018  -0.402  0.00  0.00    +0.044 C 
ENDBRANCH  23  25
ENDBRANCH  20  21
ENDBRANCH   1  20
TORSDOF 7
