REMARK  Name = ZINC30830793
REMARK  7 active torsions:
REMARK  status: ('A' for Active; 'I' for Inactive)
REMARK    1  A    between atoms: C_1  and  C_2
REMARK    2  A    between atoms: C_2  and  O_3
REMARK    3  A    between atoms: O_3  and  C_4
REMARK    4  A    between atoms: C_7  and  C_11
REMARK    5  A    between atoms: N_13  and  C_14
REMARK    6  A    between atoms: C_14  and  N_16
REMARK    7  A    between atoms: N_16  and  C_17
REMARK                            x       y       z     vdW  Elec       q    Type
REMARK                         _______ _______ _______ _____ _____    ______ ____
ROOT
ATOM      1  N   UNL     1      -4.630  -8.467  -0.013  0.00  0.00    -0.296 N 
ATOM      2  H   UNL     1      -5.402  -7.881  -0.056  0.00  0.00    +0.154 HD
ENDROOT
BRANCH   1   3
ATOM      3  C   UNL     1      -4.796  -9.846  -0.124  0.00  0.00    +0.036 C 
ATOM      4  C   UNL     1      -5.606 -10.514   0.774  0.00  0.00    +0.074 C 
ATOM      5  C   UNL     1      -5.774 -11.898   0.663  0.00  0.00    +0.193 C 
ATOM      6  O   UNL     1      -6.490 -12.501   1.454  0.00  0.00    -0.287 OA
ATOM      7  C   UNL     1      -5.106 -12.598  -0.376  0.00  0.00    +0.079 C 
ATOM      8  C   UNL     1      -5.261 -13.994  -0.507  0.00  0.00    +0.203 C 
ATOM      9  N   UNL     1      -6.022 -14.772   0.291  0.00  0.00    -0.267 N 
ATOM     10  C   UNL     1      -5.910 -16.078  -0.164  0.00  0.00    +0.168 A 
ATOM     11  C   UNL     1      -5.050 -16.041  -1.265  0.00  0.00    +0.170 A 
ATOM     12  C   UNL     1      -4.751 -17.221  -1.931  0.00  0.00    +0.051 A 
ATOM     13  C   UNL     1      -5.323 -18.397  -1.472  0.00  0.00    +0.023 A 
ATOM     14  C   UNL     1      -6.165 -18.360  -0.376  0.00  0.00    +0.113 A 
ATOM     15  N   UNL     1      -6.433 -17.224   0.240  0.00  0.00    -0.237 NA
ATOM     16  O   UNL     1      -4.680 -14.752  -1.446  0.00  0.00    -0.438 OA
ATOM     17  C   UNL     1      -4.289 -11.889  -1.273  0.00  0.00    +0.018 C 
ATOM     18  C   UNL     1      -4.145 -10.542  -1.149  0.00  0.00    +0.024 C 
ATOM     19  H   UNL     1      -6.551 -14.472   1.046  0.00  0.00    +0.157 HD
ENDBRANCH   1   3
BRANCH   1  20
ATOM     20  C   UNL     1      -3.398  -7.948   0.156  0.00  0.00    +0.141 C 
ATOM     21  S   UNL     1      -2.053  -8.986   0.365  0.00  0.00    -0.018 S 
BRANCH  20  24
ATOM     22  C   UNL     1      -1.993  -6.092   0.330  0.00  0.00    +0.250 C 
ATOM     23  O   UNL     1      -1.038  -6.829   0.478  0.00  0.00    -0.270 OA
ATOM     24  N   UNL     1      -3.225  -6.611   0.161  0.00  0.00    -0.264 N 
ATOM     25  H   UNL     1      -3.987  -6.023   0.043  0.00  0.00    +0.157 HD
BRANCH  22  29
ATOM     26  C   UNL     1      -1.446  -1.881   0.344  0.00  0.00    +0.134 A 
ATOM     27  C   UNL     1      -0.353  -2.723   0.514  0.00  0.00    +0.047 A 
ATOM     28  C   UNL     1      -0.526  -4.088   0.510  0.00  0.00    +0.017 A 
ATOM     29  C   UNL     1      -1.803  -4.629   0.335  0.00  0.00    +0.038 A 
ATOM     30  C   UNL     1      -2.900  -3.780   0.165  0.00  0.00    +0.032 A 
ATOM     31  C   UNL     1      -2.719  -2.414   0.175  0.00  0.00    +0.060 A 
ATOM     32 BR   UNL     1      -4.203  -1.263  -0.048  0.00  0.00    -0.046 Br
BRANCH  26  33
ATOM     33  O   UNL     1      -1.271  -0.535   0.348  0.00  0.00    -0.491 OA
BRANCH  33  35
ATOM     34  C   UNL     1       0.062   1.475   0.503  0.00  0.00    +0.048 C 
ATOM     35  C   UNL     1       0.063  -0.055   0.526  0.00  0.00    +0.226 C 
ENDBRANCH  33  35
ENDBRANCH  26  33
ENDBRANCH  22  29
ENDBRANCH  20  24
ENDBRANCH   1  20
TORSDOF 6
