REMARK  Name = ZINC17058851
REMARK  10 active torsions:
REMARK  status: ('A' for Active; 'I' for Inactive)
REMARK    1  A    between atoms: C_1  and  C_2
REMARK    2  A    between atoms: C_2  and  C_3
REMARK    3  A    between atoms: C_3  and  C_5
REMARK    4  A    between atoms: C_3  and  C_6
REMARK    5  A    between atoms: C_9  and  N_12
REMARK    6  A    between atoms: C_16  and  C_17
REMARK    7  A    between atoms: N_21  and  C_22
REMARK    8  A    between atoms: C_22  and  C_23
REMARK    9  A    between atoms: C_23  and  O_24
REMARK   10  A    between atoms: O_24  and  C_25
REMARK                            x       y       z     vdW  Elec       q    Type
REMARK                         _______ _______ _______ _____ _____    ______ ____
ROOT
ATOM      1  N   UNL     1      -1.099  -6.188  -1.257  0.00  0.00    -0.188 N 
ATOM      2  C   UNL     1      -2.021  -6.861  -1.978  0.00  0.00    +0.264 C 
ATOM      3  O   UNL     1      -2.891  -6.272  -2.593  0.00  0.00    -0.269 OA
ATOM      4  C   UNL     1      -1.939  -8.330  -1.999  0.00  0.00    +0.103 C 
ATOM      5  C   UNL     1      -2.848  -9.099  -2.718  0.00  0.00    +0.044 C 
ATOM      6  C   UNL     1      -0.847  -8.951  -1.223  0.00  0.00    +0.276 C 
ATOM      7  N   UNL     1      -0.004  -8.149  -0.552  0.00  0.00    -0.123 NA
ATOM      8  C   UNL     1      -0.122  -6.845  -0.575  0.00  0.00    +0.340 C 
ATOM      9  O   UNL     1       0.770  -6.113   0.121  0.00  0.00    -0.250 OA
ATOM     10  O   UNL     1      -0.715 -10.163  -1.191  0.00  0.00    -0.268 OA
ENDROOT
BRANCH   1  14
ATOM     11  C   UNL     1      -1.240  -2.025  -1.131  0.00  0.00    -0.044 A 
ATOM     12  C   UNL     1      -0.483  -2.660  -2.098  0.00  0.00    +0.006 A 
ATOM     13  C   UNL     1      -0.434  -4.040  -2.142  0.00  0.00    +0.024 A 
ATOM     14  C   UNL     1      -1.146  -4.788  -1.215  0.00  0.00    +0.046 A 
ATOM     15  C   UNL     1      -1.906  -4.147  -0.245  0.00  0.00    +0.024 A 
ATOM     16  C   UNL     1      -1.946  -2.767  -0.203  0.00  0.00    +0.006 A 
BRANCH  11  17
ATOM     17  C   UNL     1      -1.292  -0.519  -1.086  0.00  0.00    +0.016 C 
ATOM     18  C   UNL     1       0.120   0.033  -0.881  0.00  0.00    +0.012 C 
BRANCH  17  20
ATOM     19  C   UNL     1      -2.029   1.530  -2.312  0.00  0.00    +0.004 C 
ATOM     20  C   UNL     1      -1.860   0.012  -2.404  0.00  0.00    +0.004 C 
ENDBRANCH  17  20
ENDBRANCH  11  17
ENDBRANCH   1  14
BRANCH   5  21
ATOM     21  C   UNL     1      -2.821 -10.499  -2.613  0.00  0.00    +0.043 A 
ATOM     22  C   UNL     1      -2.627 -11.400  -3.654  0.00  0.00    +0.027 A 
ATOM     23  C   UNL     1      -2.676 -12.677  -3.100  0.00  0.00    +0.020 A 
ATOM     24  C   UNL     1      -2.893 -12.547  -1.765  0.00  0.00    +0.086 A 
ATOM     25  N   UNL     1      -2.977 -11.236  -1.456  0.00  0.00    -0.344 N 
BRANCH  25  26
ATOM     26  C   UNL     1      -3.200 -10.687  -0.117  0.00  0.00    +0.162 C 
BRANCH  26  27
ATOM     27  C   UNL     1      -4.665 -10.265   0.024  0.00  0.00    +0.250 C 
BRANCH  27  28
ATOM     28  O   UNL     1      -4.878  -9.712   1.324  0.00  0.00    -0.489 OA
BRANCH  28  29
ATOM     29  C   UNL     1      -6.136  -9.286   1.614  0.00  0.00    +0.139 A 
ATOM     30  C   UNL     1      -7.144  -9.401   0.668  0.00  0.00    +0.047 A 
ATOM     31  C   UNL     1      -8.421  -8.967   0.966  0.00  0.00    +0.004 A 
ATOM     32  C   UNL     1      -8.696  -8.417   2.204  0.00  0.00    +0.002 A 
ATOM     33  C   UNL     1      -7.693  -8.299   3.149  0.00  0.00    +0.023 A 
ATOM     34  C   UNL     1      -6.415  -8.738   2.859  0.00  0.00    +0.083 A 
ATOM     35 CL   UNL     1      -5.157  -8.597   4.047  0.00  0.00    -0.080 Cl
ENDBRANCH  28  29
ENDBRANCH  27  28
ENDBRANCH  26  27
ENDBRANCH  25  26
ENDBRANCH   5  21
TORSDOF 8
