REMARK  Name = ZINC26462475
REMARK  12 active torsions:
REMARK  status: ('A' for Active; 'I' for Inactive)
REMARK    1  A    between atoms: C_1  and  C_2
REMARK    2  A    between atoms: C_5  and  S_9
REMARK    3  A    between atoms: C_6  and  C_8
REMARK    4  A    between atoms: S_9  and  N_12
REMARK    5  A    between atoms: N_12  and  C_13
REMARK    6  A    between atoms: C_19  and  C_34
REMARK    7  A    between atoms: C_20  and  C_33
REMARK    8  A    between atoms: N_21  and  S_22
REMARK    9  A    between atoms: S_22  and  C_25
REMARK   10  A    between atoms: C_28  and  C_32
REMARK   11  A    between atoms: C_30  and  C_31
REMARK   12  A    between atoms: C_34  and  C_36
REMARK                            x       y       z     vdW  Elec       q    Type
REMARK                         _______ _______ _______ _____ _____    ______ ____
ROOT
ATOM      1  C   UNL     1       4.584   2.543  -1.566  0.00  0.00    +0.049 A 
ATOM      2  C   UNL     1       3.797   3.509  -0.942  0.00  0.00    +0.026 A 
ATOM      3  C   UNL     1       4.216   4.819  -0.880  0.00  0.00    +0.030 A 
ATOM      4  C   UNL     1       5.429   5.191  -1.453  0.00  0.00    +0.073 A 
ATOM      5  C   UNL     1       6.219   4.220  -2.086  0.00  0.00    +0.014 A 
ATOM      6  C   UNL     1       5.793   2.896  -2.141  0.00  0.00    +0.035 A 
ATOM      7  C   UNL     1       7.416   4.932  -2.578  0.00  0.00    +0.047 A 
ATOM      8  C   UNL     1       7.257   6.251  -2.209  0.00  0.00    +0.051 A 
ATOM      9  N   UNL     1       6.092   6.400  -1.551  0.00  0.00    -0.215 N 
ATOM     10  C   UNL     1       8.238   7.358  -2.501  0.00  0.00    +0.066 C 
ENDROOT
BRANCH   9  11
ATOM     11  S   UNL     1       5.531   7.834  -0.943  0.00  0.00    +0.085 S 
ATOM     12  O   UNL     1       5.465   8.741  -2.035  0.00  0.00    -0.148 OA
ATOM     13  O   UNL     1       4.399   7.521  -0.143  0.00  0.00    -0.148 OA
BRANCH  11  14
ATOM     14  C   UNL     1       6.765   8.454   0.152  0.00  0.00    +0.114 A 
ATOM     15  C   UNL     1       7.416   9.639  -0.140  0.00  0.00    +0.029 A 
ATOM     16  C   UNL     1       8.381  10.127   0.721  0.00  0.00    +0.005 A 
ATOM     17  C   UNL     1       8.702   9.426   1.869  0.00  0.00    -0.050 A 
ATOM     18  C   UNL     1       8.054   8.240   2.158  0.00  0.00    +0.008 A 
ATOM     19  C   UNL     1       7.086   7.754   1.299  0.00  0.00    -0.023 A 
ATOM     20  C   UNL     1       6.381   6.460   1.614  0.00  0.00    +0.046 C 
ATOM     21  C   UNL     1       9.757   9.956   2.805  0.00  0.00    +0.044 C 
ENDBRANCH  11  14
ENDBRANCH   9  11
BRANCH   7  22
ATOM     22  C   UNL     1       8.508   4.371  -3.285  0.00  0.00    +0.162 C 
ATOM     23  O   UNL     1       8.527   4.404  -4.498  0.00  0.00    -0.292 OA
ATOM     24  C   UNL     1       9.646   3.734  -2.531  0.00  0.00    +0.091 C 
ENDBRANCH   7  22
BRANCH   1  25
ATOM     25  N   UNL     1       4.149   1.214  -1.617  0.00  0.00    -0.216 N 
ATOM     26  H   UNL     1       4.207   0.652  -2.560  0.00  0.00    +0.174 HD
BRANCH  25  27
ATOM     27  S   UNL     1       3.545   0.488  -0.256  0.00  0.00    +0.073 S 
ATOM     28  O   UNL     1       3.265  -0.860  -0.605  0.00  0.00    -0.150 OA
ATOM     29  O   UNL     1       2.553   1.362   0.264  0.00  0.00    -0.150 OA
BRANCH  27  34
ATOM     30  C   UNL     1       8.004   0.330   3.807  0.00  0.00    +0.044 C 
ATOM     31  C   UNL     1       6.890   0.369   2.792  0.00  0.00    -0.050 A 
ATOM     32  C   UNL     1       5.736   1.082   3.059  0.00  0.00    +0.005 A 
ATOM     33  C   UNL     1       4.713   1.114   2.131  0.00  0.00    +0.029 A 
ATOM     34  C   UNL     1       4.847   0.442   0.931  0.00  0.00    +0.111 A 
ATOM     35  C   UNL     1       6.003  -0.267   0.661  0.00  0.00    -0.024 A 
ATOM     36  C   UNL     1       7.024  -0.303   1.592  0.00  0.00    +0.008 A 
ATOM     37  C   UNL     1       6.149  -1.000  -0.648  0.00  0.00    +0.046 C 
ENDBRANCH  27  34
ENDBRANCH  25  27
ENDBRANCH   1  25
TORSDOF 6
