REMARK  Name = ZINC30958825
REMARK  9 active torsions:
REMARK  status: ('A' for Active; 'I' for Inactive)
REMARK    1  A    between atoms: C_1  and  C_2
REMARK    2  A    between atoms: C_2  and  C_3
REMARK    3  A    between atoms: C_2  and  C_4
REMARK    4  A    between atoms: C_7  and  C_10
REMARK    5  A    between atoms: C_10  and  N_11
REMARK    6  A    between atoms: N_11  and  C_12
REMARK    7  A    between atoms: N_11  and  C_13
REMARK    8  A    between atoms: C_13  and  C_14
REMARK    9  A    between atoms: N_16  and  C_17
REMARK                            x       y       z     vdW  Elec       q    Type
REMARK                         _______ _______ _______ _____ _____    ______ ____
ROOT
ATOM      1  C   UNL     1      -0.014   1.208   0.003  0.00  0.00    +0.201 C 
ATOM      2  O   UNL     1       0.003  -0.004   0.000  0.00  0.00    -0.278 OA
ATOM      3  N   UNL     1       1.143   1.898   0.001  0.00  0.00    -0.286 N 
ATOM      4  H   UNL     1       1.129   2.996  -0.071  0.00  0.00    +0.155 HD
ENDROOT
BRANCH   3   5
ATOM      5  C   UNL     1       2.365   1.218   0.092  0.00  0.00    +0.051 A 
ATOM      6  C   UNL     1       2.514  -0.025  -0.508  0.00  0.00    +0.073 A 
ATOM      7  C   UNL     1       3.722  -0.698  -0.419  0.00  0.00    +0.164 A 
ATOM      8  C   UNL     1       4.785  -0.126   0.270  0.00  0.00    +0.163 A 
ATOM      9  C   UNL     1       4.634   1.116   0.869  0.00  0.00    +0.066 A 
ATOM     10  C   UNL     1       3.430   1.789   0.776  0.00  0.00    +0.043 A 
ATOM     11 BR   UNL     1       3.231   3.485   1.588  0.00  0.00    -0.048 Br
ATOM     12  O   UNL     1       5.982  -0.770   0.364  0.00  0.00    -0.485 OA
ATOM     13  C   UNL     1       5.982  -2.172   0.074  0.00  0.00    +0.270 C 
ATOM     14  C   UNL     1       5.184  -2.396  -1.218  0.00  0.00    +0.270 C 
ATOM     15  O   UNL     1       3.850  -1.918  -1.009  0.00  0.00    -0.485 OA
ENDBRANCH   3   5
BRANCH   1  16
ATOM     16  C   UNL     1      -1.330   1.944   0.002  0.00  0.00    +0.019 C 
BRANCH  16  17
ATOM     17  N   UNL     1      -2.433   0.974  -0.003  0.00  0.00    +0.386 N 
ATOM     18  C   UNL     1      -2.463   0.205   1.249  0.00  0.00    -0.095 C 
ATOM     19  H   UNL     1      -2.259   0.268  -0.828  0.00  0.00    -0.081 HD
BRANCH  17  20
ATOM     20  C   UNL     1      -3.720   1.641  -0.242  0.00  0.00    -0.043 C 
BRANCH  20  24
ATOM     21  C   UNL     1      -6.742  -1.299  -0.927  0.00  0.00    -0.045 A 
ATOM     22  C   UNL     1      -6.488  -0.856   0.357  0.00  0.00    +0.004 A 
ATOM     23  C   UNL     1      -5.510   0.096   0.579  0.00  0.00    +0.002 A 
ATOM     24  C   UNL     1      -4.786   0.604  -0.484  0.00  0.00    -0.064 A 
ATOM     25  C   UNL     1      -5.044   0.164  -1.769  0.00  0.00    +0.002 A 
ATOM     26  C   UNL     1      -6.019  -0.790  -1.990  0.00  0.00    +0.004 A 
BRANCH  21  28
ATOM     27  C   UNL     1      -8.876  -1.763  -2.102  0.00  0.00    +0.012 C 
ATOM     28  C   UNL     1      -7.808  -2.337  -1.169  0.00  0.00    +0.013 C 
ATOM     29  C   UNL     1      -7.178  -3.574  -1.814  0.00  0.00    +0.012 C 
ENDBRANCH  21  28
ENDBRANCH  20  24
ENDBRANCH  17  20
ENDBRANCH  16  17
ENDBRANCH   1  16
TORSDOF 6
