REMARK  Name = ZINC16688132
REMARK  7 active torsions:
REMARK  status: ('A' for Active; 'I' for Inactive)
REMARK    1  A    between atoms: C_1  and  C_2
REMARK    2  A    between atoms: C_2  and  O_3
REMARK    3  A    between atoms: O_3  and  C_4
REMARK    4  A    between atoms: C_8  and  C_9
REMARK    5  A    between atoms: N_10  and  C_11
REMARK    6  A    between atoms: C_16  and  N_17
REMARK    7  A    between atoms: C_23  and  O_24
REMARK                            x       y       z     vdW  Elec       q    Type
REMARK                         _______ _______ _______ _____ _____    ______ ____
ROOT
ATOM      1  C   UNL     1       1.389  -4.754   4.046  0.00  0.00    +0.124 C 
ATOM      2  N   UNL     1       2.355  -5.608   3.853  0.00  0.00    -0.253 NA
ENDROOT
BRANCH   1   7
ATOM      3  C   UNL     1      -1.007  -2.695   2.005  0.00  0.00    +0.163 A 
ATOM      4  C   UNL     1      -0.634  -3.054   0.720  0.00  0.00    +0.065 A 
ATOM      5  C   UNL     1       0.393  -3.962   0.516  0.00  0.00    +0.036 A 
ATOM      6  C   UNL     1       1.054  -4.518   1.592  0.00  0.00    +0.044 A 
ATOM      7  C   UNL     1       0.688  -4.165   2.896  0.00  0.00    +0.053 A 
ATOM      8  C   UNL     1      -0.348  -3.241   3.099  0.00  0.00    +0.168 A 
ATOM      9 BR   UNL     1       2.453  -5.757   1.305  0.00  0.00    -0.048 Br
ATOM     10 BR   UNL     1       0.890  -4.441  -1.244  0.00  0.00    -0.049 Br
BRANCH   8  11
ATOM     11  O   UNL     1      -0.708  -2.886   4.360  0.00  0.00    -0.503 OA
ATOM     12  H   UNL     1      -1.395  -3.447   4.745  0.00  0.00    +0.292 HD
ENDBRANCH   8  11
BRANCH   3  13
ATOM     13  O   UNL     1      -2.017  -1.803   2.195  0.00  0.00    -0.489 OA
BRANCH  13  15
ATOM     14  C   UNL     1      -3.752  -0.302   1.436  0.00  0.00    +0.048 C 
ATOM     15  C   UNL     1      -2.651  -1.281   1.025  0.00  0.00    +0.226 C 
ENDBRANCH  13  15
ENDBRANCH   3  13
ENDBRANCH   1   7
BRANCH   2  16
ATOM     16  C   UNL     1       3.077  -6.076   4.917  0.00  0.00    +0.083 A 
ATOM     17  C   UNL     1       3.591  -5.186   5.862  0.00  0.00    +0.029 A 
ATOM     18  C   UNL     1       4.319  -5.664   6.932  0.00  0.00    +0.002 A 
ATOM     19  C   UNL     1       4.539  -7.024   7.070  0.00  0.00    +0.002 A 
ATOM     20  C   UNL     1       4.033  -7.911   6.137  0.00  0.00    +0.024 A 
ATOM     21  C   UNL     1       3.298  -7.447   5.066  0.00  0.00    +0.039 A 
BRANCH  21  22
ATOM     22  N   UNL     1       2.782  -8.346   4.128  0.00  0.00    -0.392 NA
ATOM     23  C   UNL     1       1.863  -9.274   4.797  0.00  0.00    +0.085 C 
ATOM     24  C   UNL     1       1.232 -10.208   3.761  0.00  0.00    +0.017 C 
ATOM     25  C   UNL     1       2.338 -11.001   3.058  0.00  0.00    +0.003 C 
ATOM     26  C   UNL     1       3.332 -10.021   2.427  0.00  0.00    +0.017 C 
ATOM     27  C   UNL     1       3.884  -9.094   3.511  0.00  0.00    +0.085 C 
ATOM     28  H   UNL     1       2.282  -7.836   3.415  0.00  0.00    +0.126 HD
ENDBRANCH  21  22
ENDBRANCH   2  16
TORSDOF 6
