REMARK  Name = ZINC35851765
REMARK  4 active torsions:
REMARK  status: ('A' for Active; 'I' for Inactive)
REMARK    1  A    between atoms: C_8  and  C_27
REMARK    2  A    between atoms: C_10  and  C_18
REMARK    3  A    between atoms: C_22  and  N_24
REMARK    4  A    between atoms: C_27  and  C_29
REMARK                            x       y       z     vdW  Elec       q    Type
REMARK                         _______ _______ _______ _____ _____    ______ ____
ROOT
ATOM      1  C   UNL     1       2.447  -0.068  -4.053  0.00  0.00    +0.000 A 
ATOM      2  C   UNL     1       3.791  -0.195  -4.358  0.00  0.00    +0.002 A 
ATOM      3  C   UNL     1       4.592  -1.051  -3.632  0.00  0.00    +0.023 A 
ATOM      4  C   UNL     1       4.054  -1.796  -2.585  0.00  0.00    +0.039 A 
ATOM      5  C   UNL     1       2.702  -1.658  -2.286  0.00  0.00    +0.004 A 
ATOM      6  C   UNL     1       1.905  -0.803  -3.013  0.00  0.00    +0.008 A 
ATOM      7  C   UNL     1       2.440  -2.576  -1.123  0.00  0.00    +0.137 C 
ATOM      8  C   UNL     1       1.389  -3.636  -1.484  0.00  0.00    +0.103 C 
ATOM      9  C   UNL     1       0.574  -3.779  -0.168  0.00  0.00    +0.050 C 
ATOM     10  C   UNL     1       0.599  -2.327   0.361  0.00  0.00    +0.077 C 
ATOM     11  N   UNL     1       1.949  -1.825   0.046  0.00  0.00    -0.271 NA
ATOM     12  C   UNL     1       2.910  -2.031   1.171  0.00  0.00    +0.155 C 
ATOM     13  S   UNL     1       1.806  -1.690   2.611  0.00  0.00    -0.144 S 
ATOM     14  C   UNL     1       0.254  -2.309   1.859  0.00  0.00    +0.090 C 
ATOM     15  C   UNL     1       3.771  -3.219  -0.831  0.00  0.00    +0.243 C 
ATOM     16  O   UNL     1       4.006  -4.034   0.036  0.00  0.00    -0.273 OA
ATOM     17  N   UNL     1       4.649  -2.715  -1.718  0.00  0.00    -0.283 N 
ATOM     18  H   UNL     1       5.587  -2.962  -1.752  0.00  0.00    +0.155 HD
ENDROOT
BRANCH   9  19
ATOM     19  C   UNL     1      -0.837  -4.229  -0.451  0.00  0.00    -0.040 A 
ATOM     20  C   UNL     1      -1.872  -3.314  -0.426  0.00  0.00    +0.004 A 
ATOM     21  C   UNL     1      -3.166  -3.726  -0.685  0.00  0.00    +0.002 A 
ATOM     22  C   UNL     1      -3.424  -5.054  -0.969  0.00  0.00    +0.033 A 
ATOM     23  C   UNL     1      -2.388  -5.970  -0.995  0.00  0.00    +0.126 A 
ATOM     24  C   UNL     1      -1.094  -5.556  -0.740  0.00  0.00    +0.036 A 
BRANCH  23  25
ATOM     25  N   UNL     1      -2.665  -7.392  -1.298  0.00  0.00    +0.056 N 
ATOM     26  O   UNL     1      -3.796  -7.753  -1.524  0.00  0.00    -0.126 OA
ATOM     27  O   UNL     1      -1.759  -8.192  -1.321  0.00  0.00    -0.126 OA
ENDBRANCH  23  25
ENDBRANCH   9  19
BRANCH   8  28
ATOM     28  C   UNL     1       0.511  -3.155  -2.610  0.00  0.00    +0.171 C 
ATOM     29  O   UNL     1      -0.443  -2.445  -2.374  0.00  0.00    -0.292 OA
BRANCH  28  30
ATOM     30  C   UNL     1       0.812  -3.546  -3.997  0.00  0.00    +0.036 A 
ATOM     31  C   UNL     1       0.006  -3.100  -5.055  0.00  0.00    +0.014 A 
ATOM     32  C   UNL     1       0.333  -3.496  -6.339  0.00  0.00    +0.020 A 
ATOM     33  C   UNL     1       1.434  -4.311  -6.537  0.00  0.00    +0.111 A 
ATOM     34  N   UNL     1       2.175  -4.716  -5.523  0.00  0.00    -0.263 NA
ATOM     35  C   UNL     1       1.909  -4.363  -4.283  0.00  0.00    +0.122 A 
ENDBRANCH  28  30
ENDBRANCH   8  28
TORSDOF 4
