REMARK  Name = ZINC36096794
REMARK  7 active torsions:
REMARK  status: ('A' for Active; 'I' for Inactive)
REMARK    1  A    between atoms: C_3  and  C_6
REMARK    2  A    between atoms: C_6  and  C_8
REMARK    3  A    between atoms: C_10  and  C_22
REMARK    4  A    between atoms: C_16  and  C_17
REMARK    5  A    between atoms: C_16  and  O_21
REMARK    6  A    between atoms: C_25  and  O_31
REMARK    7  A    between atoms: C_26  and  N_28
REMARK                            x       y       z     vdW  Elec       q    Type
REMARK                         _______ _______ _______ _____ _____    ______ ____
ROOT
ATOM      1  C   UNL     1       4.841   1.431   0.209  0.00  0.00    +0.144 C 
ATOM      2  C   UNL     1       5.998   1.174  -0.763  0.00  0.00    +0.118 C 
ATOM      3  N   UNL     1       7.176   1.919  -0.315  0.00  0.00    -0.319 N 
ATOM      4  C   UNL     1       7.377   2.192   0.982  0.00  0.00    +0.133 C 
ATOM      5  S   UNL     1       8.786   3.055   1.432  0.00  0.00    -0.019 S 
ATOM      6  N   UNL     1       6.519   1.816   1.942  0.00  0.00    -0.291 N 
ATOM      7  C   UNL     1       5.298   1.065   1.625  0.00  0.00    +0.241 C 
ATOM      8  H   UNL     1       7.825   2.220  -0.971  0.00  0.00    +0.148 HD
ATOM      9  H   UNL     1       6.707   2.047   2.865  0.00  0.00    +0.151 HD
ENDROOT
BRANCH   2  10
ATOM     10  C   UNL     1       5.606   1.631  -2.144  0.00  0.00    -0.024 A 
ATOM     11  C   UNL     1       5.881   2.925  -2.547  0.00  0.00    +0.009 A 
ATOM     12  C   UNL     1       5.523   3.347  -3.812  0.00  0.00    +0.048 A 
ATOM     13  C   UNL     1       4.887   2.471  -4.680  0.00  0.00    +0.147 A 
ATOM     14  C   UNL     1       4.613   1.173  -4.274  0.00  0.00    +0.168 A 
ATOM     15  C   UNL     1       4.978   0.755  -3.009  0.00  0.00    +0.042 A 
BRANCH  14  16
ATOM     16  N   UNL     1       3.935   0.236  -5.197  0.00  0.00    +0.060 N 
ATOM     17  O   UNL     1       3.696  -0.895  -4.843  0.00  0.00    -0.126 OA
ATOM     18  O   UNL     1       3.619   0.601  -6.306  0.00  0.00    -0.126 OA
ENDBRANCH  14  16
BRANCH  13  19
ATOM     19  O   UNL     1       4.533   2.883  -5.926  0.00  0.00    -0.504 OA
ATOM     20  H   UNL     1       5.215   2.740  -6.596  0.00  0.00    +0.292 HD
ENDBRANCH  13  19
ENDBRANCH   2  10
BRANCH   7  21
ATOM     21  C   UNL     1       5.590  -0.435   1.696  0.00  0.00    +0.436 C 
ATOM     22  F   UNL     1       6.600  -0.758   0.783  0.00  0.00    -0.166 F 
ATOM     23  F   UNL     1       6.007  -0.769   2.989  0.00  0.00    -0.166 F 
ATOM     24  F   UNL     1       4.430  -1.152   1.381  0.00  0.00    -0.166 F 
ENDBRANCH   7  21
BRANCH   1  25
ATOM     25  C   UNL     1       4.456   2.888   0.163  0.00  0.00    +0.179 C 
ATOM     26  O   UNL     1       5.309   3.736  -0.002  0.00  0.00    -0.291 OA
BRANCH  25  29
ATOM     27  C   UNL     1       1.182   4.590   0.471  0.00  0.00    +0.008 A 
ATOM     28  C   UNL     1       2.542   4.539   0.300  0.00  0.00    +0.019 A 
ATOM     29  C   UNL     1       3.103   3.265   0.312  0.00  0.00    +0.055 A 
ATOM     30  S   UNL     1       1.670   2.236   0.563  0.00  0.00    -0.094 S 
ATOM     31  C   UNL     1       0.492   3.431   0.636  0.00  0.00    +0.046 A 
ENDBRANCH  25  29
ENDBRANCH   1  25
BRANCH   7  32
ATOM     32  O   UNL     1       4.270   1.397   2.560  0.00  0.00    -0.364 OA
ATOM     33  H   UNL     1       4.492   1.191   3.478  0.00  0.00    +0.212 HD
ENDBRANCH   7  32
TORSDOF 7
