REMARK  Name = ZINC08793700
REMARK  14 active torsions:
REMARK  status: ('A' for Active; 'I' for Inactive)
REMARK    1  A    between atoms: C_1  and  C_2
REMARK    2  A    between atoms: C_2  and  C_3
REMARK    3  A    between atoms: C_7  and  C_37
REMARK    4  A    between atoms: C_8  and  N_9
REMARK    5  A    between atoms: C_10  and  C_23
REMARK    6  A    between atoms: C_13  and  S_14
REMARK    7  A    between atoms: S_14  and  C_15
REMARK    8  A    between atoms: C_15  and  C_17
REMARK    9  A    between atoms: C_15  and  C_18
REMARK   10  A    between atoms: C_18  and  O_20
REMARK   11  A    between atoms: O_20  and  C_21
REMARK   12  A    between atoms: C_21  and  C_22
REMARK   13  A    between atoms: C_23  and  N_24
REMARK   14  A    between atoms: C_25  and  C_27
REMARK                            x       y       z     vdW  Elec       q    Type
REMARK                         _______ _______ _______ _____ _____    ______ ____
ROOT
ATOM      1  N   UNL     1      -4.282   2.599  -1.287  0.00  0.00    -0.272 N 
ATOM      2  C   UNL     1      -3.859   2.125  -0.073  0.00  0.00    +0.156 A 
ATOM      3  N   UNL     1      -4.497   2.792   0.846  0.00  0.00    -0.132 NA
ATOM      4  N   UNL     1      -5.282   3.653   0.304  0.00  0.00    -0.122 NA
ATOM      5  C   UNL     1      -5.194   3.578  -1.004  0.00  0.00    +0.197 A 
ENDROOT
BRANCH   1  11
ATOM      6  C   UNL     1      -4.465   1.064  -3.146  0.00  0.00    -0.023 A 
ATOM      7  C   UNL     1      -4.057   0.646  -4.398  0.00  0.00    +0.005 A 
ATOM      8  C   UNL     1      -3.047   1.320  -5.058  0.00  0.00    +0.001 A 
ATOM      9  C   UNL     1      -2.445   2.418  -4.471  0.00  0.00    +0.005 A 
ATOM     10  C   UNL     1      -2.852   2.844  -3.221  0.00  0.00    -0.026 A 
ATOM     11  C   UNL     1      -3.866   2.169  -2.556  0.00  0.00    +0.056 A 
ATOM     12  C   UNL     1      -2.196   4.040  -2.581  0.00  0.00    +0.046 C 
BRANCH   6  14
ATOM     13  C   UNL     1      -6.906   0.996  -2.715  0.00  0.00    +0.009 C 
ATOM     14  C   UNL     1      -5.562   0.325  -2.424  0.00  0.00    +0.034 C 
ENDBRANCH   6  14
ENDBRANCH   1  11
BRANCH   5  15
ATOM     15  S   UNL     1      -6.083   4.552  -2.172  0.00  0.00    -0.071 S 
BRANCH  15  16
ATOM     16  C   UNL     1      -7.055   5.583  -1.046  0.00  0.00    +0.160 C 
ATOM     17  C   UNL     1      -8.033   4.704  -0.264  0.00  0.00    +0.031 C 
BRANCH  16  18
ATOM     18  C   UNL     1      -7.825   6.606  -1.841  0.00  0.00    +0.320 C 
ATOM     19  O   UNL     1      -8.104   6.389  -2.996  0.00  0.00    -0.250 OA
BRANCH  18  20
ATOM     20  O   UNL     1      -8.201   7.759  -1.265  0.00  0.00    -0.464 OA
BRANCH  20  21
ATOM     21  C   UNL     1      -8.940   8.698  -2.090  0.00  0.00    +0.229 C 
ATOM     22  C   UNL     1      -9.280   9.943  -1.268  0.00  0.00    +0.048 C 
ENDBRANCH  20  21
ENDBRANCH  18  20
ENDBRANCH  16  18
ENDBRANCH  15  16
ENDBRANCH   5  15
BRANCH   2  23
ATOM     23  C   UNL     1      -2.848   1.032   0.156  0.00  0.00    +0.181 C 
BRANCH  23  24
ATOM     24  N   UNL     1      -1.514   1.622   0.302  0.00  0.00    -0.308 N 
ATOM     25  C   UNL     1      -0.436   0.825   0.436  0.00  0.00    +0.220 C 
ATOM     26  O   UNL     1      -0.556  -0.379   0.346  0.00  0.00    -0.275 OA
ATOM     27  H   UNL     1      -1.408   2.586   0.302  0.00  0.00    +0.149 HD
BRANCH  25  28
ATOM     28  C   UNL     1       0.921   1.429   0.692  0.00  0.00    +0.048 C 
ATOM     29  C   UNL     1       1.342   2.266  -0.518  0.00  0.00    +0.019 C 
ATOM     30  C   UNL     1       2.719   2.880  -0.259  0.00  0.00    -0.009 C 
ATOM     31  C   UNL     1       3.740   1.763  -0.030  0.00  0.00    +0.007 C 
ATOM     32  C   UNL     1       3.319   0.927   1.180  0.00  0.00    -0.009 C 
ATOM     33  C   UNL     1       1.942   0.313   0.921  0.00  0.00    +0.019 C 
ATOM     34  C   UNL     1       3.253   1.821   2.420  0.00  0.00    +0.007 C 
ATOM     35  C   UNL     1       2.232   2.937   2.191  0.00  0.00    -0.009 C 
ATOM     36  C   UNL     1       2.654   3.773   0.981  0.00  0.00    +0.007 C 
ATOM     37  C   UNL     1       0.855   2.323   1.931  0.00  0.00    +0.019 C 
ENDBRANCH  25  28
ENDBRANCH  23  24
ENDBRANCH   2  23
TORSDOF 10
