REMARK  Name = ZINC02113183
REMARK  2 active torsions:
REMARK  status: ('A' for Active; 'I' for Inactive)
REMARK    1  A    between atoms: C_11  and  C_30
REMARK    2  A    between atoms: N_19  and  C_23
REMARK                            x       y       z     vdW  Elec       q    Type
REMARK                         _______ _______ _______ _____ _____    ______ ____
ROOT
ATOM      1  C   UNL     1       3.004   6.540  -3.806  0.00  0.00    +0.001 A 
ATOM      2  C   UNL     1       4.356   6.740  -3.578  0.00  0.00    +0.002 A 
ATOM      3  C   UNL     1       5.078   5.964  -2.688  0.00  0.00    +0.026 A 
ATOM      4  C   UNL     1       4.383   4.958  -2.020  0.00  0.00    +0.047 A 
ATOM      5  C   UNL     1       2.999   4.756  -2.259  0.00  0.00    +0.003 A 
ATOM      6  C   UNL     1       2.294   5.556  -3.163  0.00  0.00    +0.010 A 
ATOM      7  C   UNL     1       2.605   3.645  -1.416  0.00  0.00    -0.015 A 
ATOM      8  C   UNL     1       3.707   3.253  -0.740  0.00  0.00    +0.046 A 
ATOM      9  N   UNL     1       4.775   4.032  -1.097  0.00  0.00    -0.356 N 
ATOM     10  H   UNL     1       5.675   3.940  -0.747  0.00  0.00    +0.166 HD
ATOM     11  C   UNL     1       3.714   2.115   0.255  0.00  0.00    +0.154 C 
ATOM     12  N   UNL     1       2.436   1.388   0.105  0.00  0.00    -0.276 N 
ATOM     13  C   UNL     1       1.208   2.177   0.005  0.00  0.00    +0.167 C 
ATOM     14  C   UNL     1       1.246   3.007  -1.286  0.00  0.00    +0.069 C 
ATOM     15  C   UNL     1      -0.014   1.317   0.013  0.00  0.00    +0.237 C 
ATOM     16  O   UNL     1      -1.095   1.867   0.022  0.00  0.00    -0.274 OA
ATOM     17  N   UNL     1       0.007  -0.014   0.005  0.00  0.00    -0.288 N 
ATOM     18  C   UNL     1       1.228  -0.803  -0.006  0.00  0.00    +0.204 C 
ATOM     19  C   UNL     1       2.450   0.054   0.065  0.00  0.00    +0.234 C 
ATOM     20  O   UNL     1       3.529  -0.500   0.088  0.00  0.00    -0.274 OA
ENDROOT
BRANCH  17  21
ATOM     21  C   UNL     1      -1.273  -0.725   0.009  0.00  0.00    +0.077 C 
ATOM     22  C   UNL     1      -1.379  -1.556   1.304  0.00  0.00    +0.022 C 
ATOM     23  C   UNL     1      -2.831  -1.861   1.560  0.00  0.00    +0.002 C 
ATOM     24  C   UNL     1      -3.256  -3.226   0.988  0.00  0.00    +0.000 C 
ATOM     25  C   UNL     1      -2.667  -3.499  -0.410  0.00  0.00    +0.000 C 
ATOM     26  C   UNL     1      -2.709  -2.286  -1.299  0.00  0.00    +0.002 C 
ATOM     27  C   UNL     1      -1.359  -1.549  -1.187  0.00  0.00    +0.022 C 
ENDBRANCH  17  21
BRANCH  11  28
ATOM     28  C   UNL     1       3.832   2.660   1.655  0.00  0.00    -0.021 A 
ATOM     29  C   UNL     1       2.956   3.636   2.093  0.00  0.00    +0.007 A 
ATOM     30  C   UNL     1       3.060   4.132   3.379  0.00  0.00    +0.020 A 
ATOM     31  C   UNL     1       4.048   3.660   4.224  0.00  0.00    +0.041 A 
ATOM     32  C   UNL     1       4.928   2.687   3.784  0.00  0.00    +0.020 A 
ATOM     33  C   UNL     1       4.820   2.188   2.499  0.00  0.00    +0.007 A 
ATOM     34 CL   UNL     1       4.185   4.288   5.837  0.00  0.00    -0.084 Cl
ENDBRANCH  11  28
TORSDOF 2
