REMARK  Name = ZINC01300699
REMARK  8 active torsions:
REMARK  status: ('A' for Active; 'I' for Inactive)
REMARK    1  A    between atoms: C_1  and  C_2
REMARK    2  A    between atoms: C_2  and  C_3
REMARK    3  A    between atoms: C_2  and  C_4
REMARK    4  A    between atoms: C_4  and  C_5
REMARK    5  A    between atoms: C_14  and  S_18
REMARK    6  A    between atoms: S_18  and  C_19
REMARK    7  A    between atoms: C_19  and  C_20
REMARK    8  A    between atoms: N_22  and  C_23
REMARK                            x       y       z     vdW  Elec       q    Type
REMARK                         _______ _______ _______ _____ _____    ______ ____
ROOT
ATOM      1  C   UNL     1      -4.617   5.613   0.043  0.00  0.00    +0.046 A 
ATOM      2  C   UNL     1      -4.880   4.245   0.057  0.00  0.00    -0.022 A 
ATOM      3  C   UNL     1      -3.841   3.353   0.043  0.00  0.00    -0.031 A 
ATOM      4  C   UNL     1      -2.510   3.844   0.023  0.00  0.00    +0.037 A 
ATOM      5  C   UNL     1      -1.266   3.052   0.010  0.00  0.00    +0.093 A 
ATOM      6  C   UNL     1      -0.082   3.781  -0.007  0.00  0.00    +0.085 A 
ATOM      7  C   UNL     1       1.165   3.135  -0.018  0.00  0.00    +0.179 A 
ATOM      8  N   UNL     1       2.422   3.523  -0.032  0.00  0.00    -0.127 NA
ATOM      9  N   UNL     1       3.196   2.495  -0.037  0.00  0.00    -0.122 NA
ATOM     10  C   UNL     1       2.487   1.388  -0.025  0.00  0.00    +0.198 A 
ATOM     11  N   UNL     1       1.174   1.749  -0.013  0.00  0.00    -0.260 N 
ATOM     12  C   UNL     1      -0.012   1.077   0.002  0.00  0.00    +0.208 A 
ATOM     13  N   UNL     1      -1.155   1.684   0.008  0.00  0.00    -0.235 NA
ATOM     14  S   UNL     1      -0.594   5.478  -0.011  0.00  0.00    -0.063 S 
ATOM     15  C   UNL     1      -2.353   5.241   0.014  0.00  0.00    +0.111 A 
ATOM     16  N   UNL     1      -3.379   6.063   0.022  0.00  0.00    -0.244 NA
ATOM     17  C   UNL     1      -4.036   1.863   0.047  0.00  0.00    +0.036 C 
ATOM     18  C   UNL     1      -5.453   1.512   0.501  0.00  0.00    +0.005 C 
ATOM     19  C   UNL     1      -6.444   2.341  -0.325  0.00  0.00    +0.005 C 
ATOM     20  C   UNL     1      -6.321   3.804   0.094  0.00  0.00    +0.037 C 
ENDROOT
BRANCH   1  21
ATOM     21  C   UNL     1      -5.763   6.591   0.051  0.00  0.00    +0.058 C 
BRANCH  21  23
ATOM     22  C   UNL     1      -7.413   7.805  -1.379  0.00  0.00    +0.007 C 
ATOM     23  C   UNL     1      -6.171   6.911  -1.388  0.00  0.00    -0.011 C 
ATOM     24  C   UNL     1      -5.025   7.638  -2.094  0.00  0.00    +0.007 C 
ENDBRANCH  21  23
ENDBRANCH   1  21
BRANCH  10  25
ATOM     25  S   UNL     1       3.119  -0.257  -0.025  0.00  0.00    -0.076 S 
BRANCH  25  26
ATOM     26  C   UNL     1       4.919  -0.036  -0.044  0.00  0.00    +0.173 C 
BRANCH  26  27
ATOM     27  C   UNL     1       5.590  -1.385  -0.046  0.00  0.00    +0.227 C 
ATOM     28  O   UNL     1       4.920  -2.396  -0.034  0.00  0.00    -0.275 OA
ATOM     29  N   UNL     1       6.936  -1.468  -0.059  0.00  0.00    -0.285 N 
ATOM     30  H   UNL     1       7.471  -0.663  -0.136  0.00  0.00    +0.155 HD
BRANCH  29  31
ATOM     31  C   UNL     1       7.560  -2.717   0.037  0.00  0.00    +0.033 A 
ATOM     32  C   UNL     1       8.764  -2.841   0.718  0.00  0.00    +0.023 A 
ATOM     33  C   UNL     1       9.376  -4.076   0.816  0.00  0.00    +0.002 A 
ATOM     34  C   UNL     1       8.796  -5.185   0.229  0.00  0.00    +0.000 A 
ATOM     35  C   UNL     1       7.600  -5.063  -0.455  0.00  0.00    +0.002 A 
ATOM     36  C   UNL     1       6.981  -3.832  -0.552  0.00  0.00    +0.023 A 
ENDBRANCH  29  31
ENDBRANCH  26  27
ENDBRANCH  25  26
ENDBRANCH  10  25
TORSDOF 6
