REMARK  Name = ZINC35026479
REMARK  7 active torsions:
REMARK  status: ('A' for Active; 'I' for Inactive)
REMARK    1  A    between atoms: C_1  and  C_2
REMARK    2  A    between atoms: C_2  and  C_4
REMARK    3  A    between atoms: C_2  and  N_16
REMARK    4  A    between atoms: N_14  and  C_15
REMARK    5  A    between atoms: N_16  and  C_17
REMARK    6  A    between atoms: C_17  and  C_18
REMARK    7  A    between atoms: N_26  and  C_27
REMARK                            x       y       z     vdW  Elec       q    Type
REMARK                         _______ _______ _______ _____ _____    ______ ____
ROOT
ATOM      1  N   UNL     1      -0.048  -0.737   1.340  0.00  0.00    -0.272 N 
ATOM      2  C   UNL     1      -0.492  -1.753   2.106  0.00  0.00    +0.303 C 
ATOM      3  O   UNL     1      -1.478  -2.380   1.772  0.00  0.00    -0.253 OA
ATOM      4  N   UNL     1       0.158  -2.074   3.243  0.00  0.00    -0.294 N 
ATOM      5  H   UNL     1       0.945  -1.573   3.509  0.00  0.00    +0.151 HD
ENDROOT
BRANCH   4   6
ATOM      6  C   UNL     1      -0.325  -3.178   4.075  0.00  0.00    +0.037 C 
ATOM      7  C   UNL     1      -1.753  -2.882   4.537  0.00  0.00    +0.029 C 
ATOM      8  C   UNL     1      -2.257  -4.036   5.407  0.00  0.00    -0.008 C 
ATOM      9  C   UNL     1      -1.347  -4.189   6.628  0.00  0.00    +0.007 C 
ATOM     10  C   UNL     1       0.081  -4.485   6.166  0.00  0.00    -0.008 C 
ATOM     11  C   UNL     1       0.585  -3.331   5.296  0.00  0.00    +0.029 C 
ATOM     12  C   UNL     1       0.096  -5.781   5.354  0.00  0.00    +0.007 C 
ATOM     13  C   UNL     1      -0.813  -5.628   4.133  0.00  0.00    -0.008 C 
ATOM     14  C   UNL     1      -2.242  -5.332   4.594  0.00  0.00    +0.007 C 
ATOM     15  C   UNL     1      -0.309  -4.474   3.263  0.00  0.00    +0.029 C 
ENDBRANCH   4   6
BRANCH   1  17
ATOM     16  C   UNL     1      -1.194   1.076   0.164  0.00  0.00    +0.036 C 
ATOM     17  C   UNL     1      -0.754  -0.389   0.105  0.00  0.00    +0.141 C 
BRANCH  17  18
ATOM     18  C   UNL     1       0.164  -0.589  -1.073  0.00  0.00    +0.133 A 
ATOM     19  N   UNL     1       1.344  -1.087  -0.856  0.00  0.00    -0.232 NA
ATOM     20  C   UNL     1       2.224  -1.296  -1.867  0.00  0.00    +0.078 A 
ATOM     21  C   UNL     1       3.493  -1.831  -1.635  0.00  0.00    +0.028 A 
ATOM     22  C   UNL     1       4.354  -2.026  -2.691  0.00  0.00    +0.002 A 
ATOM     23  C   UNL     1       3.978  -1.698  -3.986  0.00  0.00    +0.001 A 
ATOM     24  C   UNL     1       2.732  -1.168  -4.241  0.00  0.00    +0.015 A 
ATOM     25  C   UNL     1       1.845  -0.962  -3.186  0.00  0.00    +0.065 A 
ATOM     26  C   UNL     1       0.502  -0.401  -3.397  0.00  0.00    +0.262 A 
ATOM     27  O   UNL     1       0.113  -0.093  -4.508  0.00  0.00    -0.267 OA
ATOM     28  N   UNL     1      -0.286  -0.246  -2.308  0.00  0.00    -0.298 N 
ATOM     29  C   UNL     1      -1.636   0.303  -2.461  0.00  0.00    +0.154 C 
ENDBRANCH  17  18
ENDBRANCH   1  17
BRANCH   1  30
ATOM     30  C   UNL     1       1.141   0.019   1.742  0.00  0.00    +0.145 C 
BRANCH  30  31
ATOM     31  C   UNL     1       0.741   1.110   2.702  0.00  0.00    -0.030 A 
ATOM     32  C   UNL     1       0.521   2.393   2.237  0.00  0.00    +0.005 A 
ATOM     33  C   UNL     1       0.154   3.393   3.117  0.00  0.00    +0.000 A 
ATOM     34  C   UNL     1       0.008   3.111   4.463  0.00  0.00    +0.000 A 
ATOM     35  C   UNL     1       0.228   1.828   4.927  0.00  0.00    +0.000 A 
ATOM     36  C   UNL     1       0.590   0.826   4.046  0.00  0.00    +0.005 A 
ENDBRANCH  30  31
ENDBRANCH   1  30
TORSDOF 5
