REMARK  Name = ZINC13571065
REMARK  5 active torsions:
REMARK  status: ('A' for Active; 'I' for Inactive)
REMARK    1  A    between atoms: C_1  and  C_2
REMARK    2  A    between atoms: C_2  and  C_28
REMARK    3  A    between atoms: C_6  and  C_17
REMARK    4  A    between atoms: C_11  and  O_16
REMARK    5  A    between atoms: C_12  and  O_15
REMARK                            x       y       z     vdW  Elec       q    Type
REMARK                         _______ _______ _______ _____ _____    ______ ____
ROOT
ATOM      1  C   UNL     1      -0.019   1.526   0.010  0.00  0.00    +0.031 C 
ATOM      2  C   UNL     1       0.002  -0.004   0.002  0.00  0.00    +0.034 C 
ATOM      3  C   UNL     1       0.757  -0.507  -1.236  0.00  0.00    +0.096 C 
ATOM      4  C   UNL     1       0.750  -2.037  -1.227  0.00  0.00    +0.187 C 
ATOM      5  C   UNL     1       1.689  -2.554  -2.325  0.00  0.00    +0.084 C 
ATOM      6  C   UNL     1       1.268  -1.922  -3.654  0.00  0.00    +0.061 C 
ATOM      7  C   UNL     1      -0.223  -2.060  -3.832  0.00  0.00    +0.006 A 
ATOM      8  C   UNL     1      -0.758  -1.903  -5.102  0.00  0.00    +0.011 A 
ATOM      9  C   UNL     1      -2.119  -2.018  -5.306  0.00  0.00    +0.050 A 
ATOM     10  C   UNL     1      -2.960  -2.289  -4.238  0.00  0.00    +0.162 A 
ATOM     11  C   UNL     1      -2.429  -2.448  -2.965  0.00  0.00    +0.201 A 
ATOM     12  C   UNL     1      -1.054  -2.335  -2.762  0.00  0.00    +0.172 A 
ATOM     13  O   UNL     1      -0.569  -2.509  -1.504  0.00  0.00    -0.463 OA
ATOM     14  N   UNL     1       1.193  -2.541   0.070  0.00  0.00    -0.330 N 
ATOM     15  C   UNL     1       1.146  -1.796   1.205  0.00  0.00    +0.142 C 
ATOM     16  N   UNL     1       0.712  -0.499   1.191  0.00  0.00    -0.320 N 
ATOM     17  S   UNL     1       1.628  -2.474   2.641  0.00  0.00    -0.016 SA
ATOM     18  C   UNL     1      -1.430  -0.542  -0.008  0.00  0.00    +0.031 C 
ATOM     19  H   UNL     1       0.869   0.083   1.950  0.00  0.00    +0.148 HD
ATOM     20  H   UNL     1       1.534  -3.447   0.124  0.00  0.00    +0.165 HD
ENDROOT
BRANCH   6  21
ATOM     21  C   UNL     1       1.974  -2.621  -4.787  0.00  0.00    -0.004 A 
ATOM     22  C   UNL     1       1.784  -3.975  -4.990  0.00  0.00    +0.007 A 
ATOM     23  C   UNL     1       2.431  -4.616  -6.029  0.00  0.00    +0.000 A 
ATOM     24  C   UNL     1       3.271  -3.904  -6.867  0.00  0.00    +0.003 A 
ATOM     25  C   UNL     1       3.462  -2.551  -6.665  0.00  0.00    +0.038 A 
ATOM     26  C   UNL     1       2.810  -1.906  -5.628  0.00  0.00    +0.127 A 
ATOM     27  F   UNL     1       2.993  -0.582  -5.433  0.00  0.00    -0.205 F 
ENDBRANCH   6  21
BRANCH  11  28
ATOM     28  O   UNL     1      -3.251  -2.714  -1.914  0.00  0.00    -0.501 OA
ATOM     29  H   UNL     1      -3.396  -3.657  -1.757  0.00  0.00    +0.292 HD
ENDBRANCH  11  28
BRANCH  10  30
ATOM     30  O   UNL     1      -4.301  -2.400  -4.436  0.00  0.00    -0.503 OA
ATOM     31  H   UNL     1      -4.596  -3.298  -4.640  0.00  0.00    +0.292 HD
ENDBRANCH  10  30
TORSDOF 3
