REMARK  Name = ZINC04209937
REMARK  9 active torsions:
REMARK  status: ('A' for Active; 'I' for Inactive)
REMARK    1  A    between atoms: C_1  and  C_2
REMARK    2  A    between atoms: C_7  and  O_8
REMARK    3  A    between atoms: O_8  and  C_9
REMARK    4  A    between atoms: C_9  and  C_10
REMARK    5  A    between atoms: N_12  and  N_13
REMARK    6  A    between atoms: C_14  and  C_15
REMARK    7  A    between atoms: C_20  and  O_21
REMARK    8  A    between atoms: O_21  and  C_22
REMARK    9  A    between atoms: C_22  and  C_24
REMARK                            x       y       z     vdW  Elec       q    Type
REMARK                         _______ _______ _______ _____ _____    ______ ____
ROOT
ATOM      1  C   UNL     1      -0.888   2.976   0.018  0.00  0.00    +0.037 A 
ATOM      2  C   UNL     1      -0.644   1.601   0.033  0.00  0.00    +0.013 A 
ATOM      3  C   UNL     1       0.652   1.134   0.091  0.00  0.00    +0.001 A 
ATOM      4  C   UNL     1       1.714   2.022   0.123  0.00  0.00    +0.004 A 
ATOM      5  C   UNL     1       1.485   3.385   0.103  0.00  0.00    +0.047 A 
ATOM      6  C   UNL     1       0.189   3.872   0.050  0.00  0.00    +0.141 A 
ENDROOT
BRANCH   1   8
ATOM      7  N   UNL     1      -2.494   4.761  -0.058  0.00  0.00    -0.188 NA
ATOM      8  C   UNL     1      -2.271   3.482  -0.038  0.00  0.00    +0.142 C 
BRANCH   7  11
ATOM      9  C   UNL     1      -4.040   6.570  -0.131  0.00  0.00    +0.270 C 
ATOM     10  O   UNL     1      -3.110   7.348  -0.103  0.00  0.00    -0.270 OA
ATOM     11  N   UNL     1      -3.809   5.242  -0.111  0.00  0.00    -0.204 N 
ATOM     12  H   UNL     1      -4.552   4.620  -0.134  0.00  0.00    +0.177 HD
BRANCH   9  13
ATOM     13  C   UNL     1      -5.454   7.088  -0.189  0.00  0.00    +0.326 C 
BRANCH  13  14
ATOM     14  O   UNL     1      -5.438   8.517  -0.200  0.00  0.00    -0.482 OA
BRANCH  14  21
ATOM     15  C   UNL     1      -5.429  11.341  -0.225  0.00  0.00    +0.047 C 
ATOM     16  C   UNL     1      -6.699  10.532  -0.265  0.00  0.00    -0.009 A 
ATOM     17  C   UNL     1      -7.924  11.171  -0.316  0.00  0.00    +0.007 A 
ATOM     18  C   UNL     1      -9.090  10.429  -0.353  0.00  0.00    +0.000 A 
ATOM     19  C   UNL     1      -9.035   9.047  -0.340  0.00  0.00    +0.004 A 
ATOM     20  C   UNL     1      -7.813   8.405  -0.294  0.00  0.00    +0.046 A 
ATOM     21  C   UNL     1      -6.641   9.147  -0.251  0.00  0.00    +0.124 A 
ENDBRANCH  14  21
ENDBRANCH  13  14
ENDBRANCH   9  13
ENDBRANCH   7  11
ENDBRANCH   1   8
BRANCH   6  22
ATOM     22  O   UNL     1      -0.036   5.211   0.031  0.00  0.00    -0.421 OA
BRANCH  22  23
ATOM     23  C   UNL     1      -0.237   5.815   1.220  0.00  0.00    +0.353 C 
ATOM     24  O   UNL     1      -0.311   5.150   2.236  0.00  0.00    -0.244 OA
BRANCH  23  25
ATOM     25  C   UNL     1      -0.367   7.274   1.289  0.00  0.00    +0.116 A 
ATOM     26  C   UNL     1      -0.576   8.057   2.383  0.00  0.00    +0.070 A 
ATOM     27  C   UNL     1      -0.669   9.454   2.238  0.00  0.00    +0.008 A 
ATOM     28  C   UNL     1      -0.879  10.429   3.247  0.00  0.00    +0.010 A 
ATOM     29  C   UNL     1      -0.949  11.748   2.933  0.00  0.00    +0.001 A 
ATOM     30  C   UNL     1      -0.820  12.194   1.623  0.00  0.00    +0.001 A 
ATOM     31  C   UNL     1      -0.616  11.279   0.611  0.00  0.00    +0.016 A 
ATOM     32  C   UNL     1      -0.541   9.936   0.914  0.00  0.00    +0.022 A 
ATOM     33  S   UNL     1      -0.297   8.460  -0.042  0.00  0.00    -0.080 S 
ATOM     34 CL   UNL     1      -0.723   7.334   3.955  0.00  0.00    -0.082 Cl
ENDBRANCH  23  25
ENDBRANCH  22  23
ENDBRANCH   6  22
TORSDOF 8
