REMARK  Name = ZINC35291649
REMARK  9 active torsions:
REMARK  status: ('A' for Active; 'I' for Inactive)
REMARK    1  A    between atoms: C_1  and  C_2
REMARK    2  A    between atoms: C_2  and  O_3
REMARK    3  A    between atoms: O_3  and  C_4
REMARK    4  A    between atoms: C_4  and  C_6
REMARK    5  A    between atoms: C_6  and  C_7
REMARK    6  A    between atoms: C_13  and  C_15
REMARK    7  A    between atoms: C_16  and  N_30
REMARK    8  A    between atoms: C_21  and  C_29
REMARK    9  A    between atoms: C_22  and  C_28
REMARK                            x       y       z     vdW  Elec       q    Type
REMARK                         _______ _______ _______ _____ _____    ______ ____
ROOT
ATOM      1  C   UNL     1       2.710  -8.853   0.514  0.00  0.00    +0.097 A 
ATOM      2  C   UNL     1       2.692 -10.228   0.554  0.00  0.00    +0.053 A 
ATOM      3  C   UNL     1       3.227 -10.894   1.735  0.00  0.00    +0.028 A 
ATOM      4  C   UNL     1       3.311 -12.274   1.993  0.00  0.00    +0.022 A 
ATOM      5  C   UNL     1       3.866 -12.704   3.203  0.00  0.00    -0.001 A 
ATOM      6  C   UNL     1       3.972 -14.076   3.504  0.00  0.00    +0.013 A 
ATOM      7  C   UNL     1       4.516 -14.466   4.688  0.00  0.00    -0.047 A 
ATOM      8  C   UNL     1       4.973 -13.527   5.612  0.00  0.00    -0.046 A 
ATOM      9  C   UNL     1       4.888 -12.193   5.357  0.00  0.00    +0.029 A 
ATOM     10  C   UNL     1       4.332 -11.748   4.144  0.00  0.00    +0.047 A 
ATOM     11  N   UNL     1       4.237 -10.445   3.869  0.00  0.00    -0.349 N 
ATOM     12  C   UNL     1       3.721 -10.021   2.743  0.00  0.00    +0.088 A 
ATOM     13  S   UNL     1       3.456  -8.399   2.067  0.00  0.00    -0.064 S 
ATOM     14  C   UNL     1       5.570 -13.996   6.914  0.00  0.00    +0.044 C 
ATOM     15  C   UNL     1       4.628 -15.935   5.005  0.00  0.00    +0.044 C 
ATOM     16  H   UNL     1       4.558  -9.799   4.517  0.00  0.00    +0.166 HD
ENDROOT
BRANCH   1  23
ATOM     17  C   UNL     1       1.450  -3.859  -2.489  0.00  0.00    +0.061 A 
ATOM     18  C   UNL     1       0.947  -4.602  -3.506  0.00  0.00    +0.072 A 
ATOM     19  S   UNL     1       1.197  -6.251  -2.868  0.00  0.00    -0.060 S 
ATOM     20  C   UNL     1       1.902  -5.828  -1.399  0.00  0.00    +0.165 A 
ATOM     21  N   UNL     1       1.927  -4.513  -1.447  0.00  0.00    -0.229 NA
ATOM     22  N   UNL     1       2.354  -6.664  -0.386  0.00  0.00    -0.260 N 
ATOM     23  C   UNL     1       2.249  -8.001  -0.519  0.00  0.00    +0.258 C 
ATOM     24  O   UNL     1       1.759  -8.476  -1.528  0.00  0.00    -0.269 OA
ATOM     25  H   UNL     1       2.744  -6.285   0.417  0.00  0.00    +0.157 HD
BRANCH  17  26
ATOM     26  C   UNL     1       1.468  -2.353  -2.550  0.00  0.00    +0.176 C 
BRANCH  26  27
ATOM     27  C   UNL     1       0.775  -1.794  -1.334  0.00  0.00    +0.313 C 
ATOM     28  O   UNL     1       0.314  -2.540  -0.504  0.00  0.00    -0.250 OA
BRANCH  27  29
ATOM     29  O   UNL     1       0.671  -0.465  -1.174  0.00  0.00    -0.465 OA
BRANCH  29  31
ATOM     30  C   UNL     1      -0.019   1.526   0.010  0.00  0.00    +0.048 C 
ATOM     31  C   UNL     1       0.002  -0.004   0.002  0.00  0.00    +0.229 C 
ENDBRANCH  29  31
ENDBRANCH  27  29
ENDBRANCH  26  27
ENDBRANCH  17  26
ENDBRANCH   1  23
BRANCH   2  32
ATOM     32  N   UNL     1       2.177 -10.963  -0.503  0.00  0.00    -0.356 N 
ATOM     33  H   UNL     1       1.824 -10.508  -1.284  0.00  0.00    +0.142 HD
ATOM     34  H   UNL     1       2.170 -11.932  -0.463  0.00  0.00    +0.142 HD
ENDBRANCH   2  32
TORSDOF 6
