REMARK  Name = ZINC36303590
REMARK  17 active torsions:
REMARK  status: ('A' for Active; 'I' for Inactive)
REMARK    1  A    between atoms: C_1  and  C_2
REMARK    2  A    between atoms: C_3  and  C_21
REMARK    3  A    between atoms: C_4  and  O_13
REMARK    4  A    between atoms: N_5  and  C_7
REMARK    5  A    between atoms: O_13  and  C_14
REMARK    6  A    between atoms: C_21  and  N_22
REMARK    7  A    between atoms: N_22  and  C_23
REMARK    8  A    between atoms: N_22  and  C_27
REMARK    9  A    between atoms: C_23  and  C_24
REMARK   10  A    between atoms: C_27  and  C_28
REMARK   11  A    between atoms: C_28  and  C_30
REMARK   12  A    between atoms: C_28  and  O_36
REMARK   13  A    between atoms: C_30  and  O_31
REMARK   14  A    between atoms: O_31  and  C_32
REMARK   15  A    between atoms: C_32  and  C_33
REMARK   16  A    between atoms: C_33  and  C_34
REMARK   17  A    between atoms: C_33  and  C_35
REMARK                            x       y       z     vdW  Elec       q    Type
REMARK                         _______ _______ _______ _____ _____    ______ ____
ROOT
ATOM      1  C   UNL     1      -0.143   1.946   0.506  0.00  0.00    +0.068 C 
ATOM      2  C   UNL     1       0.178   0.474   0.459  0.00  0.00    +0.065 A 
ATOM      3  C   UNL     1       0.240  -0.312  -0.696  0.00  0.00    +0.021 A 
ATOM      4  C   UNL     1       0.558  -1.580  -0.321  0.00  0.00    +0.225 A 
ATOM      5  N   UNL     1       0.691  -1.585   1.033  0.00  0.00    -0.200 N 
ATOM      6  N   UNL     1       0.452  -0.283   1.491  0.00  0.00    -0.168 NA
ENDROOT
BRANCH   5   7
ATOM      7  C   UNL     1       1.015  -2.693   1.827  0.00  0.00    +0.069 A 
ATOM      8  C   UNL     1       0.403  -3.918   1.595  0.00  0.00    +0.028 A 
ATOM      9  C   UNL     1       0.724  -5.008   2.379  0.00  0.00    +0.002 A 
ATOM     10  C   UNL     1       1.653  -4.882   3.395  0.00  0.00    +0.000 A 
ATOM     11  C   UNL     1       2.265  -3.663   3.629  0.00  0.00    +0.002 A 
ATOM     12  C   UNL     1       1.952  -2.571   2.844  0.00  0.00    +0.028 A 
ENDBRANCH   5   7
BRANCH   4  13
ATOM     13  O   UNL     1       0.714  -2.646  -1.146  0.00  0.00    -0.436 OA
BRANCH  13  14
ATOM     14  C   UNL     1      -0.394  -3.356  -1.487  0.00  0.00    +0.149 A 
ATOM     15  C   UNL     1      -1.648  -2.923  -1.084  0.00  0.00    +0.048 A 
ATOM     16  C   UNL     1      -2.773  -3.646  -1.432  0.00  0.00    +0.004 A 
ATOM     17  C   UNL     1      -2.649  -4.801  -2.182  0.00  0.00    +0.002 A 
ATOM     18  C   UNL     1      -1.400  -5.236  -2.586  0.00  0.00    +0.024 A 
ATOM     19  C   UNL     1      -0.272  -4.513  -2.245  0.00  0.00    +0.083 A 
ATOM     20 CL   UNL     1       1.295  -5.055  -2.759  0.00  0.00    -0.080 Cl
ENDBRANCH  13  14
ENDBRANCH   4  13
BRANCH   3  21
ATOM     21  C   UNL     1      -0.003   0.161  -2.106  0.00  0.00    -0.036 C 
BRANCH  21  22
ATOM     22  N   UNL     1       1.264   0.614  -2.695  0.00  0.00    +0.384 N 
ATOM     23  H   UNL     1       1.664   1.338  -2.118  0.00  0.00    -0.081 HD
BRANCH  22  24
ATOM     24  C   UNL     1       2.197  -0.518  -2.779  0.00  0.00    -0.075 C 
BRANCH  24  25
ATOM     25  C   UNL     1       3.544  -0.030  -3.317  0.00  0.00    -0.028 C 
ATOM     26  C   UNL     1       3.992  -0.556  -4.682  0.00  0.00    +0.002 C 
ATOM     27  C   UNL     1       4.680  -1.050  -3.407  0.00  0.00    +0.002 C 
ENDBRANCH  24  25
ENDBRANCH  22  24
BRANCH  22  28
ATOM     28  C   UNL     1       1.015   1.144  -4.043  0.00  0.00    -0.044 C 
BRANCH  28  29
ATOM     29  C   UNL     1       0.195   2.431  -3.941  0.00  0.00    +0.124 C 
BRANCH  29  30
ATOM     30  O   UNL     1      -1.128   2.119  -3.497  0.00  0.00    -0.391 OA
ATOM     31  H   UNL     1      -1.609   1.520  -4.085  0.00  0.00    +0.210 HD
ENDBRANCH  29  30
BRANCH  29  32
ATOM     32  C   UNL     1       0.127   3.103  -5.314  0.00  0.00    +0.189 C 
BRANCH  32  33
ATOM     33  O   UNL     1      -0.539   4.362  -5.195  0.00  0.00    -0.377 OA
BRANCH  33  34
ATOM     34  C   UNL     1      -0.656   5.075  -6.428  0.00  0.00    +0.163 C 
BRANCH  34  35
ATOM     35  C   UNL     1      -1.381   6.401  -6.184  0.00  0.00    +0.009 C 
ATOM     36  C   UNL     1      -1.396   7.219  -7.476  0.00  0.00    +0.009 C 
ATOM     37  C   UNL     1      -2.818   6.121  -5.739  0.00  0.00    +0.009 C 
ENDBRANCH  34  35
ENDBRANCH  33  34
ENDBRANCH  32  33
ENDBRANCH  29  32
ENDBRANCH  28  29
ENDBRANCH  22  28
ENDBRANCH  21  22
ENDBRANCH   3  21
TORSDOF 14
