REMARK  Name = ZINC51150177
REMARK  5 active torsions:
REMARK  status: ('A' for Active; 'I' for Inactive)
REMARK    1  A    between atoms: C_2  and  O_10
REMARK    2  A    between atoms: O_10  and  C_11
REMARK    3  A    between atoms: C_11  and  C_12
REMARK    4  A    between atoms: C_13  and  N_17
REMARK    5  A    between atoms: N_17  and  N_18
REMARK                            x       y       z     vdW  Elec       q    Type
REMARK                         _______ _______ _______ _____ _____    ______ ____
ROOT
ATOM      1  C   UNL     1      -0.122   4.080   0.024  0.00  0.00    +0.289 C 
ENDROOT
BRANCH   1   2
ATOM      2  C   UNL     1       0.057   5.576   0.030  0.00  0.00    +0.131 A 
ATOM      3  C   UNL     1       0.159   6.285   1.193  0.00  0.00    +0.126 A 
ATOM      4  S   UNL     1       0.339   7.858   0.627  0.00  0.00    +0.053 S 
ATOM      5  N   UNL     1       0.278   7.550  -1.019  0.00  0.00    -0.108 NA
ATOM      6  N   UNL     1       0.130   6.270  -1.083  0.00  0.00    -0.141 NA
BRANCH   3   7
ATOM      7  N   UNL     1       0.123   5.825   2.507  0.00  0.00    -0.274 N 
ATOM      8  H   UNL     1       0.011   4.878   2.686  0.00  0.00    +0.167 HD
BRANCH   7   9
ATOM      9  N   UNL     1       0.243   6.706   3.543  0.00  0.00    -0.256 NA
ATOM     10  H   UNL     1      -0.458   7.430   3.486  0.00  0.00    +0.140 HD
ATOM     11  H   UNL     1       0.199   6.229   4.431  0.00  0.00    +0.140 HD
ENDBRANCH   7   9
ENDBRANCH   3   7
ENDBRANCH   1   2
BRANCH   1  12
ATOM     12  O   UNL     1       1.159   3.446   0.009  0.00  0.00    -0.484 OA
BRANCH  12  14
ATOM     13  C   UNL     1      -0.017   1.378   0.010  0.00  0.00    +0.068 A 
ATOM     14  C   UNL     1       1.175   2.087   0.002  0.00  0.00    +0.141 A 
ATOM     15  C   UNL     1       2.385   1.407  -0.013  0.00  0.00    +0.084 A 
ATOM     16  C   UNL     1       2.400   0.024  -0.021  0.00  0.00    +0.045 A 
ATOM     17  C   UNL     1       1.210  -0.681  -0.014  0.00  0.00    +0.061 A 
ATOM     18  C   UNL     1       0.002  -0.004   0.002  0.00  0.00    +0.063 A 
ATOM     19 CL   UNL     1      -1.490  -0.892   0.012  0.00  0.00    -0.082 Cl
ATOM     20 CL   UNL     1       1.231  -2.417  -0.024  0.00  0.00    -0.082 Cl
ATOM     21 CL   UNL     1       3.879   2.292  -0.023  0.00  0.00    -0.080 Cl
ENDBRANCH  12  14
ENDBRANCH   1  12
TORSDOF 5
