REMARK  Name = ZINC32911750
REMARK  7 active torsions:
REMARK  status: ('A' for Active; 'I' for Inactive)
REMARK    1  A    between atoms: C_1  and  C_2
REMARK    2  A    between atoms: C_2  and  C_4
REMARK    3  A    between atoms: C_2  and  N_16
REMARK    4  A    between atoms: C_6  and  C_9
REMARK    5  A    between atoms: N_19  and  C_22
REMARK    6  A    between atoms: C_22  and  N_23
REMARK    7  A    between atoms: C_28  and  C_30
REMARK                            x       y       z     vdW  Elec       q    Type
REMARK                         _______ _______ _______ _____ _____    ______ ____
ROOT
ATOM      1  N   UNL     1      -0.867  10.392   3.638  0.00  0.00    -0.295 NA
ATOM      2  C   UNL     1       0.230  11.087   2.950  0.00  0.00    +0.066 C 
ATOM      3  C   UNL     1       0.278  10.638   1.488  0.00  0.00    -0.061 C 
ATOM      4  N   UNL     1       0.465   9.181   1.432  0.00  0.00    +0.394 N 
ATOM      5  C   UNL     1      -0.632   8.485   2.119  0.00  0.00    -0.061 C 
ATOM      6  C   UNL     1      -0.680   8.935   3.582  0.00  0.00    +0.066 C 
ATOM      7  H   UNL     1       1.402   8.939   1.954  0.00  0.00    -0.079 HD
ENDROOT
BRANCH   1   9
ATOM      8  C   UNL     1      -1.281  12.356   5.040  0.00  0.00    +0.034 C 
ATOM      9  C   UNL     1      -0.994  10.853   5.027  0.00  0.00    +0.143 C 
BRANCH   9  10
ATOM     10  C   UNL     1      -2.126  10.119   5.698  0.00  0.00    +0.245 A 
ATOM     11  N   UNL     1      -2.104   9.581   6.893  0.00  0.00    -0.190 NA
ATOM     12  C   UNL     1      -3.331   9.040   7.069  0.00  0.00    +0.202 A 
ATOM     13  N   UNL     1      -4.016   9.272   5.980  0.00  0.00    -0.056 NA
ATOM     14  O   UNL     1      -3.338   9.889   5.185  0.00  0.00    -0.336 OA
BRANCH  12  15
ATOM     15  C   UNL     1      -3.808   8.315   8.273  0.00  0.00    +0.023 A 
ATOM     16  C   UNL     1      -2.961   8.138   9.365  0.00  0.00    +0.013 A 
ATOM     17  C   UNL     1      -3.411   7.466  10.483  0.00  0.00    +0.021 A 
ATOM     18  C   UNL     1      -4.699   6.960  10.517  0.00  0.00    +0.041 A 
ATOM     19  C   UNL     1      -5.543   7.130   9.433  0.00  0.00    +0.021 A 
ATOM     20  C   UNL     1      -5.104   7.804   8.312  0.00  0.00    +0.013 A 
ATOM     21 CL   UNL     1      -5.257   6.111  11.925  0.00  0.00    -0.084 Cl
ENDBRANCH  12  15
ENDBRANCH   9  10
ENDBRANCH   1   9
BRANCH   4  22
ATOM     22  C   UNL     1       0.592   8.720   0.043  0.00  0.00    +0.072 C 
BRANCH  22  23
ATOM     23  N   UNL     1       1.012   7.316   0.031  0.00  0.00    -0.257 N 
ATOM     24  C   UNL     1       2.283   6.865   0.016  0.00  0.00    +0.174 A 
ATOM     25  S   UNL     1       3.697   7.830   0.007  0.00  0.00    -0.012 S 
ATOM     26  N   UNL     1       2.239   5.518   0.015  0.00  0.00    -0.317 N 
ATOM     27  H   UNL     1       3.174   4.937   0.011  0.00  0.00    +0.169 HD
ATOM     28  C   UNL     1       0.913   5.127   0.021  0.00  0.00    +0.167 A 
ATOM     29  N   UNL     1       0.166   6.199   0.033  0.00  0.00    -0.152 NA
BRANCH  28  30
ATOM     30  C   UNL     1       0.425   3.737   0.018  0.00  0.00    +0.056 A 
ATOM     31  C   UNL     1      -0.866   3.275   0.028  0.00  0.00    +0.019 A 
ATOM     32  C   UNL     1      -1.081   1.915   0.017  0.00  0.00    +0.008 A 
ATOM     33  C   UNL     1      -0.013   1.076   0.008  0.00  0.00    +0.046 A 
ATOM     34  S   UNL     1       1.361   2.217   0.001  0.00  0.00    -0.094 S 
ENDBRANCH  28  30
ENDBRANCH  22  23
ENDBRANCH   4  22
TORSDOF 6
