REMARK  Name = ZINC20767179
REMARK  4 active torsions:
REMARK  status: ('A' for Active; 'I' for Inactive)
REMARK    1  A    between atoms: C_3  and  C_8
REMARK    2  A    between atoms: C_18  and  S_20
REMARK    3  A    between atoms: S_20  and  N_23
REMARK    4  A    between atoms: N_23  and  C_24
REMARK                            x       y       z     vdW  Elec       q    Type
REMARK                         _______ _______ _______ _____ _____    ______ ____
ROOT
ATOM      1  C   UNL     1      -7.240   1.430  -0.463  0.00  0.00    +0.251 C 
ATOM      2  O   UNL     1      -6.549   2.267   0.084  0.00  0.00    -0.270 OA
ATOM      3  N   UNL     1      -6.811   0.155  -0.549  0.00  0.00    -0.267 N 
ATOM      4  C   UNL     1      -7.689  -0.893  -1.087  0.00  0.00    +0.114 C 
ATOM      5  C   UNL     1      -7.579  -2.116  -0.166  0.00  0.00    +0.024 C 
ATOM      6  C   UNL     1      -6.143  -2.638  -0.207  0.00  0.00    +0.038 C 
ATOM      7  C   UNL     1      -5.168  -1.521   0.056  0.00  0.00    -0.024 A 
ATOM      8  C   UNL     1      -5.521  -0.193  -0.126  0.00  0.00    +0.040 A 
ATOM      9  C   UNL     1      -4.593   0.813   0.115  0.00  0.00    +0.026 A 
ATOM     10  C   UNL     1      -3.321   0.492   0.545  0.00  0.00    +0.030 A 
ATOM     11  C   UNL     1      -2.969  -0.833   0.725  0.00  0.00    +0.109 A 
ATOM     12  C   UNL     1      -3.889  -1.835   0.483  0.00  0.00    +0.034 A 
ENDROOT
BRANCH   1  15
ATOM     13  C   UNL     1     -10.478   3.241  -1.043  0.00  0.00    +0.002 A 
ATOM     14  C   UNL     1      -9.256   2.892  -0.507  0.00  0.00    +0.013 A 
ATOM     15  C   UNL     1      -8.550   1.809  -1.033  0.00  0.00    +0.039 A 
ATOM     16  C   UNL     1      -9.083   1.090  -2.104  0.00  0.00    +0.033 A 
ATOM     17  C   UNL     1     -10.309   1.446  -2.628  0.00  0.00    +0.042 A 
ATOM     18  C   UNL     1     -11.004   2.522  -2.101  0.00  0.00    +0.020 A 
ATOM     19 CL   UNL     1     -10.977   0.550  -3.956  0.00  0.00    -0.084 Cl
ENDBRANCH   1  15
BRANCH  11  20
ATOM     20  S   UNL     1      -1.344  -1.244   1.270  0.00  0.00    +0.072 S 
ATOM     21  O   UNL     1      -1.409  -2.570   1.777  0.00  0.00    -0.150 OA
ATOM     22  O   UNL     1      -0.890  -0.150   2.054  0.00  0.00    -0.150 OA
BRANCH  20  23
ATOM     23  N   UNL     1      -0.377  -1.298  -0.073  0.00  0.00    -0.216 N 
ATOM     24  H   UNL     1       0.469  -0.601  -0.169  0.00  0.00    +0.174 HD
BRANCH  23  25
ATOM     25  C   UNL     1      -0.634  -2.227  -1.083  0.00  0.00    +0.049 A 
ATOM     26  C   UNL     1      -0.618  -1.831  -2.415  0.00  0.00    +0.024 A 
ATOM     27  C   UNL     1      -0.873  -2.752  -3.411  0.00  0.00    +0.003 A 
ATOM     28  C   UNL     1      -1.144  -4.069  -3.086  0.00  0.00    +0.015 A 
ATOM     29  C   UNL     1      -1.160  -4.467  -1.761  0.00  0.00    +0.020 A 
ATOM     30  C   UNL     1      -0.902  -3.551  -0.759  0.00  0.00    +0.039 A 
ATOM     31 BR   UNL     1      -1.531  -6.269  -1.321  0.00  0.00    -0.050 Br
ENDBRANCH  23  25
ENDBRANCH  20  23
ENDBRANCH  11  20
TORSDOF 4
