REMARK  Name = ZINC18517602
REMARK  11 active torsions:
REMARK  status: ('A' for Active; 'I' for Inactive)
REMARK    1  A    between atoms: C_1  and  C_2
REMARK    2  A    between atoms: N_10  and  C_13
REMARK    3  A    between atoms: C_13  and  C_15
REMARK    4  A    between atoms: C_13  and  C_16
REMARK    5  A    between atoms: C_16  and  O_18
REMARK    6  A    between atoms: O_18  and  C_19
REMARK    7  A    between atoms: C_19  and  C_21
REMARK    8  A    between atoms: C_19  and  C_22
REMARK    9  A    between atoms: N_24  and  C_25
REMARK   10  A    between atoms: C_30  and  C_31
REMARK   11  A    between atoms: C_31  and  C_33
REMARK                            x       y       z     vdW  Elec       q    Type
REMARK                         _______ _______ _______ _____ _____    ______ ____
ROOT
ATOM      1  C   UNL     1       3.534   1.458   0.571  0.00  0.00    +0.329 C 
ATOM      2  O   UNL     1       3.596   2.557   1.070  0.00  0.00    -0.249 OA
ENDROOT
BRANCH   1   3
ATOM      3  C   UNL     1       4.735   0.548   0.602  0.00  0.00    +0.190 C 
ATOM      4  C   UNL     1       5.154   0.207  -0.829  0.00  0.00    +0.040 C 
BRANCH   3  14
ATOM      5  C   UNL     1      10.312   2.880   5.028  0.00  0.00    +0.044 C 
ATOM      6  C   UNL     1       9.310   2.824   3.904  0.00  0.00    -0.050 A 
ATOM      7  C   UNL     1       9.281   3.833   2.960  0.00  0.00    +0.004 A 
ATOM      8  C   UNL     1       8.365   3.796   1.920  0.00  0.00    +0.014 A 
ATOM      9  C   UNL     1       7.473   2.740   1.828  0.00  0.00    +0.049 A 
ATOM     10  C   UNL     1       7.502   1.712   2.791  0.00  0.00    +0.050 A 
ATOM     11  C   UNL     1       8.424   1.762   3.825  0.00  0.00    +0.017 A 
ATOM     12  C   UNL     1       6.435   0.765   2.405  0.00  0.00    +0.255 C 
ATOM     13  O   UNL     1       6.144  -0.255   2.996  0.00  0.00    -0.270 OA
ATOM     14  N   UNL     1       5.841   1.222   1.288  0.00  0.00    -0.220 N 
ATOM     15  C   UNL     1       6.392   2.381   0.886  0.00  0.00    +0.255 C 
ATOM     16  O   UNL     1       6.057   3.025  -0.088  0.00  0.00    -0.270 OA
ENDBRANCH   3  14
ENDBRANCH   1   3
BRANCH   1  17
ATOM     17  O   UNL     1       2.396   1.048  -0.011  0.00  0.00    -0.451 OA
BRANCH  17  18
ATOM     18  C   UNL     1       1.281   1.978  -0.004  0.00  0.00    +0.259 C 
ATOM     19  C   UNL     1       1.336   2.850  -1.260  0.00  0.00    +0.062 C 
BRANCH  18  20
ATOM     20  C   UNL     1      -0.015   1.207   0.015  0.00  0.00    +0.258 C 
ATOM     21  O   UNL     1       0.001  -0.005   0.023  0.00  0.00    -0.271 OA
ATOM     22  N   UNL     1      -1.190   1.866   0.019  0.00  0.00    -0.282 N 
ATOM     23  H   UNL     1      -1.204   2.833   0.094  0.00  0.00    +0.155 HD
BRANCH  22  24
ATOM     24  C   UNL     1      -2.384   1.159  -0.085  0.00  0.00    +0.044 A 
ATOM     25  C   UNL     1      -2.406  -0.087  -0.697  0.00  0.00    +0.024 A 
ATOM     26  C   UNL     1      -3.591  -0.789  -0.794  0.00  0.00    +0.002 A 
ATOM     27  C   UNL     1      -4.768  -0.255  -0.293  0.00  0.00    +0.001 A 
ATOM     28  C   UNL     1      -4.769   0.981   0.313  0.00  0.00    +0.013 A 
ATOM     29  C   UNL     1      -3.575   1.704   0.424  0.00  0.00    +0.038 A 
BRANCH  29  30
ATOM     30  C   UNL     1      -3.568   3.023   1.068  0.00  0.00    +0.162 C 
ATOM     31  O   UNL     1      -2.552   3.686   1.081  0.00  0.00    -0.292 OA
ATOM     32  C   UNL     1      -4.823   3.554   1.712  0.00  0.00    +0.091 C 
ENDBRANCH  29  30
ENDBRANCH  22  24
ENDBRANCH  18  20
ENDBRANCH  17  18
ENDBRANCH   1  17
TORSDOF 7
