REMARK  Name = ZINC63258826
REMARK  13 active torsions:
REMARK  status: ('A' for Active; 'I' for Inactive)
REMARK    1  A    between atoms: C_1  and  C_2
REMARK    2  A    between atoms: C_2  and  C_3
REMARK    3  A    between atoms: C_6  and  C_9
REMARK    4  A    between atoms: C_9  and  C_11
REMARK    5  A    between atoms: C_11  and  O_12
REMARK    6  A    between atoms: O_12  and  C_13
REMARK    7  A    between atoms: C_13  and  C_15
REMARK    8  A    between atoms: C_15  and  C_17
REMARK    9  A    between atoms: C_15  and  N_27
REMARK   10  A    between atoms: C_17  and  C_18
REMARK   11  A    between atoms: C_28  and  O_30
REMARK   12  A    between atoms: O_30  and  C_31
REMARK   13  A    between atoms: C_31  and  C_32
REMARK                            x       y       z     vdW  Elec       q    Type
REMARK                         _______ _______ _______ _____ _____    ______ ____
ROOT
ATOM      1  C   UNL     1       3.300  -3.461   9.394  0.00  0.00    +0.189 C 
ENDROOT
BRANCH   1   2
ATOM      2  N   UNL     1       2.541  -3.418  10.646  0.00  0.00    -0.268 N 
ATOM      3  C   UNL     1       3.017  -4.038  11.744  0.00  0.00    +0.401 C 
ATOM      4  O   UNL     1       4.075  -4.633  11.695  0.00  0.00    -0.226 OA
ATOM      5  H   UNL     1       1.696  -2.942  10.685  0.00  0.00    +0.153 HD
BRANCH   3   6
ATOM      6  O   UNL     1       2.319  -3.998  12.895  0.00  0.00    -0.446 OA
BRANCH   6   7
ATOM      7  C   UNL     1       2.883  -4.678  14.019  0.00  0.00    +0.269 C 
BRANCH   7   8
ATOM      8  C   UNL     1       1.969  -4.525  15.208  0.00  0.00    -0.010 A 
ATOM      9  C   UNL     1       2.124  -3.452  16.065  0.00  0.00    +0.007 A 
ATOM     10  C   UNL     1       1.286  -3.312  17.156  0.00  0.00    +0.000 A 
ATOM     11  C   UNL     1       0.293  -4.245  17.389  0.00  0.00    +0.000 A 
ATOM     12  C   UNL     1       0.138  -5.318  16.531  0.00  0.00    +0.000 A 
ATOM     13  C   UNL     1       0.973  -5.456  15.438  0.00  0.00    +0.007 A 
ENDBRANCH   7   8
ENDBRANCH   6   7
ENDBRANCH   3   6
ENDBRANCH   1   2
BRANCH   1  14
ATOM     14  C   UNL     1       2.354  -3.325   8.229  0.00  0.00    +0.328 C 
ATOM     15  O   UNL     1       1.168  -3.204   8.424  0.00  0.00    -0.249 OA
BRANCH  14  16
ATOM     16  O   UNL     1       2.829  -3.338   6.973  0.00  0.00    -0.455 OA
BRANCH  16  17
ATOM     17  C   UNL     1       1.876  -3.205   5.917  0.00  0.00    +0.311 C 
BRANCH  17  18
ATOM     18  C   UNL     1       2.589  -3.241   4.590  0.00  0.00    +0.200 C 
ATOM     19  O   UNL     1       3.794  -3.368   4.552  0.00  0.00    -0.288 OA
BRANCH  18  23
ATOM     20  C   UNL     1       0.378  -2.898   0.986  0.00  0.00    -0.048 A 
ATOM     21  C   UNL     1       1.754  -3.042   0.939  0.00  0.00    +0.004 A 
ATOM     22  C   UNL     1       2.480  -3.154   2.106  0.00  0.00    +0.012 A 
ATOM     23  C   UNL     1       1.822  -3.121   3.340  0.00  0.00    +0.021 A 
ATOM     24  C   UNL     1       0.432  -2.975   3.379  0.00  0.00    +0.012 A 
ATOM     25  C   UNL     1      -0.279  -2.859   2.203  0.00  0.00    +0.004 A 
BRANCH  20  27
ATOM     26  C   UNL     1      -0.515  -1.302  -0.689  0.00  0.00    +0.009 C 
ATOM     27  C   UNL     1      -0.407  -2.777  -0.294  0.00  0.00    +0.032 C 
ENDBRANCH  20  27
ENDBRANCH  18  23
ENDBRANCH  17  18
ENDBRANCH  16  17
ENDBRANCH  14  16
ENDBRANCH   1  14
BRANCH   1  28
ATOM     28  C   UNL     1       4.309  -2.311   9.369  0.00  0.00    +0.067 C 
BRANCH  28  29
ATOM     29  C   UNL     1       3.580  -1.000   9.520  0.00  0.00    -0.039 C 
ATOM     30  C   UNL     1       3.361  -0.320  10.668  0.00  0.00    -0.001 A 
ATOM     31  C   UNL     1       3.721  -0.586  12.066  0.00  0.00    +0.010 A 
ATOM     32  C   UNL     1       3.354   0.302  13.018  0.00  0.00    +0.001 A 
ATOM     33  C   UNL     1       2.640   1.466  12.705  0.00  0.00    +0.002 A 
ATOM     34  C   UNL     1       2.273   1.780  11.444  0.00  0.00    +0.026 A 
ATOM     35  C   UNL     1       2.607   0.917  10.363  0.00  0.00    +0.043 A 
ATOM     36  N   UNL     1       2.370   0.998   9.076  0.00  0.00    -0.380 N 
ATOM     37  C   UNL     1       2.952  -0.177   8.418  0.00  0.00    +0.144 C 
ATOM     38  H   UNL     1       1.892   1.717   8.633  0.00  0.00    +0.160 HD
ENDBRANCH  28  29
ENDBRANCH   1  28
TORSDOF 12
