REMARK  Name = ZINC22578372
REMARK  13 active torsions:
REMARK  status: ('A' for Active; 'I' for Inactive)
REMARK    1  A    between atoms: C_1  and  C_2
REMARK    2  A    between atoms: C_2  and  O_3
REMARK    3  A    between atoms: O_3  and  C_4
REMARK    4  A    between atoms: C_4  and  C_6
REMARK    5  A    between atoms: C_7  and  C_30
REMARK    6  A    between atoms: N_11  and  C_12
REMARK    7  A    between atoms: C_12  and  C_14
REMARK    8  A    between atoms: C_16  and  C_26
REMARK    9  A    between atoms: N_22  and  C_23
REMARK   10  A    between atoms: C_23  and  C_24
REMARK   11  A    between atoms: C_23  and  C_25
REMARK   12  A    between atoms: C_26  and  C_27
REMARK   13  A    between atoms: C_26  and  C_28
REMARK                            x       y       z     vdW  Elec       q    Type
REMARK                         _______ _______ _______ _____ _____    ______ ____
ROOT
ATOM      1  C   UNL     1      -7.374  -4.173   0.051  0.00  0.00    +0.270 C 
ATOM      2  O   UNL     1      -6.727  -5.206   0.045  0.00  0.00    -0.268 OA
ENDROOT
BRANCH   1   3
ATOM      3  C   UNL     1      -8.854  -4.226   0.062  0.00  0.00    +0.053 A 
ATOM      4  C   UNL     1      -9.615  -3.059   0.063  0.00  0.00    +0.037 A 
ATOM      5  C   UNL     1     -10.998  -3.150   0.074  0.00  0.00    +0.047 A 
ATOM      6  N   UNL     1     -11.614  -4.312   0.084  0.00  0.00    -0.232 NA
ATOM      7  C   UNL     1     -10.948  -5.458   0.083  0.00  0.00    +0.159 A 
ATOM      8  C   UNL     1      -9.539  -5.460   0.067  0.00  0.00    +0.051 A 
ATOM      9  C   UNL     1      -9.125  -6.809   0.063  0.00  0.00    +0.145 A 
ATOM     10  N   UNL     1     -10.183  -7.568   0.071  0.00  0.00    -0.177 NA
ATOM     11  N   UNL     1     -11.335  -6.773   0.092  0.00  0.00    -0.244 N 
BRANCH  11  12
ATOM     12  C   UNL     1     -12.716  -7.262   0.104  0.00  0.00    +0.103 C 
ATOM     13  C   UNL     1     -12.966  -8.117  -1.139  0.00  0.00    +0.032 C 
ATOM     14  C   UNL     1     -12.947  -8.107   1.359  0.00  0.00    +0.032 C 
ENDBRANCH  11  12
BRANCH   5  15
ATOM     15  C   UNL     1     -11.817  -1.885   0.075  0.00  0.00    +0.032 C 
ATOM     16  C   UNL     1     -11.978  -1.383   1.512  0.00  0.00    +0.014 C 
ATOM     17  C   UNL     1     -11.109  -0.818  -0.762  0.00  0.00    +0.014 C 
ENDBRANCH   5  15
ENDBRANCH   1   3
BRANCH   1  23
ATOM     18  C   UNL     1      -2.844  -2.417   0.016  0.00  0.00    +0.118 A 
ATOM     19  C   UNL     1      -3.215  -3.725   0.018  0.00  0.00    +0.036 A 
ATOM     20  N   UNL     1      -4.534  -3.985   0.029  0.00  0.00    -0.339 N 
ATOM     21  H   UNL     1      -4.854  -4.901   0.031  0.00  0.00    +0.167 HD
ATOM     22  C   UNL     1      -5.418  -2.945   0.036  0.00  0.00    +0.164 A 
ATOM     23  N   UNL     1      -6.748  -2.993   0.046  0.00  0.00    -0.152 NA
ATOM     24  S   UNL     1      -4.423  -1.589   0.036  0.00  0.00    -0.046 S 
ATOM     25  C   UNL     1      -2.195  -4.834   0.009  0.00  0.00    +0.065 C 
BRANCH  18  26
ATOM     26  C   UNL     1      -1.497  -1.838   0.006  0.00  0.00    +0.348 C 
ATOM     27  O   UNL     1      -0.523  -2.566  -0.007  0.00  0.00    -0.244 OA
BRANCH  26  28
ATOM     28  O   UNL     1      -1.339  -0.499   0.012  0.00  0.00    -0.461 OA
BRANCH  28  30
ATOM     29  C   UNL     1      -0.019   1.526   0.010  0.00  0.00    +0.048 C 
ATOM     30  C   UNL     1       0.002  -0.004   0.002  0.00  0.00    +0.229 C 
ENDBRANCH  28  30
ENDBRANCH  26  28
ENDBRANCH  18  26
ENDBRANCH   1  23
TORSDOF 7
