REMARK  Name = ZINC58158000
REMARK  9 active torsions:
REMARK  status: ('A' for Active; 'I' for Inactive)
REMARK    1  A    between atoms: C_1  and  C_2
REMARK    2  A    between atoms: C_2  and  C_3
REMARK    3  A    between atoms: C_2  and  C_4
REMARK    4  A    between atoms: C_4  and  C_6
REMARK    5  A    between atoms: C_4  and  N_13
REMARK    6  A    between atoms: C_14  and  C_16
REMARK    7  A    between atoms: C_16  and  S_17
REMARK    8  A    between atoms: S_17  and  C_19
REMARK    9  A    between atoms: C_22  and  N_25
REMARK                            x       y       z     vdW  Elec       q    Type
REMARK                         _______ _______ _______ _____ _____    ______ ____
ROOT
ATOM      1  N   UNL     1       0.738  -1.962  -1.265  0.00  0.00    -0.307 N 
ATOM      2  C   UNL     1       1.710  -2.627  -0.608  0.00  0.00    +0.226 C 
ATOM      3  O   UNL     1       2.567  -2.012  -0.011  0.00  0.00    -0.275 OA
ATOM      4  H   UNL     1       0.052  -2.454  -1.743  0.00  0.00    +0.149 HD
ENDROOT
BRANCH   1   5
ATOM      5  C   UNL     1       0.718  -0.497  -1.257  0.00  0.00    +0.106 C 
BRANCH   5   6
ATOM      6  C   UNL     1      -0.011   0.002  -2.478  0.00  0.00    -0.027 A 
ATOM      7  C   UNL     1      -1.155  -0.643  -2.911  0.00  0.00    +0.008 A 
ATOM      8  C   UNL     1      -1.824  -0.185  -4.030  0.00  0.00    +0.038 A 
ATOM      9  C   UNL     1      -1.349   0.918  -4.718  0.00  0.00    +0.123 A 
ATOM     10  C   UNL     1      -0.203   1.563  -4.283  0.00  0.00    +0.038 A 
ATOM     11  C   UNL     1       0.462   1.107  -3.160  0.00  0.00    +0.008 A 
ATOM     12  F   UNL     1      -2.002   1.366  -5.812  0.00  0.00    -0.205 F 
ENDBRANCH   5   6
BRANCH   5  14
ATOM     13  C   UNL     1      -0.019   1.526   0.010  0.00  0.00    +0.009 C 
ATOM     14  C   UNL     1       0.002  -0.004   0.002  0.00  0.00    +0.008 C 
ATOM     15  C   UNL     1      -1.433  -0.534   0.013  0.00  0.00    +0.009 C 
ENDBRANCH   5  14
ENDBRANCH   1   5
BRANCH   2  16
ATOM     16  C   UNL     1       1.730  -4.134  -0.617  0.00  0.00    +0.204 C 
BRANCH  16  17
ATOM     17  S   UNL     1       3.148  -4.724   0.348  0.00  0.00    +0.063 S 
ATOM     18  O   UNL     1       4.352  -4.417  -0.343  0.00  0.00    -0.252 OA
BRANCH  17  19
ATOM     19  C   UNL     1       3.034  -6.479   0.243  0.00  0.00    +0.039 A 
ATOM     20  C   UNL     1       2.307  -7.182   1.186  0.00  0.00    +0.019 A 
ATOM     21  C   UNL     1       2.217  -8.559   1.104  0.00  0.00    +0.034 A 
ATOM     22  C   UNL     1       2.853  -9.233   0.079  0.00  0.00    +0.126 A 
ATOM     23  C   UNL     1       3.579  -8.531  -0.865  0.00  0.00    +0.034 A 
ATOM     24  C   UNL     1       3.666  -7.153  -0.785  0.00  0.00    +0.019 A 
BRANCH  22  25
ATOM     25  N   UNL     1       2.758 -10.708  -0.009  0.00  0.00    +0.056 N 
ATOM     26  O   UNL     1       2.123 -11.322   0.817  0.00  0.00    -0.126 OA
ATOM     27  O   UNL     1       3.314 -11.298  -0.905  0.00  0.00    -0.126 OA
ENDBRANCH  22  25
ENDBRANCH  17  19
ENDBRANCH  16  17
ENDBRANCH   2  16
TORSDOF 7
