REMARK  Name = ZINC09731838
REMARK  9 active torsions:
REMARK  status: ('A' for Active; 'I' for Inactive)
REMARK    1  A    between atoms: C_1  and  C_2
REMARK    2  A    between atoms: C_2  and  O_3
REMARK    3  A    between atoms: O_3  and  C_4
REMARK    4  A    between atoms: C_7  and  C_12
REMARK    5  A    between atoms: C_9  and  O_10
REMARK    6  A    between atoms: O_10  and  C_11
REMARK    7  A    between atoms: C_17  and  C_21
REMARK    8  A    between atoms: C_17  and  C_22
REMARK    9  A    between atoms: C_27  and  C_29
REMARK                            x       y       z     vdW  Elec       q    Type
REMARK                         _______ _______ _______ _____ _____    ______ ____
ROOT
ATOM      1  C   UNL     1      -3.423  -3.659   0.028  0.00  0.00    +0.176 C 
ATOM      2  C   UNL     1      -4.890  -3.471  -0.292  0.00  0.00    +0.041 C 
ATOM      3  C   UNL     1      -5.479  -2.256  -0.276  0.00  0.00    +0.020 C 
ATOM      4  C   UNL     1      -6.945  -2.100  -0.603  0.00  0.00    +0.058 C 
ATOM      5  C   UNL     1      -7.705  -3.360  -0.181  0.00  0.00    -0.023 C 
ATOM      6  C   UNL     1      -7.097  -4.559  -0.918  0.00  0.00    +0.086 C 
ATOM      7  C   UNL     1      -5.628  -4.626  -0.609  0.00  0.00    +0.164 C 
ATOM      8  O   UNL     1      -5.064  -5.703  -0.634  0.00  0.00    -0.292 OA
ATOM      9  C   UNL     1      -7.570  -3.561   1.330  0.00  0.00    +0.011 C 
ATOM     10  C   UNL     1      -9.182  -3.220  -0.553  0.00  0.00    +0.011 C 
ATOM     11  N   UNL     1      -4.778  -1.115   0.031  0.00  0.00    -0.287 N 
ATOM     12  C   UNL     1      -3.394  -1.180   0.028  0.00  0.00    +0.219 A 
ATOM     13  N   UNL     1      -2.741  -2.371   0.019  0.00  0.00    -0.220 N 
ATOM     14  N   UNL     1      -1.378  -2.080  -0.001  0.00  0.00    -0.147 NA
ATOM     15  C   UNL     1      -1.271  -0.766   0.011  0.00  0.00    +0.183 A 
ATOM     16  N   UNL     1      -2.503  -0.229   0.025  0.00  0.00    -0.193 NA
ATOM     17  H   UNL     1      -5.238  -0.288   0.245  0.00  0.00    +0.155 HD
ENDROOT
BRANCH  15  18
ATOM     18  C   UNL     1       0.002  -0.004   0.002  0.00  0.00    +0.022 A 
ATOM     19  C   UNL     1      -0.017   1.389   0.010  0.00  0.00    +0.012 A 
ATOM     20  C   UNL     1       1.170   2.094   0.002  0.00  0.00    +0.002 A 
ATOM     21  C   UNL     1       2.378   1.419  -0.013  0.00  0.00    +0.020 A 
ATOM     22  C   UNL     1       2.403   0.035  -0.021  0.00  0.00    +0.042 A 
ATOM     23  C   UNL     1       1.220  -0.679  -0.013  0.00  0.00    +0.031 A 
ATOM     24 CL   UNL     1       3.922  -0.804  -0.040  0.00  0.00    -0.084 Cl
ENDBRANCH  15  18
BRANCH   1  28
ATOM     25  C   UNL     1      -3.040  -5.438   3.898  0.00  0.00    +0.162 A 
ATOM     26  C   UNL     1      -3.663  -4.208   3.756  0.00  0.00    +0.050 A 
ATOM     27  C   UNL     1      -3.780  -3.633   2.504  0.00  0.00    +0.010 A 
ATOM     28  C   UNL     1      -3.287  -4.287   1.391  0.00  0.00    -0.015 A 
ATOM     29  C   UNL     1      -2.665  -5.514   1.525  0.00  0.00    +0.055 A 
ATOM     30  C   UNL     1      -2.539  -6.094   2.777  0.00  0.00    +0.162 A 
BRANCH  30  31
ATOM     31  O   UNL     1      -1.926  -7.300   2.912  0.00  0.00    -0.491 OA
ATOM     32  C   UNL     1      -1.436  -7.915   1.719  0.00  0.00    +0.277 C 
ENDBRANCH  30  31
BRANCH  25  33
ATOM     33  O   UNL     1      -2.918  -6.002   5.129  0.00  0.00    -0.489 OA
BRANCH  33  35
ATOM     34  C   UNL     1      -3.227  -6.058   7.525  0.00  0.00    +0.048 C 
ATOM     35  C   UNL     1      -3.456  -5.272   6.233  0.00  0.00    +0.226 C 
ENDBRANCH  33  35
ENDBRANCH  25  33
ENDBRANCH   1  28
TORSDOF 5
