REMARK  Name = ZINC29190489
REMARK  9 active torsions:
REMARK  status: ('A' for Active; 'I' for Inactive)
REMARK    1  A    between atoms: C_1  and  C_2
REMARK    2  A    between atoms: C_3  and  C_14
REMARK    3  A    between atoms: C_4  and  C_13
REMARK    4  A    between atoms: N_5  and  C_7
REMARK    5  A    between atoms: C_14  and  N_15
REMARK    6  A    between atoms: N_15  and  C_16
REMARK    7  A    between atoms: N_15  and  C_17
REMARK    8  A    between atoms: C_17  and  C_18
REMARK    9  A    between atoms: C_31  and  C_33
REMARK                            x       y       z     vdW  Elec       q    Type
REMARK                         _______ _______ _______ _____ _____    ______ ____
ROOT
ATOM      1  N   UNL     1      -2.242  -3.738  -0.080  0.00  0.00    +0.386 N 
ATOM      2  C   UNL     1      -1.638  -4.169  -1.349  0.00  0.00    -0.095 C 
ATOM      3  H   UNL     1      -2.875  -2.862  -0.287  0.00  0.00    -0.081 HD
ENDROOT
BRANCH   1   4
ATOM      4  C   UNL     1      -1.210  -3.331   0.882  0.00  0.00    -0.039 C 
BRANCH   4   7
ATOM      5  C   UNL     1       1.368  -3.266  -0.960  0.00  0.00    +0.068 C 
ATOM      6  C   UNL     1       0.625  -2.064  -0.435  0.00  0.00    +0.062 A 
ATOM      7  C   UNL     1      -0.513  -2.094   0.379  0.00  0.00    -0.020 A 
ATOM      8  C   UNL     1      -0.877  -0.815   0.633  0.00  0.00    +0.043 A 
ATOM      9  N   UNL     1       0.002  -0.004   0.002  0.00  0.00    -0.237 N 
ATOM     10  N   UNL     1       0.931  -0.812  -0.666  0.00  0.00    -0.171 NA
ATOM     11  C   UNL     1      -2.050  -0.375   1.470  0.00  0.00    +0.066 C 
BRANCH   9  12
ATOM     12  C   UNL     1      -0.017   1.398   0.010  0.00  0.00    +0.066 A 
ATOM     13  C   UNL     1      -1.228   2.077   0.019  0.00  0.00    +0.028 A 
ATOM     14  C   UNL     1      -1.243   3.458   0.033  0.00  0.00    +0.002 A 
ATOM     15  C   UNL     1      -0.054   4.164   0.025  0.00  0.00    +0.000 A 
ATOM     16  C   UNL     1       1.153   3.490   0.010  0.00  0.00    +0.002 A 
ATOM     17  C   UNL     1       1.175   2.110   0.002  0.00  0.00    +0.028 A 
ENDBRANCH   9  12
ENDBRANCH   4   7
ENDBRANCH   1   4
BRANCH   1  18
ATOM     18  C   UNL     1      -3.099  -4.792   0.480  0.00  0.00    +0.019 C 
BRANCH  18  19
ATOM     19  C   UNL     1      -4.284  -5.010  -0.425  0.00  0.00    +0.204 C 
ATOM     20  O   UNL     1      -4.403  -4.353  -1.438  0.00  0.00    -0.277 OA
ATOM     21  N   UNL     1      -5.211  -5.936  -0.110  0.00  0.00    -0.268 N 
ATOM     22  C   UNL     1      -5.085  -6.703   1.056  0.00  0.00    +0.058 A 
ATOM     23  C   UNL     1      -4.125  -7.696   1.149  0.00  0.00    +0.025 A 
ATOM     24  C   UNL     1      -4.031  -8.458   2.300  0.00  0.00    +0.002 A 
ATOM     25  C   UNL     1      -4.895  -8.233   3.356  0.00  0.00    +0.002 A 
ATOM     26  C   UNL     1      -5.851  -7.238   3.275  0.00  0.00    +0.025 A 
ATOM     27  C   UNL     1      -5.943  -6.463   2.131  0.00  0.00    +0.055 A 
ATOM     28  N   UNL     1      -6.866  -5.414   2.047  0.00  0.00    -0.284 N 
ATOM     29  C   UNL     1      -7.656  -5.282   0.959  0.00  0.00    +0.219 C 
ATOM     30  O   UNL     1      -8.391  -4.322   0.862  0.00  0.00    -0.275 OA
ATOM     31  C   UNL     1      -7.630  -6.318  -0.133  0.00  0.00    +0.118 C 
ATOM     32  C   UNL     1      -6.370  -6.155  -0.977  0.00  0.00    +0.087 C 
ATOM     33  C   UNL     1      -6.152  -7.421  -1.808  0.00  0.00    +0.029 C 
ATOM     34  H   UNL     1      -6.951  -4.689   2.870  0.00  0.00    +0.155 HD
ENDBRANCH  18  19
ENDBRANCH   1  18
TORSDOF 5
