REMARK  Name = ZINC01746898
REMARK  8 active torsions:
REMARK  status: ('A' for Active; 'I' for Inactive)
REMARK    1  A    between atoms: C_1  and  C_2
REMARK    2  A    between atoms: C_5  and  N_8
REMARK    3  A    between atoms: C_17  and  S_18
REMARK    4  A    between atoms: S_18  and  C_19
REMARK    5  A    between atoms: C_19  and  C_20
REMARK    6  A    between atoms: N_22  and  N_23
REMARK    7  A    between atoms: C_24  and  C_25
REMARK    8  A    between atoms: C_28  and  O_31
REMARK                            x       y       z     vdW  Elec       q    Type
REMARK                         _______ _______ _______ _____ _____    ______ ____
ROOT
ATOM      1  N   UNL     1       1.304  -4.546  -0.363  0.00  0.00    -0.255 N 
ATOM      2  C   UNL     1       1.815  -3.352   0.018  0.00  0.00    +0.268 A 
ATOM      3  O   UNL     1       3.014  -3.174   0.153  0.00  0.00    -0.267 OA
ATOM      4  C   UNL     1       0.861  -2.309   0.253  0.00  0.00    +0.076 A 
ATOM      5  C   UNL     1       1.149  -0.946   0.666  0.00  0.00    -0.023 A 
ATOM      6  C   UNL     1       0.087  -0.124   0.830  0.00  0.00    -0.004 A 
ATOM      7  S   UNL     1      -1.333  -1.117   0.445  0.00  0.00    -0.073 S 
ATOM      8  C   UNL     1      -0.504  -2.628   0.066  0.00  0.00    +0.117 A 
ATOM      9  N   UNL     1      -0.942  -3.823  -0.310  0.00  0.00    -0.215 NA
ATOM     10  C   UNL     1      -0.033  -4.765  -0.519  0.00  0.00    +0.178 A 
ATOM     11  C   UNL     1       0.109   1.314   1.247  0.00  0.00    +0.043 C 
ATOM     12  C   UNL     1       1.495   1.633   1.824  0.00  0.00    +0.005 C 
ATOM     13  C   UNL     1       2.561   1.091   0.865  0.00  0.00    +0.005 C 
ATOM     14  C   UNL     1       2.567  -0.437   0.909  0.00  0.00    +0.037 C 
ENDROOT
BRANCH   1  19
ATOM     15  C   UNL     1       4.888  -8.834  -1.351  0.00  0.00    +0.044 C 
ATOM     16  C   UNL     1       3.936  -7.696  -1.089  0.00  0.00    -0.050 A 
ATOM     17  C   UNL     1       3.582  -6.841  -2.117  0.00  0.00    +0.005 A 
ATOM     18  C   UNL     1       2.711  -5.796  -1.879  0.00  0.00    +0.026 A 
ATOM     19  C   UNL     1       2.189  -5.605  -0.607  0.00  0.00    +0.052 A 
ATOM     20  C   UNL     1       2.550  -6.462   0.424  0.00  0.00    +0.026 A 
ATOM     21  C   UNL     1       3.418  -7.508   0.179  0.00  0.00    +0.005 A 
ENDBRANCH   1  19
BRANCH  10  22
ATOM     22  S   UNL     1      -0.574  -6.366  -1.019  0.00  0.00    -0.078 S 
BRANCH  22  23
ATOM     23  C   UNL     1      -2.363  -6.093  -1.064  0.00  0.00    +0.174 C 
BRANCH  23  24
ATOM     24  C   UNL     1      -3.055  -7.365  -1.480  0.00  0.00    +0.242 C 
ATOM     25  O   UNL     1      -2.403  -8.359  -1.722  0.00  0.00    -0.273 OA
ATOM     26  N   UNL     1      -4.398  -7.399  -1.583  0.00  0.00    -0.206 N 
ATOM     27  H   UNL     1      -4.920  -6.604  -1.390  0.00  0.00    +0.177 HD
BRANCH  26  28
ATOM     28  N   UNL     1      -5.042  -8.582  -1.970  0.00  0.00    -0.188 NA
ATOM     29  C   UNL     1      -6.335  -8.614  -2.069  0.00  0.00    +0.138 C 
BRANCH  29  30
ATOM     30  C   UNL     1      -7.012  -9.859  -2.476  0.00  0.00    -0.005 A 
ATOM     31  C   UNL     1      -6.263 -11.003  -2.761  0.00  0.00    +0.013 A 
ATOM     32  C   UNL     1      -6.901 -12.166  -3.137  0.00  0.00    +0.046 A 
ATOM     33  C   UNL     1      -8.285 -12.198  -3.242  0.00  0.00    +0.117 A 
ATOM     34  C   UNL     1      -9.034 -11.062  -2.964  0.00  0.00    +0.046 A 
ATOM     35  C   UNL     1      -8.405  -9.896  -2.583  0.00  0.00    +0.013 A 
BRANCH  33  36
ATOM     36  O   UNL     1      -8.909 -13.345  -3.618  0.00  0.00    -0.507 OA
ATOM     37  H   UNL     1      -9.031 -13.431  -4.573  0.00  0.00    +0.292 HD
ENDBRANCH  33  36
ENDBRANCH  29  30
ENDBRANCH  26  28
ENDBRANCH  23  24
ENDBRANCH  22  23
ENDBRANCH  10  22
TORSDOF 7
