REMARK  Name = ZINC63552576
REMARK  11 active torsions:
REMARK  status: ('A' for Active; 'I' for Inactive)
REMARK    1  A    between atoms: C_1  and  C_2
REMARK    2  A    between atoms: C_2  and  N_3
REMARK    3  A    between atoms: C_6  and  C_9
REMARK    4  A    between atoms: C_9  and  N_10
REMARK    5  A    between atoms: N_10  and  C_11
REMARK    6  A    between atoms: N_10  and  S_22
REMARK    7  A    between atoms: C_11  and  C_12
REMARK    8  A    between atoms: C_12  and  C_13
REMARK    9  A    between atoms: S_22  and  C_25
REMARK   10  A    between atoms: C_28  and  C_32
REMARK   11  A    between atoms: C_29  and  C_31
REMARK                            x       y       z     vdW  Elec       q    Type
REMARK                         _______ _______ _______ _____ _____    ______ ____
ROOT
ATOM      1  N   UNL     1       3.949  -2.840  -1.897  0.00  0.00    -0.174 NA
ENDROOT
BRANCH   1   2
ATOM      2  S   UNL     1       5.436  -2.755  -2.620  0.00  0.00    +0.061 S 
ATOM      3  O   UNL     1       6.305  -3.584  -1.860  0.00  0.00    -0.153 OA
ATOM      4  O   UNL     1       5.222  -2.950  -4.012  0.00  0.00    -0.153 OA
BRANCH   2   5
ATOM      5  C   UNL     1       6.017  -1.103  -2.426  0.00  0.00    +0.106 A 
ATOM      6  C   UNL     1       5.720  -0.149  -3.381  0.00  0.00    +0.029 A 
ATOM      7  C   UNL     1       6.176   1.147  -3.229  0.00  0.00    +0.005 A 
ATOM      8  C   UNL     1       6.929   1.489  -2.121  0.00  0.00    -0.047 A 
ATOM      9  C   UNL     1       7.225   0.535  -1.166  0.00  0.00    -0.046 A 
ATOM     10  C   UNL     1       6.766  -0.760  -1.316  0.00  0.00    +0.032 A 
ATOM     11  C   UNL     1       8.047   0.908   0.041  0.00  0.00    +0.044 C 
ATOM     12  C   UNL     1       7.427   2.902  -1.956  0.00  0.00    +0.044 C 
ENDBRANCH   2   5
ENDBRANCH   1   2
BRANCH   1  13
ATOM     13  C   UNL     1       2.734  -2.687  -2.700  0.00  0.00    +0.134 C 
BRANCH  13  17
ATOM     14  N   UNL     1       0.688  -0.476  -1.203  0.00  0.00    -0.274 N 
ATOM     15  C   UNL     1       0.082  -0.639  -2.434  0.00  0.00    +0.085 C 
ATOM     16  C   UNL     1       0.931  -1.077  -3.341  0.00  0.00    +0.011 C 
ATOM     17  C   UNL     1       2.270  -1.230  -2.651  0.00  0.00    +0.112 C 
ATOM     18  N   UNL     1       2.011  -0.808  -1.260  0.00  0.00    -0.233 NA
ATOM     19  H   UNL     1       2.592  -0.024  -1.003  0.00  0.00    +0.145 HD
BRANCH  14  21
ATOM     20  C   UNL     1      -0.019   1.526   0.010  0.00  0.00    +0.026 C 
ATOM     21  C   UNL     1       0.002  -0.004   0.002  0.00  0.00    +0.120 C 
ENDBRANCH  14  21
ENDBRANCH  13  17
ENDBRANCH   1  13
BRANCH   1  22
ATOM     22  C   UNL     1       3.849  -3.067  -0.453  0.00  0.00    +0.114 C 
BRANCH  22  23
ATOM     23  C   UNL     1       3.659  -4.561  -0.184  0.00  0.00    +0.050 C 
BRANCH  23  24
ATOM     24  C   UNL     1       3.557  -4.795   1.302  0.00  0.00    -0.040 C 
ATOM     25  C   UNL     1       2.423  -4.893   2.033  0.00  0.00    -0.001 A 
ATOM     26  C   UNL     1       1.001  -4.814   1.678  0.00  0.00    +0.010 A 
ATOM     27  C   UNL     1       0.073  -4.953   2.652  0.00  0.00    +0.001 A 
ATOM     28  C   UNL     1       0.434  -5.170   3.988  0.00  0.00    +0.002 A 
ATOM     29  C   UNL     1       1.720  -5.255   4.392  0.00  0.00    +0.026 A 
ATOM     30  C   UNL     1       2.778  -5.124   3.451  0.00  0.00    +0.043 A 
ATOM     31  N   UNL     1       4.081  -5.167   3.591  0.00  0.00    -0.380 N 
ATOM     32  C   UNL     1       4.700  -4.974   2.275  0.00  0.00    +0.144 C 
ATOM     33  H   UNL     1       4.556  -5.307   4.425  0.00  0.00    +0.160 HD
ENDBRANCH  23  24
ENDBRANCH  22  23
ENDBRANCH   1  22
TORSDOF 8
