REMARK  Name = ZINC46583214
REMARK  11 active torsions:
REMARK  status: ('A' for Active; 'I' for Inactive)
REMARK    1  A    between atoms: C_1  and  C_2
REMARK    2  A    between atoms: C_2  and  C_4
REMARK    3  A    between atoms: C_2  and  N_11
REMARK    4  A    between atoms: N_11  and  C_12
REMARK    5  A    between atoms: N_11  and  C_13
REMARK    6  A    between atoms: C_13  and  C_14
REMARK    7  A    between atoms: N_16  and  C_17
REMARK    8  A    between atoms: C_21  and  S_23
REMARK    9  A    between atoms: S_23  and  N_26
REMARK   10  A    between atoms: N_26  and  C_27
REMARK   11  A    between atoms: N_26  and  C_28
REMARK                            x       y       z     vdW  Elec       q    Type
REMARK                         _______ _______ _______ _____ _____    ______ ____
ROOT
ATOM      1  C   UNL     1      -3.525  -0.205  -0.933  0.00  0.00    +0.201 C 
ATOM      2  O   UNL     1      -3.924  -0.844   0.018  0.00  0.00    -0.278 OA
ATOM      3  N   UNL     1      -4.351   0.051  -1.967  0.00  0.00    -0.287 N 
ATOM      4  H   UNL     1      -4.055   0.619  -2.695  0.00  0.00    +0.155 HD
ENDROOT
BRANCH   3   5
ATOM      5  C   UNL     1      -5.636  -0.505  -1.990  0.00  0.00    +0.035 A 
ATOM      6  C   UNL     1      -6.200  -0.902  -3.195  0.00  0.00    +0.025 A 
ATOM      7  C   UNL     1      -7.468  -1.449  -3.216  0.00  0.00    +0.024 A 
ATOM      8  C   UNL     1      -8.176  -1.602  -2.036  0.00  0.00    +0.067 A 
ATOM      9  C   UNL     1      -7.616  -1.207  -0.834  0.00  0.00    +0.125 A 
ATOM     10  C   UNL     1      -6.346  -0.665  -0.808  0.00  0.00    +0.053 A 
ATOM     11 CL   UNL     1      -9.770  -2.290  -2.065  0.00  0.00    -0.082 Cl
BRANCH   9  12
ATOM     12  S   UNL     1      -8.521  -1.403   0.665  0.00  0.00    +0.062 S 
ATOM     13  O   UNL     1      -7.689  -0.914   1.708  0.00  0.00    -0.153 OA
ATOM     14  O   UNL     1      -9.823  -0.889   0.424  0.00  0.00    -0.153 OA
BRANCH  12  15
ATOM     15  N   UNL     1      -8.695  -3.030   0.922  0.00  0.00    -0.183 NA
ATOM     16  C   UNL     1      -7.615  -3.791   1.555  0.00  0.00    +0.131 C 
ATOM     17  C   UNL     1      -9.929  -3.708   0.518  0.00  0.00    +0.131 C 
ENDBRANCH  12  15
ENDBRANCH   9  12
ENDBRANCH   3   5
BRANCH   1  18
ATOM     18  C   UNL     1      -2.107   0.303  -0.958  0.00  0.00    +0.019 C 
BRANCH  18  19
ATOM     19  N   UNL     1      -1.418  -0.105   0.274  0.00  0.00    +0.388 N 
ATOM     20  C   UNL     1      -1.306  -1.569   0.310  0.00  0.00    -0.095 C 
ATOM     21  H   UNL     1      -1.945   0.212   1.074  0.00  0.00    -0.081 HD
BRANCH  19  23
ATOM     22  C   UNL     1      -0.192   2.015   0.266  0.00  0.00    -0.008 C 
ATOM     23  C   UNL     1      -0.075   0.490   0.304  0.00  0.00    -0.041 C 
BRANCH  23  24
ATOM     24  C   UNL     1       0.631   0.072   1.568  0.00  0.00    -0.061 A 
ATOM     25  C   UNL     1      -0.066   0.009   2.760  0.00  0.00    +0.003 A 
ATOM     26  C   UNL     1       0.581  -0.375   3.920  0.00  0.00    +0.020 A 
ATOM     27  C   UNL     1       1.926  -0.696   3.887  0.00  0.00    +0.041 A 
ATOM     28  C   UNL     1       2.623  -0.632   2.694  0.00  0.00    +0.020 A 
ATOM     29  C   UNL     1       1.974  -0.254   1.534  0.00  0.00    +0.003 A 
ATOM     30 CL   UNL     1       2.740  -1.177   5.343  0.00  0.00    -0.084 Cl
ENDBRANCH  23  24
ENDBRANCH  19  23
ENDBRANCH  18  19
ENDBRANCH   1  18
TORSDOF 7
