REMARK  Name = ZINC40008080
REMARK  15 active torsions:
REMARK  status: ('A' for Active; 'I' for Inactive)
REMARK    1  A    between atoms: C_1  and  C_2
REMARK    2  A    between atoms: C_2  and  C_3
REMARK    3  A    between atoms: C_3  and  C_4
REMARK    4  A    between atoms: C_4  and  N_5
REMARK    5  A    between atoms: N_5  and  C_6
REMARK    6  A    between atoms: N_5  and  C_10
REMARK    7  A    between atoms: C_6  and  C_7
REMARK    8  A    between atoms: C_7  and  C_8
REMARK    9  A    between atoms: C_8  and  C_9
REMARK   10  A    between atoms: C_10  and  C_11
REMARK   11  A    between atoms: C_11  and  C_12
REMARK   12  A    between atoms: C_12  and  N_13
REMARK   13  A    between atoms: C_14  and  C_30
REMARK   14  A    between atoms: C_21  and  C_29
REMARK   15  A    between atoms: C_33  and  N_36
REMARK                            x       y       z     vdW  Elec       q    Type
REMARK                         _______ _______ _______ _____ _____    ______ ____
ROOT
ATOM      1  N   UNL     1      -5.975  -6.441   0.250  0.00  0.00    -0.284 N 
ATOM      2  C   UNL     1      -6.937  -6.504   1.363  0.00  0.00    +0.144 C 
ATOM      3  C   UNL     1      -8.215  -6.999   0.769  0.00  0.00    +0.072 A 
ATOM      4  C   UNL     1      -9.521  -7.273   1.378  0.00  0.00    +0.199 A 
ATOM      5  O   UNL     1      -9.805  -6.954   2.518  0.00  0.00    -0.287 OA
ATOM      6  C   UNL     1     -10.463  -7.977   0.471  0.00  0.00    +0.065 A 
ATOM      7  C   UNL     1     -11.667  -8.484   0.959  0.00  0.00    +0.018 A 
ATOM      8  C   UNL     1     -12.522  -9.133   0.112  0.00  0.00    -0.050 A 
ATOM      9  C   UNL     1     -12.194  -9.289  -1.227  0.00  0.00    +0.007 A 
ATOM     10  C   UNL     1     -11.011  -8.793  -1.726  0.00  0.00    +0.047 A 
ATOM     11  C   UNL     1     -10.123  -8.125  -0.883  0.00  0.00    +0.139 A 
ATOM     12  O   UNL     1      -8.970  -7.637  -1.397  0.00  0.00    -0.450 OA
ATOM     13  C   UNL     1      -8.005  -7.196  -0.566  0.00  0.00    +0.199 A 
ATOM     14  C   UNL     1      -6.607  -6.842  -0.872  0.00  0.00    +0.283 C 
ATOM     15  O   UNL     1      -6.098  -6.904  -1.973  0.00  0.00    -0.267 OA
ATOM     16  C   UNL     1     -13.824  -9.682   0.636  0.00  0.00    +0.044 C 
ENDROOT
BRANCH   2  17
ATOM     17  C   UNL     1      -7.134  -5.134   1.957  0.00  0.00    -0.022 A 
ATOM     18  C   UNL     1      -7.214  -4.027   1.132  0.00  0.00    +0.008 A 
ATOM     19  C   UNL     1      -7.395  -2.770   1.677  0.00  0.00    +0.033 A 
ATOM     20  C   UNL     1      -7.497  -2.619   3.048  0.00  0.00    +0.126 A 
ATOM     21  C   UNL     1      -7.418  -3.726   3.873  0.00  0.00    +0.033 A 
ATOM     22  C   UNL     1      -7.242  -4.983   3.327  0.00  0.00    +0.008 A 
BRANCH  20  23
ATOM     23  N   UNL     1      -7.690  -1.273   3.632  0.00  0.00    +0.056 N 
ATOM     24  O   UNL     1      -7.758  -0.305   2.910  0.00  0.00    -0.126 OA
ATOM     25  O   UNL     1      -7.779  -1.141   4.830  0.00  0.00    -0.126 OA
ENDBRANCH  20  23
ENDBRANCH   2  17
BRANCH   1  26
ATOM     26  C   UNL     1      -4.577  -6.013   0.344  0.00  0.00    +0.107 C 
BRANCH  26  27
ATOM     27  C   UNL     1      -4.491  -4.502   0.115  0.00  0.00    +0.000 C 
BRANCH  27  28
ATOM     28  C   UNL     1      -3.031  -4.054   0.213  0.00  0.00    -0.077 C 
BRANCH  28  29
ATOM     29  N   UNL     1      -2.931  -2.630  -0.134  0.00  0.00    +0.380 N 
ATOM     30  H   UNL     1      -3.343  -2.476  -1.042  0.00  0.00    -0.082 HD
BRANCH  29  31
ATOM     31  C   UNL     1      -3.646  -1.831   0.870  0.00  0.00    -0.079 C 
BRANCH  31  32
ATOM     32  C   UNL     1      -3.650  -0.361   0.443  0.00  0.00    -0.019 C 
BRANCH  32  34
ATOM     33  C   UNL     1      -4.397   1.941   1.062  0.00  0.00    +0.004 C 
ATOM     34  C   UNL     1      -4.394   0.471   1.489  0.00  0.00    -0.005 C 
ENDBRANCH  32  34
ENDBRANCH  31  32
ENDBRANCH  29  31
BRANCH  29  35
ATOM     35  C   UNL     1      -1.518  -2.231  -0.162  0.00  0.00    -0.079 C 
BRANCH  35  36
ATOM     36  C   UNL     1      -0.808  -2.948  -1.312  0.00  0.00    -0.019 C 
BRANCH  36  37
ATOM     37  C   UNL     1       0.680  -2.595  -1.292  0.00  0.00    -0.005 C 
ATOM     38  C   UNL     1       1.390  -3.312  -2.443  0.00  0.00    +0.004 C 
ENDBRANCH  36  37
ENDBRANCH  35  36
ENDBRANCH  29  35
ENDBRANCH  28  29
ENDBRANCH  27  28
ENDBRANCH  26  27
ENDBRANCH   1  26
TORSDOF 12
