REMARK  Name = ZINC02313901
REMARK  7 active torsions:
REMARK  status: ('A' for Active; 'I' for Inactive)
REMARK    1  A    between atoms: C_1  and  C_2
REMARK    2  A    between atoms: C_5  and  N_8
REMARK    3  A    between atoms: C_9  and  O_28
REMARK    4  A    between atoms: C_10  and  C_14
REMARK    5  A    between atoms: C_11  and  C_13
REMARK    6  A    between atoms: N_15  and  N_16
REMARK    7  A    between atoms: C_17  and  C_27
REMARK                            x       y       z     vdW  Elec       q    Type
REMARK                         _______ _______ _______ _____ _____    ______ ____
ROOT
ATOM      1  N   UNL     1       0.010  -3.953   0.718  0.00  0.00    -0.200 N 
ATOM      2  C   UNL     1       0.716  -4.861   1.427  0.00  0.00    +0.225 A 
ATOM      3  C   UNL     1       0.482  -6.102   0.852  0.00  0.00    +0.079 A 
ATOM      4  C   UNL     1      -0.398  -5.897  -0.235  0.00  0.00    +0.073 A 
ATOM      5  N   UNL     1      -0.675  -4.624  -0.301  0.00  0.00    -0.168 NA
ATOM      6  C   UNL     1      -0.929  -6.965  -1.155  0.00  0.00    +0.068 C 
ENDROOT
BRANCH   1  11
ATOM      7  C   UNL     1      -0.169   1.631   1.719  0.00  0.00    +0.044 C 
ATOM      8  C   UNL     1      -0.122   0.148   1.453  0.00  0.00    -0.050 A 
ATOM      9  C   UNL     1      -0.043  -0.318   0.153  0.00  0.00    +0.005 A 
ATOM     10  C   UNL     1       0.001  -1.676  -0.093  0.00  0.00    +0.028 A 
ATOM     11  C   UNL     1      -0.034  -2.574   0.965  0.00  0.00    +0.069 A 
ATOM     12  C   UNL     1      -0.113  -2.103   2.269  0.00  0.00    +0.028 A 
ATOM     13  C   UNL     1      -0.151  -0.743   2.510  0.00  0.00    +0.005 A 
ENDBRANCH   1  11
BRANCH   3  14
ATOM     14  C   UNL     1       1.044  -7.389   1.291  0.00  0.00    +0.148 C 
ATOM     15  N   UNL     1       2.332  -7.538   1.384  0.00  0.00    -0.170 NA
BRANCH  15  16
ATOM     16  N   UNL     1       3.188  -6.507   0.976  0.00  0.00    -0.182 N 
ATOM     17  C   UNL     1       3.970  -5.878   1.892  0.00  0.00    +0.132 A 
ATOM     18  N   UNL     1       4.789  -4.915   1.592  0.00  0.00    -0.232 NA
ATOM     19  C   UNL     1       4.919  -4.465   0.320  0.00  0.00    +0.078 A 
ATOM     20  C   UNL     1       5.798  -3.429  -0.007  0.00  0.00    +0.028 A 
ATOM     21  C   UNL     1       5.895  -3.009  -1.304  0.00  0.00    +0.002 A 
ATOM     22  C   UNL     1       5.132  -3.596  -2.305  0.00  0.00    +0.001 A 
ATOM     23  C   UNL     1       4.262  -4.611  -2.016  0.00  0.00    +0.015 A 
ATOM     24  C   UNL     1       4.143  -5.059  -0.701  0.00  0.00    +0.067 A 
ATOM     25  C   UNL     1       3.232  -6.149  -0.329  0.00  0.00    +0.282 A 
ATOM     26  O   UNL     1       2.540  -6.707  -1.161  0.00  0.00    -0.265 OA
ATOM     27  C   UNL     1       3.884  -6.321   3.330  0.00  0.00    +0.088 C 
ENDBRANCH  15  16
ENDBRANCH   3  14
BRANCH   2  28
ATOM     28  O   UNL     1       1.506  -4.607   2.499  0.00  0.00    -0.492 OA
ATOM     29  H   UNL     1       1.063  -4.728   3.351  0.00  0.00    +0.294 HD
ENDBRANCH   2  28
TORSDOF 4
