REMARK  Name = ZINC38161760
REMARK  13 active torsions:
REMARK  status: ('A' for Active; 'I' for Inactive)
REMARK    1  A    between atoms: C_1  and  C_2
REMARK    2  A    between atoms: C_3  and  C_24
REMARK    3  A    between atoms: C_9  and  O_23
REMARK    4  A    between atoms: C_10  and  C_13
REMARK    5  A    between atoms: C_13  and  N_14
REMARK    6  A    between atoms: N_14  and  C_15
REMARK    7  A    between atoms: N_14  and  C_19
REMARK    8  A    between atoms: C_15  and  C_16
REMARK    9  A    between atoms: C_16  and  C_17
REMARK   10  A    between atoms: C_16  and  C_18
REMARK   11  A    between atoms: C_19  and  C_20
REMARK   12  A    between atoms: C_20  and  C_21
REMARK   13  A    between atoms: C_20  and  C_22
REMARK                            x       y       z     vdW  Elec       q    Type
REMARK                         _______ _______ _______ _____ _____    ______ ____
ROOT
ATOM      1  C   UNL     1       0.327   1.712   0.640  0.00  0.00    +0.087 C 
ATOM      2  C   UNL     1       0.216   0.212   0.545  0.00  0.00    +0.114 A 
ATOM      3  C   UNL     1      -1.012  -0.358   0.656  0.00  0.00    +0.067 A 
ATOM      4  C   UNL     1      -1.107  -1.829   0.578  0.00  0.00    +0.200 A 
ATOM      5  O   UNL     1      -2.175  -2.401   0.444  0.00  0.00    -0.286 OA
ATOM      6  C   UNL     1       0.169  -2.564   0.673  0.00  0.00    +0.065 A 
ATOM      7  C   UNL     1       0.200  -3.944   0.870  0.00  0.00    +0.019 A 
ATOM      8  C   UNL     1       1.402  -4.588   0.959  0.00  0.00    +0.046 A 
ATOM      9  C   UNL     1       2.592  -3.870   0.855  0.00  0.00    +0.122 A 
ATOM     10  C   UNL     1       2.576  -2.500   0.657  0.00  0.00    +0.020 A 
ATOM     11  C   UNL     1       1.363  -1.831   0.560  0.00  0.00    +0.144 A 
ATOM     12  O   UNL     1       1.328  -0.500   0.349  0.00  0.00    -0.459 OA
ENDROOT
BRANCH   3  13
ATOM     13  C   UNL     1      -2.224   0.474   0.851  0.00  0.00    -0.011 A 
ATOM     14  C   UNL     1      -2.377   1.225   2.014  0.00  0.00    +0.010 A 
ATOM     15  C   UNL     1      -3.506   1.998   2.191  0.00  0.00    +0.020 A 
ATOM     16  C   UNL     1      -4.487   2.027   1.215  0.00  0.00    +0.041 A 
ATOM     17  C   UNL     1      -4.341   1.282   0.057  0.00  0.00    +0.020 A 
ATOM     18  C   UNL     1      -3.212   0.511  -0.132  0.00  0.00    +0.010 A 
ATOM     19 CL   UNL     1      -5.906   3.001   1.443  0.00  0.00    -0.084 Cl
ENDBRANCH   3  13
BRANCH   9  20
ATOM     20  O   UNL     1       3.780  -4.522   0.949  0.00  0.00    -0.506 OA
ATOM     21  H   UNL     1       4.123  -4.837   0.102  0.00  0.00    +0.292 HD
ENDBRANCH   9  20
BRANCH  10  22
ATOM     22  C   UNL     1       3.871  -1.738   0.546  0.00  0.00    -0.036 C 
BRANCH  22  23
ATOM     23  N   UNL     1       4.292  -1.688  -0.860  0.00  0.00    +0.383 N 
ATOM     24  H   UNL     1       4.344  -2.626  -1.229  0.00  0.00    -0.081 HD
BRANCH  23  25
ATOM     25  C   UNL     1       3.316  -0.911  -1.636  0.00  0.00    -0.075 C 
BRANCH  25  26
ATOM     26  C   UNL     1       3.676  -0.976  -3.121  0.00  0.00    -0.034 C 
ATOM     27  C   UNL     1       3.565  -2.422  -3.610  0.00  0.00    +0.005 C 
ATOM     28  C   UNL     1       2.714  -0.093  -3.919  0.00  0.00    +0.005 C 
ENDBRANCH  25  26
ENDBRANCH  23  25
BRANCH  23  29
ATOM     29  C   UNL     1       5.612  -1.050  -0.955  0.00  0.00    -0.075 C 
BRANCH  29  30
ATOM     30  C   UNL     1       6.655  -1.933  -0.267  0.00  0.00    -0.034 C 
ATOM     31  C   UNL     1       6.798  -3.247  -1.036  0.00  0.00    +0.005 C 
ATOM     32  C   UNL     1       8.001  -1.206  -0.243  0.00  0.00    +0.005 C 
ENDBRANCH  29  30
ENDBRANCH  23  29
ENDBRANCH  22  23
ENDBRANCH  10  22
TORSDOF 8
