REMARK  Name = ZINC33380114
REMARK  10 active torsions:
REMARK  status: ('A' for Active; 'I' for Inactive)
REMARK    1  A    between atoms: C_1  and  C_2
REMARK    2  A    between atoms: C_7  and  C_8
REMARK    3  A    between atoms: C_13  and  C_36
REMARK    4  A    between atoms: C_16  and  C_20
REMARK    5  A    between atoms: C_17  and  C_18
REMARK    6  A    between atoms: C_17  and  C_19
REMARK    7  A    between atoms: N_22  and  N_23
REMARK    8  A    between atoms: N_23  and  C_24
REMARK    9  A    between atoms: C_27  and  N_33
REMARK   10  A    between atoms: C_29  and  N_30
REMARK                            x       y       z     vdW  Elec       q    Type
REMARK                         _______ _______ _______ _____ _____    ______ ____
ROOT
ATOM      1  C   UNL     1       0.390  -7.553  -3.161  0.00  0.00    +0.044 C 
ATOM      2  C   UNL     1      -0.179  -6.326  -2.495  0.00  0.00    -0.045 A 
ATOM      3  C   UNL     1       0.459  -5.132  -2.630  0.00  0.00    +0.033 A 
ATOM      4  C   UNL     1      -0.070  -3.986  -2.013  0.00  0.00    +0.090 A 
ATOM      5  C   UNL     1      -1.265  -4.092  -1.258  0.00  0.00    +0.090 A 
ATOM      6  C   UNL     1      -1.894  -5.343  -1.138  0.00  0.00    +0.033 A 
ATOM      7  C   UNL     1      -1.352  -6.432  -1.750  0.00  0.00    -0.045 A 
ATOM      8  C   UNL     1      -2.031  -7.771  -1.619  0.00  0.00    +0.044 C 
ATOM      9  N   UNL     1      -1.778  -3.004  -0.669  0.00  0.00    -0.247 NA
ATOM     10  C   UNL     1      -1.166  -1.856  -0.797  0.00  0.00    +0.079 A 
ATOM     11  C   UNL     1       0.020  -1.751  -1.541  0.00  0.00    +0.071 A 
ATOM     12  N   UNL     1       0.539  -2.798  -2.126  0.00  0.00    -0.248 NA
ATOM     13  C   UNL     1       0.466  -0.287  -1.480  0.00  0.00    +0.018 C 
ATOM     14  C   UNL     1      -0.589   0.472  -2.346  0.00  0.00    +0.015 C 
ATOM     15  C   UNL     1      -1.910   0.371  -1.514  0.00  0.00    +0.024 C 
ATOM     16  C   UNL     1      -1.487  -0.459  -0.260  0.00  0.00    +0.098 C 
ATOM     17  C   UNL     1      -0.030   0.090  -0.037  0.00  0.00    -0.005 C 
ATOM     18  C   UNL     1      -0.009   1.600   0.209  0.00  0.00    +0.013 C 
ATOM     19  C   UNL     1       0.719  -0.677   1.054  0.00  0.00    +0.013 C 
ATOM     20  C   UNL     1       1.939  -0.014  -1.790  0.00  0.00    +0.018 C 
ENDROOT
BRANCH  16  21
ATOM     21  C   UNL     1      -2.419  -0.398   0.923  0.00  0.00    +0.242 C 
ATOM     22  O   UNL     1      -2.030   0.057   1.978  0.00  0.00    -0.273 OA
ATOM     23  N   UNL     1      -3.683  -0.850   0.808  0.00  0.00    -0.236 N 
ATOM     24  H   UNL     1      -4.036  -1.263  -0.148  0.00  0.00    +0.173 HD
BRANCH  23  25
ATOM     25  N   UNL     1      -4.549  -0.793   1.908  0.00  0.00    -0.262 N 
ATOM     26  H   UNL     1      -4.197  -0.380   2.865  0.00  0.00    +0.170 HD
BRANCH  25  27
ATOM     27  C   UNL     1      -5.860  -1.261   1.790  0.00  0.00    +0.075 A 
ATOM     28  C   UNL     1      -6.274  -1.885   0.619  0.00  0.00    +0.029 A 
ATOM     29  C   UNL     1      -7.570  -2.347   0.505  0.00  0.00    +0.035 A 
ATOM     30  C   UNL     1      -8.456  -2.189   1.555  0.00  0.00    +0.128 A 
ATOM     31  C   UNL     1      -8.048  -1.569   2.722  0.00  0.00    +0.067 A 
ATOM     32  C   UNL     1      -6.751  -1.109   2.844  0.00  0.00    +0.150 A 
BRANCH  32  33
ATOM     33  N   UNL     1      -6.314  -0.450   4.095  0.00  0.00    +0.058 N 
ATOM     34  O   UNL     1      -6.717  -0.856   5.170  0.00  0.00    -0.126 OA
ATOM     35  O   UNL     1      -5.550   0.497   4.049  0.00  0.00    -0.126 OA
ENDBRANCH  32  33
BRANCH  30  36
ATOM     36  N   UNL     1      -9.845  -2.686   1.430  0.00  0.00    +0.056 N 
ATOM     37  O   UNL     1     -10.206  -3.232   0.403  0.00  0.00    -0.126 OA
ATOM     38  O   UNL     1     -10.627  -2.548   2.354  0.00  0.00    -0.126 OA
ENDBRANCH  30  36
ENDBRANCH  25  27
ENDBRANCH  23  25
ENDBRANCH  16  21
TORSDOF 5
