REMARK  Name = ZINC57083487
REMARK  4 active torsions:
REMARK  status: ('A' for Active; 'I' for Inactive)
REMARK    1  A    between atoms: C_1  and  C_2
REMARK    2  A    between atoms: C_15  and  C_17
REMARK    3  A    between atoms: C_20  and  N_26
REMARK    4  A    between atoms: C_21  and  N_23
REMARK                            x       y       z     vdW  Elec       q    Type
REMARK                         _______ _______ _______ _____ _____    ______ ____
ROOT
ATOM      1  C   UNL     1       0.850   1.049   2.725  0.00  0.00    +0.008 C 
ATOM      2  C   UNL     1       0.556  -0.176   1.856  0.00  0.00    -0.008 C 
ATOM      3  C   UNL     1      -0.945  -0.473   1.882  0.00  0.00    +0.022 C 
ATOM      4  C   UNL     1      -1.244  -1.678   0.985  0.00  0.00    +0.108 C 
ATOM      5  N   UNL     1      -0.394  -2.803   1.400  0.00  0.00    -0.294 N 
ATOM      6  C   UNL     1       1.055  -2.589   1.493  0.00  0.00    +0.080 C 
ATOM      7  C   UNL     1       1.321  -1.388   2.404  0.00  0.00    +0.012 C 
ATOM      8  C   UNL     1       0.812  -1.694   3.815  0.00  0.00    +0.005 C 
ATOM      9  C   UNL     1       1.519  -2.934   4.362  0.00  0.00    +0.000 C 
ATOM     10  C   UNL     1       1.218  -4.129   3.455  0.00  0.00    +0.002 C 
ATOM     11  C   UNL     1       1.734  -3.832   2.060  0.00  0.00    +0.023 C 
ATOM     12  C   UNL     1      -0.933  -4.004   1.689  0.00  0.00    +0.247 C 
ATOM     13  O   UNL     1      -0.211  -4.960   1.900  0.00  0.00    -0.270 OA
ENDROOT
BRANCH  12  14
ATOM     14  C   UNL     1      -2.398  -4.160   1.748  0.00  0.00    +0.039 A 
ATOM     15  C   UNL     1      -3.218  -3.405   0.904  0.00  0.00    +0.015 A 
ATOM     16  C   UNL     1      -4.585  -3.552   0.962  0.00  0.00    +0.026 A 
ATOM     17  C   UNL     1      -5.152  -4.453   1.860  0.00  0.00    +0.055 A 
ATOM     18  C   UNL     1      -4.338  -5.206   2.702  0.00  0.00    +0.147 A 
ATOM     19  C   UNL     1      -2.970  -5.067   2.645  0.00  0.00    +0.047 A 
BRANCH  18  20
ATOM     20  N   UNL     1      -4.945  -6.161   3.656  0.00  0.00    +0.058 N 
ATOM     21  O   UNL     1      -4.468  -6.301   4.758  0.00  0.00    -0.126 OA
ATOM     22  O   UNL     1      -5.918  -6.802   3.333  0.00  0.00    -0.126 OA
ENDBRANCH  18  20
BRANCH  17  23
ATOM     23  N   UNL     1      -6.533  -4.599   1.916  0.00  0.00    -0.356 N 
ATOM     24  H   UNL     1      -7.094  -4.172   1.250  0.00  0.00    +0.142 HD
ATOM     25  H   UNL     1      -6.936  -5.129   2.622  0.00  0.00    +0.142 HD
ENDBRANCH  17  23
ENDBRANCH  12  14
TORSDOF 3
