REMARK  Name = ZINC39884110
REMARK  4 active torsions:
REMARK  status: ('A' for Active; 'I' for Inactive)
REMARK    1  A    between atoms: C_4  and  C_7
REMARK    2  A    between atoms: N_11  and  C_15
REMARK    3  A    between atoms: C_15  and  C_16
REMARK    4  A    between atoms: N_18  and  C_19
REMARK                            x       y       z     vdW  Elec       q    Type
REMARK                         _______ _______ _______ _____ _____    ______ ____
ROOT
ATOM      1  C   UNL     1       3.754  -0.641  -0.202  0.00  0.00    +0.072 C 
ATOM      2  C   UNL     1       3.776  -1.633  -1.332  0.00  0.00    +0.033 A 
ATOM      3  C   UNL     1       3.542  -2.964  -1.311  0.00  0.00    +0.091 A 
ATOM      4  N   UNL     1       3.662  -3.594  -2.525  0.00  0.00    -0.288 N 
ATOM      5  C   UNL     1       3.977  -2.882  -3.624  0.00  0.00    +0.292 A 
ATOM      6  O   UNL     1       4.117  -3.279  -4.767  0.00  0.00    -0.259 OA
ATOM      7  S   UNL     1       4.128  -1.312  -3.040  0.00  0.00    -0.030 S 
ATOM      8  S   UNL     1       3.094  -3.800   0.205  0.00  0.00    -0.093 S 
ATOM      9  C   UNL     1       2.700  -2.373   1.248  0.00  0.00    +0.153 C 
ATOM     10  C   UNL     1       3.904  -1.393   1.094  0.00  0.00    +0.112 C 
ATOM     11  C   UNL     1       3.845  -0.666   2.396  0.00  0.00    +0.245 C 
ATOM     12  O   UNL     1       4.293   0.575   2.639  0.00  0.00    -0.273 OA
ATOM     13  N   UNL     1       3.269  -1.478   3.264  0.00  0.00    -0.145 NA
ATOM     14  C   UNL     1       2.778  -2.630   2.729  0.00  0.00    +0.253 C 
ATOM     15  O   UNL     1       2.475  -3.650   3.315  0.00  0.00    -0.272 OA
ENDROOT
BRANCH   1  19
ATOM     16  C   UNL     1       0.043   1.474  -0.219  0.00  0.00    +0.000 A 
ATOM     17  C   UNL     1       1.197   2.107   0.203  0.00  0.00    +0.000 A 
ATOM     18  C   UNL     1       2.398   1.422   0.209  0.00  0.00    +0.004 A 
ATOM     19  C   UNL     1       2.445   0.105  -0.207  0.00  0.00    -0.039 A 
ATOM     20  C   UNL     1       1.290  -0.528  -0.629  0.00  0.00    +0.004 A 
ATOM     21  C   UNL     1       0.090   0.157  -0.636  0.00  0.00    +0.000 A 
ENDBRANCH   1  19
BRANCH   4  22
ATOM     22  C   UNL     1       3.450  -5.040  -2.625  0.00  0.00    +0.222 C 
BRANCH  22  23
ATOM     23  C   UNL     1       1.996  -5.315  -2.910  0.00  0.00    +0.237 C 
ATOM     24  O   UNL     1       1.214  -4.394  -3.020  0.00  0.00    -0.274 OA
ATOM     25  N   UNL     1       1.564  -6.585  -3.044  0.00  0.00    -0.284 N 
ATOM     26  H   UNL     1       2.171  -7.323  -2.881  0.00  0.00    +0.155 HD
BRANCH  25  27
ATOM     27  C   UNL     1       0.239  -6.838  -3.418  0.00  0.00    +0.034 A 
ATOM     28  C   UNL     1      -0.421  -7.956  -2.926  0.00  0.00    +0.025 A 
ATOM     29  C   UNL     1      -1.728  -8.203  -3.297  0.00  0.00    +0.022 A 
ATOM     30  C   UNL     1      -2.380  -7.338  -4.157  0.00  0.00    +0.041 A 
ATOM     31  C   UNL     1      -1.725  -6.223  -4.649  0.00  0.00    +0.022 A 
ATOM     32  C   UNL     1      -0.419  -5.968  -4.277  0.00  0.00    +0.025 A 
ATOM     33 CL   UNL     1      -4.023  -7.652  -4.622  0.00  0.00    -0.084 Cl
ENDBRANCH  25  27
ENDBRANCH  22  23
ENDBRANCH   4  22
TORSDOF 4
