REMARK  Name = ZINC00735847
REMARK  9 active torsions:
REMARK  status: ('A' for Active; 'I' for Inactive)
REMARK    1  A    between atoms: C_1  and  C_2
REMARK    2  A    between atoms: C_2  and  C_3
REMARK    3  A    between atoms: C_3  and  C_5
REMARK    4  A    between atoms: C_3  and  N_6
REMARK    5  A    between atoms: C_7  and  C_9
REMARK    6  A    between atoms: C_11  and  N_25
REMARK    7  A    between atoms: C_14  and  N_15
REMARK    8  A    between atoms: N_28  and  C_29
REMARK    9  A    between atoms: C_34  and  C_35
REMARK                            x       y       z     vdW  Elec       q    Type
REMARK                         _______ _______ _______ _____ _____    ______ ____
ROOT
ATOM      1  C   UNL     1      -0.199   0.384  -4.939  0.00  0.00    +0.059 A 
ATOM      2  C   UNL     1      -1.580   0.563  -4.821  0.00  0.00    +0.038 A 
ATOM      3  C   UNL     1      -2.297   1.095  -5.878  0.00  0.00    +0.036 A 
ATOM      4  C   UNL     1      -1.649   1.452  -7.056  0.00  0.00    +0.025 A 
ATOM      5  C   UNL     1      -0.286   1.279  -7.181  0.00  0.00    +0.026 A 
ATOM      6  C   UNL     1       0.450   0.752  -6.127  0.00  0.00    +0.042 A 
ENDROOT
BRANCH   6   7
ATOM      7  N   UNL     1       1.825   0.583  -6.252  0.00  0.00    -0.325 N 
ATOM      8  C   UNL     1       2.398  -0.664  -6.784  0.00  0.00    +0.110 C 
ATOM      9  C   UNL     1       3.113  -0.331  -8.093  0.00  0.00    +0.054 C 
ATOM     10  C   UNL     1       3.996   0.878  -7.929  0.00  0.00    -0.041 A 
ATOM     11  C   UNL     1       5.017   1.061  -8.854  0.00  0.00    +0.004 A 
ATOM     12  C   UNL     1       5.855   2.152  -8.768  0.00  0.00    +0.000 A 
ATOM     13  C   UNL     1       5.680   3.075  -7.753  0.00  0.00    +0.000 A 
ATOM     14  C   UNL     1       4.670   2.894  -6.831  0.00  0.00    +0.005 A 
ATOM     15  C   UNL     1       3.829   1.793  -6.914  0.00  0.00    -0.027 A 
ATOM     16  C   UNL     1       2.761   1.644  -5.865  0.00  0.00    +0.140 C 
ENDBRANCH   6   7
BRANCH   3  17
ATOM     17  N   UNL     1      -3.683   1.275  -5.761  0.00  0.00    -0.269 N 
ATOM     18  C   UNL     1      -4.476   1.123  -6.840  0.00  0.00    +0.308 C 
ATOM     19  O   UNL     1      -4.003   0.739  -7.892  0.00  0.00    -0.252 OA
ATOM     20  N   UNL     1      -5.793   1.396  -6.753  0.00  0.00    -0.269 N 
ATOM     21  H   UNL     1      -4.071   1.510  -4.903  0.00  0.00    +0.156 HD
ATOM     22  H   UNL     1      -6.158   1.766  -5.934  0.00  0.00    +0.156 HD
BRANCH  20  23
ATOM     23  C   UNL     1      -6.633   1.147  -7.844  0.00  0.00    +0.038 A 
ATOM     24  C   UNL     1      -6.151   1.284  -9.139  0.00  0.00    +0.023 A 
ATOM     25  C   UNL     1      -6.982   1.037 -10.214  0.00  0.00    +0.002 A 
ATOM     26  C   UNL     1      -8.293   0.653 -10.001  0.00  0.00    +0.000 A 
ATOM     27  C   UNL     1      -8.777   0.516  -8.713  0.00  0.00    +0.005 A 
ATOM     28  C   UNL     1      -7.948   0.756  -7.634  0.00  0.00    -0.029 A 
ATOM     29  C   UNL     1      -8.474   0.600  -6.230  0.00  0.00    +0.045 C 
ENDBRANCH  20  23
ENDBRANCH   3  17
BRANCH   1  31
ATOM     30  N   UNL     1      -0.054  -0.534  -2.678  0.00  0.00    -0.309 N 
ATOM     31  C   UNL     1       0.573  -0.182  -3.818  0.00  0.00    +0.246 C 
ATOM     32  O   UNL     1       1.775  -0.332  -3.921  0.00  0.00    -0.270 OA
ATOM     33  H   UNL     1      -1.013  -0.414  -2.595  0.00  0.00    +0.149 HD
BRANCH  30  34
ATOM     34  C   UNL     1       0.713  -1.096  -1.563  0.00  0.00    +0.070 C 
ATOM     35  C   UNL     1       0.875  -2.604  -1.766  0.00  0.00    +0.028 C 
BRANCH  34  37
ATOM     36  C   UNL     1      -0.082   0.671   0.014  0.00  0.00    +0.005 C 
ATOM     37  C   UNL     1      -0.029  -0.835  -0.251  0.00  0.00    +0.018 C 
ENDBRANCH  34  37
ENDBRANCH  30  34
ENDBRANCH   1  31
TORSDOF 6
