REMARK  Name = ZINC27100356
REMARK  9 active torsions:
REMARK  status: ('A' for Active; 'I' for Inactive)
REMARK    1  A    between atoms: C_1  and  C_2
REMARK    2  A    between atoms: C_2  and  N_3
REMARK    3  A    between atoms: N_3  and  C_4
REMARK    4  A    between atoms: C_4  and  C_5
REMARK    5  A    between atoms: C_6  and  C_8
REMARK    6  A    between atoms: N_13  and  C_15
REMARK    7  A    between atoms: C_15  and  C_16
REMARK    8  A    between atoms: C_17  and  O_33
REMARK    9  A    between atoms: C_24  and  C_27
REMARK                            x       y       z     vdW  Elec       q    Type
REMARK                         _______ _______ _______ _____ _____    ______ ____
ROOT
ATOM      1  C   UNL     1       1.434   4.093  -0.249  0.00  0.00    +0.020 A 
ATOM      2  C   UNL     1       0.387   3.190  -0.171  0.00  0.00    +0.122 A 
ATOM      3  C   UNL     1       0.628   1.818  -0.222  0.00  0.00    +0.046 A 
ATOM      4  C   UNL     1       1.904   1.347  -0.341  0.00  0.00    +0.019 A 
ATOM      5  C   UNL     1       2.969   2.244  -0.422  0.00  0.00    +0.065 A 
ATOM      6  C   UNL     1       2.737   3.630  -0.376  0.00  0.00    +0.143 A 
ATOM      7  O   UNL     1       3.767   4.495  -0.453  0.00  0.00    -0.462 OA
ATOM      8  C   UNL     1       5.040   4.111  -0.575  0.00  0.00    +0.208 A 
ATOM      9  C   UNL     1       5.407   2.804  -0.632  0.00  0.00    +0.064 A 
ATOM     10  C   UNL     1       4.359   1.771  -0.557  0.00  0.00    +0.200 A 
ATOM     11  O   UNL     1       4.629   0.583  -0.602  0.00  0.00    -0.286 OA
ENDROOT
BRANCH   9  12
ATOM     12  C   UNL     1       6.834   2.425  -0.767  0.00  0.00    -0.011 A 
ATOM     13  C   UNL     1       7.392   1.484   0.097  0.00  0.00    +0.009 A 
ATOM     14  C   UNL     1       8.720   1.131  -0.037  0.00  0.00    +0.001 A 
ATOM     15  C   UNL     1       9.499   1.717  -1.018  0.00  0.00    +0.000 A 
ATOM     16  C   UNL     1       8.951   2.655  -1.875  0.00  0.00    +0.001 A 
ATOM     17  C   UNL     1       7.623   3.012  -1.754  0.00  0.00    +0.009 A 
ENDBRANCH   9  12
BRANCH   2  18
ATOM     18  O   UNL     1      -0.886   3.645  -0.047  0.00  0.00    -0.506 OA
ATOM     19  H   UNL     1      -1.721   2.932   0.016  0.00  0.00    +0.292 HD
ENDBRANCH   2  18
BRANCH   1  20
ATOM     20  C   UNL     1       1.160   5.574  -0.197  0.00  0.00    -0.036 C 
BRANCH  20  25
ATOM     21  C   UNL     1       0.097   7.903  -2.958  0.00  0.00    +0.059 C 
ATOM     22  C   UNL     1       1.347   7.810  -3.837  0.00  0.00    +0.009 C 
ATOM     23  C   UNL     1       1.876   6.373  -3.807  0.00  0.00    -0.018 C 
ATOM     24  C   UNL     1       2.173   5.975  -2.359  0.00  0.00    -0.078 C 
ATOM     25  N   UNL     1       0.946   6.080  -1.560  0.00  0.00    +0.383 N 
ATOM     26  C   UNL     1       0.445   7.460  -1.535  0.00  0.00    -0.066 C 
ATOM     27  H   UNL     1       0.179   5.454  -2.038  0.00  0.00    -0.081 HD
BRANCH  21  29
ATOM     28  N   UNL     1      -0.888   9.888  -4.058  0.00  0.00    -0.302 N 
ATOM     29  C   UNL     1      -0.397   9.327  -2.935  0.00  0.00    +0.217 C 
ATOM     30  O   UNL     1      -0.351   9.968  -1.906  0.00  0.00    -0.275 OA
BRANCH  28  32
ATOM     31  C   UNL     1      -0.029  12.160  -4.349  0.00  0.00    +0.024 C 
ATOM     32  C   UNL     1      -1.265  11.304  -4.064  0.00  0.00    +0.104 C 
ENDBRANCH  28  32
BRANCH  28  33
ATOM     33  C   UNL     1      -1.045   9.082  -5.271  0.00  0.00    +0.104 C 
ATOM     34  C   UNL     1      -2.482   8.566  -5.358  0.00  0.00    +0.024 C 
ENDBRANCH  28  33
ENDBRANCH  21  29
ENDBRANCH  20  25
ENDBRANCH   1  20
TORSDOF 7
