REMARK  Name = ZINC36392168
REMARK  4 active torsions:
REMARK  status: ('A' for Active; 'I' for Inactive)
REMARK    1  A    between atoms: C_4  and  C_7
REMARK    2  A    between atoms: N_15  and  C_16
REMARK    3  A    between atoms: C_16  and  C_17
REMARK    4  A    between atoms: C_21  and  C_29
REMARK                            x       y       z     vdW  Elec       q    Type
REMARK                         _______ _______ _______ _____ _____    ______ ____
ROOT
ATOM      1  C   UNL     1       3.418  -1.421   2.229  0.00  0.00    +0.020 C 
ENDROOT
BRANCH   1   2
ATOM      2  C   UNL     1       3.237  -2.619   3.126  0.00  0.00    +0.203 C 
ATOM      3  O   UNL     1       3.178  -3.732   2.648  0.00  0.00    -0.277 OA
ATOM      4  N   UNL     1       3.140  -2.452   4.460  0.00  0.00    -0.266 N 
ATOM      5  C   UNL     1       3.115  -1.107   5.061  0.00  0.00    +0.168 C 
ATOM      6  C   UNL     1       4.003  -1.142   6.313  0.00  0.00    +0.276 C 
ATOM      7  O   UNL     1       3.503  -2.141   7.205  0.00  0.00    -0.476 OA
ATOM      8  C   UNL     1       3.248  -3.375   6.694  0.00  0.00    +0.143 A 
ATOM      9  C   UNL     1       3.054  -3.556   5.326  0.00  0.00    +0.078 A 
ATOM     10  C   UNL     1       2.784  -4.817   4.820  0.00  0.00    +0.027 A 
ATOM     11  C   UNL     1       2.703  -5.900   5.676  0.00  0.00    +0.002 A 
ATOM     12  C   UNL     1       2.892  -5.725   7.034  0.00  0.00    +0.004 A 
ATOM     13  C   UNL     1       3.172  -4.467   7.545  0.00  0.00    +0.047 A 
BRANCH   6  14
ATOM     14  C   UNL     1       3.971   0.203   6.992  0.00  0.00    +0.253 C 
ATOM     15  O   UNL     1       3.488   0.311   8.099  0.00  0.00    -0.272 OA
ATOM     16  N   UNL     1       4.478   1.285   6.369  0.00  0.00    -0.326 N 
ATOM     17  H   UNL     1       4.864   1.198   5.483  0.00  0.00    +0.145 HD
ATOM     18  H   UNL     1       4.458   2.150   6.806  0.00  0.00    +0.145 HD
ENDBRANCH   6  14
ENDBRANCH   1   2
BRANCH   1  27
ATOM     19  C   UNL     1       3.687  -0.705  -0.040  0.00  0.00    -0.005 C 
ATOM     20  C   UNL     1       4.010  -1.177  -1.454  0.00  0.00    -0.047 A 
ATOM     21  C   UNL     1       3.764  -0.428  -2.601  0.00  0.00    +0.010 A 
ATOM     22  C   UNL     1       4.080  -0.929  -3.818  0.00  0.00    +0.045 A 
ATOM     23  S   UNL     1       4.760  -2.527  -3.393  0.00  0.00    -0.101 S 
ATOM     24  C   UNL     1       4.573  -2.405  -1.638  0.00  0.00    -0.010 A 
ATOM     25  C   UNL     1       4.934  -3.385  -0.569  0.00  0.00    +0.024 C 
ATOM     26  C   UNL     1       4.881  -2.642   0.777  0.00  0.00    -0.072 C 
ATOM     27  N   UNL     1       3.631  -1.873   0.847  0.00  0.00    +0.393 N 
ATOM     28  H   UNL     1       2.862  -2.464   0.569  0.00  0.00    -0.080 HD
BRANCH  19  32
ATOM     29  C   UNL     1      -0.090   1.290  -0.025  0.00  0.00    +0.000 A 
ATOM     30  C   UNL     1       1.080   2.026  -0.026  0.00  0.00    +0.000 A 
ATOM     31  C   UNL     1       2.303   1.381  -0.030  0.00  0.00    +0.002 A 
ATOM     32  C   UNL     1       2.355  -0.001  -0.033  0.00  0.00    -0.057 A 
ATOM     33  C   UNL     1       1.185  -0.737  -0.031  0.00  0.00    +0.002 A 
ATOM     34  C   UNL     1      -0.038  -0.091  -0.028  0.00  0.00    +0.000 A 
ENDBRANCH  19  32
ENDBRANCH   1  27
TORSDOF 4
