REMARK  Name = ZINC01412999
REMARK  6 active torsions:
REMARK  status: ('A' for Active; 'I' for Inactive)
REMARK    1  A    between atoms: C_1  and  C_2
REMARK    2  A    between atoms: C_9  and  C_28
REMARK    3  A    between atoms: C_15  and  C_20
REMARK    4  A    between atoms: C_23  and  O_26
REMARK    5  A    between atoms: O_26  and  C_27
REMARK    6  A    between atoms: C_33  and  C_35
REMARK                            x       y       z     vdW  Elec       q    Type
REMARK                         _______ _______ _______ _____ _____    ______ ____
ROOT
ATOM      1  C   UNL     1      -0.078   6.069   6.005  0.00  0.00    +0.044 C 
ATOM      2  C   UNL     1      -0.038   4.958   4.987  0.00  0.00    -0.049 A 
ATOM      3  C   UNL     1       1.083   4.793   4.194  0.00  0.00    +0.005 A 
ATOM      4  C   UNL     1       1.139   3.764   3.270  0.00  0.00    +0.025 A 
ATOM      5  C   UNL     1       0.064   2.901   3.150  0.00  0.00    +0.053 A 
ATOM      6  C   UNL     1      -1.077   3.089   3.916  0.00  0.00    +0.059 A 
ATOM      7  C   UNL     1      -1.123   4.109   4.852  0.00  0.00    +0.028 A 
ATOM      8  N   UNL     1      -2.163   2.238   3.710  0.00  0.00    -0.250 N 
ATOM      9  C   UNL     1      -2.871   2.225   2.447  0.00  0.00    +0.153 C 
ATOM     10  C   UNL     1      -2.049   1.755   1.272  0.00  0.00    +0.038 C 
ATOM     11  C   UNL     1      -0.719   1.573   1.262  0.00  0.00    +0.017 C 
ATOM     12  N   UNL     1       0.098   1.782   2.328  0.00  0.00    -0.316 N 
ATOM     13  C   UNL     1      -0.013   1.086   0.008  0.00  0.00    +0.059 C 
ATOM     14  C   UNL     1      -0.747   1.590  -1.233  0.00  0.00    +0.032 C 
ATOM     15  C   UNL     1      -2.181   1.050  -1.178  0.00  0.00    +0.088 C 
ATOM     16  C   UNL     1      -2.810   1.500   0.106  0.00  0.00    +0.163 C 
ATOM     17  O   UNL     1      -4.015   1.651   0.148  0.00  0.00    -0.292 OA
ATOM     18  C   UNL     1      -2.559   1.414   4.701  0.00  0.00    +0.325 C 
ATOM     19  O   UNL     1      -3.502   0.670   4.531  0.00  0.00    -0.265 OA
ATOM     20  H   UNL     1       0.754   1.097   2.530  0.00  0.00    +0.152 HD
ENDROOT
BRANCH  14  21
ATOM     21  C   UNL     1      -0.057   1.085  -2.474  0.00  0.00    -0.043 A 
ATOM     22  C   UNL     1       0.069  -0.275  -2.690  0.00  0.00    +0.007 A 
ATOM     23  C   UNL     1       0.696  -0.740  -3.829  0.00  0.00    +0.046 A 
ATOM     24  C   UNL     1       1.209   0.159  -4.753  0.00  0.00    +0.120 A 
ATOM     25  C   UNL     1       1.086   1.523  -4.532  0.00  0.00    +0.046 A 
ATOM     26  C   UNL     1       0.453   1.983  -3.393  0.00  0.00    +0.007 A 
BRANCH  24  27
ATOM     27  O   UNL     1       1.830  -0.296  -5.873  0.00  0.00    -0.495 OA
ATOM     28  C   UNL     1       1.920  -1.713  -6.035  0.00  0.00    +0.277 C 
ENDBRANCH  24  27
ENDBRANCH  14  21
BRANCH   9  29
ATOM     29  C   UNL     1      -3.359   3.622   2.160  0.00  0.00    +0.015 A 
ATOM     30  C   UNL     1      -4.573   4.027   1.713  0.00  0.00    +0.013 A 
ATOM     31  C   UNL     1      -4.801   5.377   1.522  0.00  0.00    +0.008 A 
ATOM     32  C   UNL     1      -3.800   6.255   1.779  0.00  0.00    +0.045 A 
ATOM     33  S   UNL     1      -2.486   5.172   2.314  0.00  0.00    -0.099 S 
ENDBRANCH   9  29
BRANCH  18  34
ATOM     34  C   UNL     1      -1.830   1.418   6.020  0.00  0.00    +0.470 C 
ATOM     35  F   UNL     1      -2.420   0.487   6.882  0.00  0.00    -0.162 F 
ATOM     36  F   UNL     1      -0.489   1.077   5.813  0.00  0.00    -0.162 F 
ATOM     37  F   UNL     1      -1.904   2.693   6.590  0.00  0.00    -0.162 F 
ENDBRANCH  18  34
TORSDOF 4
