REMARK  Name = ZINC36073563
REMARK  14 active torsions:
REMARK  status: ('A' for Active; 'I' for Inactive)
REMARK    1  A    between atoms: C_1  and  C_2
REMARK    2  A    between atoms: C_5  and  C_9
REMARK    3  A    between atoms: C_6  and  C_8
REMARK    4  A    between atoms: C_9  and  N_10
REMARK    5  A    between atoms: N_10  and  C_11
REMARK    6  A    between atoms: N_10  and  C_24
REMARK    7  A    between atoms: C_11  and  C_12
REMARK    8  A    between atoms: C_14  and  C_17
REMARK    9  A    between atoms: N_19  and  C_20
REMARK   10  A    between atoms: C_20  and  C_21
REMARK   11  A    between atoms: C_21  and  C_22
REMARK   12  A    between atoms: C_21  and  C_23
REMARK   13  A    between atoms: C_24  and  C_26
REMARK   14  A    between atoms: C_24  and  C_27
REMARK                            x       y       z     vdW  Elec       q    Type
REMARK                         _______ _______ _______ _____ _____    ______ ____
ROOT
ATOM      1  N   UNL     1      -1.296  -4.561  -0.753  0.00  0.00    +0.393 N 
ATOM      2  H   UNL     1      -2.102  -4.515  -1.358  0.00  0.00    -0.080 HD
ENDROOT
BRANCH   1   3
ATOM      3  C   UNL     1      -1.633  -3.986   0.557  0.00  0.00    -0.040 C 
ATOM      4  C   UNL     1      -2.895  -4.659   1.099  0.00  0.00    -0.008 C 
BRANCH   3   5
ATOM      5  C   UNL     1      -1.877  -2.506   0.408  0.00  0.00    -0.061 A 
ATOM      6  C   UNL     1      -2.759  -2.044  -0.551  0.00  0.00    +0.002 A 
ATOM      7  C   UNL     1      -2.983  -0.687  -0.687  0.00  0.00    +0.000 A 
ATOM      8  C   UNL     1      -2.325   0.208   0.135  0.00  0.00    +0.000 A 
ATOM      9  C   UNL     1      -1.443  -0.254   1.095  0.00  0.00    +0.000 A 
ATOM     10  C   UNL     1      -1.223  -1.612   1.234  0.00  0.00    +0.002 A 
ENDBRANCH   3   5
ENDBRANCH   1   3
BRANCH   1  11
ATOM     11  C   UNL     1      -0.191  -3.801  -1.351  0.00  0.00    -0.041 C 
BRANCH  11  16
ATOM     12  C   UNL     1       1.010  -5.947  -6.580  0.00  0.00    +0.044 C 
ATOM     13  C   UNL     1       0.697  -5.387  -5.217  0.00  0.00    -0.050 A 
ATOM     14  C   UNL     1       1.469  -5.748  -4.128  0.00  0.00    +0.003 A 
ATOM     15  C   UNL     1       1.182  -5.234  -2.877  0.00  0.00    +0.002 A 
ATOM     16  C   UNL     1       0.123  -4.360  -2.715  0.00  0.00    -0.061 A 
ATOM     17  C   UNL     1      -0.648  -3.999  -3.804  0.00  0.00    -0.049 A 
ATOM     18  C   UNL     1      -0.358  -4.509  -5.056  0.00  0.00    +0.007 A 
ATOM     19  C   UNL     1      -1.802  -3.046  -3.627  0.00  0.00    +0.044 C 
ENDBRANCH  11  16
ENDBRANCH   1  11
BRANCH   1  20
ATOM     20  C   UNL     1      -0.891  -5.963  -0.582  0.00  0.00    +0.020 C 
BRANCH  20  21
ATOM     21  C   UNL     1      -2.104  -6.803  -0.278  0.00  0.00    +0.179 A 
ATOM     22  N   UNL     1      -2.997  -7.177  -1.145  0.00  0.00    -0.210 NA
ATOM     23  C   UNL     1      -3.938  -7.921  -0.501  0.00  0.00    +0.163 A 
ATOM     24  C   UNL     1      -3.573  -7.981   0.809  0.00  0.00    +0.230 A 
ATOM     25  O   UNL     1      -2.430  -7.287   0.929  0.00  0.00    -0.449 OA
BRANCH  23  26
ATOM     26  C   UNL     1      -5.128  -8.543  -1.108  0.00  0.00    +0.266 C 
ATOM     27  O   UNL     1      -5.896  -9.186  -0.419  0.00  0.00    -0.268 OA
ATOM     28  N   UNL     1      -5.366  -8.398  -2.427  0.00  0.00    -0.310 N 
ATOM     29  H   UNL     1      -4.753  -7.885  -2.977  0.00  0.00    +0.149 HD
BRANCH  28  30
ATOM     30  C   UNL     1      -6.549  -9.016  -3.030  0.00  0.00    +0.107 C 
BRANCH  30  31
ATOM     31  C   UNL     1      -6.581  -8.702  -4.527  0.00  0.00    -0.000 C 
ATOM     32  C   UNL     1      -5.385  -9.363  -5.214  0.00  0.00    +0.009 C 
ATOM     33  C   UNL     1      -7.879  -9.240  -5.134  0.00  0.00    +0.009 C 
ENDBRANCH  30  31
ENDBRANCH  28  30
ENDBRANCH  23  26
ENDBRANCH  20  21
ENDBRANCH   1  20
TORSDOF 9
