REMARK  Name = ZINC09260622
REMARK  6 active torsions:
REMARK  status: ('A' for Active; 'I' for Inactive)
REMARK    1  A    between atoms: C_4  and  C_7
REMARK    2  A    between atoms: C_8  and  C_18
REMARK    3  A    between atoms: N_10  and  C_12
REMARK    4  A    between atoms: C_21  and  C_31
REMARK    5  A    between atoms: C_24  and  C_26
REMARK    6  A    between atoms: C_36  and  O_37
REMARK                            x       y       z     vdW  Elec       q    Type
REMARK                         _______ _______ _______ _____ _____    ______ ____
ROOT
ATOM      1  C   UNL     1       1.524   6.933   0.024  0.00  0.00    +0.141 C 
ATOM      2  C   UNL     1       0.369   7.954   0.041  0.00  0.00    +0.087 C 
ATOM      3  C   UNL     1      -0.876   7.097   0.049  0.00  0.00    +0.072 C 
ATOM      4  N   UNL     1      -0.542   5.852   0.033  0.00  0.00    -0.180 NA
ATOM      5  N   UNL     1       0.834   5.633   0.024  0.00  0.00    -0.178 N 
ATOM      6  C   UNL     1       1.436   4.427   0.012  0.00  0.00    +0.302 C 
ATOM      7  O   UNL     1       2.651   4.352  -0.001  0.00  0.00    -0.265 OA
ENDROOT
BRANCH   3   8
ATOM      8  C   UNL     1      -2.259   7.606   0.066  0.00  0.00    +0.039 A 
ATOM      9  C   UNL     1      -2.501   8.981   0.082  0.00  0.00    +0.013 A 
ATOM     10  C   UNL     1      -3.798   9.451   0.094  0.00  0.00    +0.001 A 
ATOM     11  C   UNL     1      -4.861   8.564   0.099  0.00  0.00    +0.004 A 
ATOM     12  C   UNL     1      -4.635   7.201   0.088  0.00  0.00    +0.046 A 
ATOM     13  C   UNL     1      -3.339   6.712   0.072  0.00  0.00    +0.126 A 
BRANCH  13  14
ATOM     14  O   UNL     1      -3.115   5.372   0.062  0.00  0.00    -0.506 OA
ATOM     15  H   UNL     1      -3.042   4.979   0.942  0.00  0.00    +0.292 HD
ENDBRANCH  13  14
ENDBRANCH   3   8
BRANCH   1  17
ATOM     16  C   UNL     1       3.473   7.936  -1.371  0.00  0.00    +0.098 A 
ATOM     17  C   UNL     1       2.355   7.092  -1.223  0.00  0.00    +0.021 A 
ATOM     18  C   UNL     1       2.163   6.448  -2.394  0.00  0.00    +0.120 A 
ATOM     19  N   UNL     1       3.117   6.870  -3.264  0.00  0.00    -0.239 N 
ATOM     20  N   UNL     1       3.928   7.799  -2.599  0.00  0.00    -0.166 NA
BRANCH  16  24
ATOM     21  C   UNL     1       5.097  10.481   1.623  0.00  0.00    +0.000 A 
ATOM     22  C   UNL     1       5.938   9.859   0.718  0.00  0.00    +0.001 A 
ATOM     23  C   UNL     1       5.416   9.032  -0.256  0.00  0.00    +0.010 A 
ATOM     24  C   UNL     1       4.040   8.824  -0.326  0.00  0.00    +0.002 A 
ATOM     25  C   UNL     1       3.197   9.457   0.585  0.00  0.00    +0.010 A 
ATOM     26  C   UNL     1       3.730  10.278   1.558  0.00  0.00    +0.001 A 
ENDBRANCH  16  24
BRANCH  19  27
ATOM     27  C   UNL     1       3.268   6.447  -4.591  0.00  0.00    +0.065 A 
ATOM     28  C   UNL     1       2.392   5.512  -5.126  0.00  0.00    +0.028 A 
ATOM     29  C   UNL     1       2.539   5.101  -6.437  0.00  0.00    +0.002 A 
ATOM     30  C   UNL     1       3.564   5.611  -7.212  0.00  0.00    +0.000 A 
ATOM     31  C   UNL     1       4.442   6.538  -6.680  0.00  0.00    +0.002 A 
ATOM     32  C   UNL     1       4.296   6.957  -5.372  0.00  0.00    +0.028 A 
ENDBRANCH  19  27
ENDBRANCH   1  17
BRANCH   6  33
ATOM     33  C   UNL     1       0.627   3.204   0.013  0.00  0.00    +0.191 A 
ATOM     34  C   UNL     1       1.105   1.925   0.002  0.00  0.00    +0.054 A 
ATOM     35  C   UNL     1      -0.013   1.076   0.008  0.00  0.00    +0.042 A 
ATOM     36  C   UNL     1      -1.110   1.864   0.017  0.00  0.00    +0.196 A 
ATOM     37  O   UNL     1      -0.721   3.145   0.026  0.00  0.00    -0.458 OA
ENDBRANCH   6  33
TORSDOF 6
