REMARK  Name = ZINC39143101
REMARK  6 active torsions:
REMARK  status: ('A' for Active; 'I' for Inactive)
REMARK    1  A    between atoms: C_1  and  C_2
REMARK    2  A    between atoms: C_4  and  C_14
REMARK    3  A    between atoms: C_7  and  O_12
REMARK    4  A    between atoms: O_12  and  C_13
REMARK    5  A    between atoms: C_15  and  C_16
REMARK    6  A    between atoms: N_27  and  C_28
REMARK                            x       y       z     vdW  Elec       q    Type
REMARK                         _______ _______ _______ _____ _____    ______ ____
ROOT
ATOM      1  C   UNL     1       0.871  -0.389  -4.982  0.00  0.00    +0.190 C 
ATOM      2  N   UNL     1       1.978   0.387  -5.553  0.00  0.00    -0.322 N 
ATOM      3  C   UNL     1       3.137  -0.280  -5.932  0.00  0.00    +0.041 A 
ATOM      4  C   UNL     1       4.375   0.341  -5.915  0.00  0.00    +0.024 A 
ATOM      5  C   UNL     1       5.497  -0.360  -6.311  0.00  0.00    +0.002 A 
ATOM      6  C   UNL     1       5.395  -1.679  -6.726  0.00  0.00    +0.001 A 
ATOM      7  C   UNL     1       4.170  -2.313  -6.745  0.00  0.00    +0.015 A 
ATOM      8  C   UNL     1       3.030  -1.620  -6.343  0.00  0.00    +0.058 A 
ATOM      9  C   UNL     1       1.704  -2.261  -6.323  0.00  0.00    +0.254 C 
ATOM     10  O   UNL     1       1.545  -3.358  -6.823  0.00  0.00    -0.270 OA
ATOM     11  N   UNL     1       0.672  -1.621  -5.745  0.00  0.00    -0.245 N 
ATOM     12  H   UNL     1       1.902   1.348  -5.663  0.00  0.00    +0.148 HD
ENDROOT
BRANCH  11  13
ATOM     13  C   UNL     1      -0.616  -2.148  -5.876  0.00  0.00    +0.039 A 
ATOM     14  C   UNL     1      -0.930  -3.372  -5.299  0.00  0.00    +0.023 A 
ATOM     15  C   UNL     1      -2.204  -3.889  -5.430  0.00  0.00    +0.002 A 
ATOM     16  C   UNL     1      -3.166  -3.190  -6.135  0.00  0.00    +0.000 A 
ATOM     17  C   UNL     1      -2.857  -1.972  -6.712  0.00  0.00    +0.002 A 
ATOM     18  C   UNL     1      -1.587  -1.446  -6.579  0.00  0.00    +0.023 A 
ENDBRANCH  11  13
BRANCH   1  20
ATOM     19  C   UNL     1       0.387  -0.308  -2.563  0.00  0.00    +0.005 C 
ATOM     20  C   UNL     1       1.189  -0.734  -3.550  0.00  0.00    +0.015 C 
BRANCH  19  23
ATOM     21  C   UNL     1       1.790  -2.806  -1.181  0.00  0.00    +0.035 C 
ATOM     22  C   UNL     1       1.908  -1.356  -0.708  0.00  0.00    +0.107 C 
ATOM     23  C   UNL     1       0.738  -0.544  -1.218  0.00  0.00    -0.017 C 
ATOM     24  C   UNL     1       0.083  -0.080  -0.086  0.00  0.00    +0.007 A 
ATOM     25  C   UNL     1      -1.068   0.724   0.088  0.00  0.00    +0.056 A 
ATOM     26  C   UNL     1      -1.492   1.029   1.343  0.00  0.00    +0.121 A 
ATOM     27  C   UNL     1      -0.814   0.564   2.481  0.00  0.00    +0.047 A 
ATOM     28  C   UNL     1       0.293  -0.208   2.387  0.00  0.00    +0.029 A 
ATOM     29  C   UNL     1       0.797  -0.569   1.107  0.00  0.00    +0.044 A 
ATOM     30  N   UNL     1       1.837  -1.295   0.756  0.00  0.00    -0.378 N 
ATOM     31  H   UNL     1       2.458  -1.723   1.366  0.00  0.00    +0.160 HD
BRANCH  26  32
ATOM     32  O   UNL     1      -2.599   1.802   1.500  0.00  0.00    -0.495 OA
ATOM     33  C   UNL     1      -3.003   2.093   2.840  0.00  0.00    +0.277 C 
ENDBRANCH  26  32
ENDBRANCH  19  23
ENDBRANCH   1  20
TORSDOF 4
