REMARK  Name = ZINC32620072
REMARK  1 active torsions:
REMARK  status: ('A' for Active; 'I' for Inactive)
REMARK    1  A    between atoms: C_12  and  C_14
REMARK                            x       y       z     vdW  Elec       q    Type
REMARK                         _______ _______ _______ _____ _____    ______ ____
ROOT
ATOM      1  C   UNL     1       2.396  -2.675  -0.137  0.00  0.00    +0.144 A 
ATOM      2  C   UNL     1       2.408  -4.020  -0.246  0.00  0.00    +0.206 A 
ATOM      3  C   UNL     1       1.174  -4.715  -0.344  0.00  0.00    +0.311 A 
ATOM      4  O   UNL     1       1.160  -5.929  -0.443  0.00  0.00    -0.263 OA
ATOM      5  N   UNL     1       0.019  -4.021  -0.325  0.00  0.00    -0.151 NA
ATOM      6  C   UNL     1       0.033  -2.680  -0.210  0.00  0.00    +0.360 A 
ATOM      7  O   UNL     1      -1.018  -2.070  -0.190  0.00  0.00    -0.244 OA
ATOM      8  N   UNL     1       1.193  -2.005  -0.122  0.00  0.00    -0.218 N 
ATOM      9  C   UNL     1       1.178  -0.662  -0.013  0.00  0.00    +0.329 C 
ATOM     10  O   UNL     1       0.121  -0.073   0.095  0.00  0.00    -0.249 OA
ATOM     11  N   UNL     1       2.336   0.028  -0.024  0.00  0.00    -0.230 N 
ATOM     12  C   UNL     1       2.317   1.376  -0.018  0.00  0.00    +0.325 C 
ATOM     13  O   UNL     1       1.259   1.967  -0.004  0.00  0.00    -0.266 OA
ATOM     14  F   UNL     1       3.578  -4.695  -0.262  0.00  0.00    -0.198 F 
ATOM     15  H   UNL     1       3.296  -0.509  -0.037  0.00  0.00    +0.160 HD
ENDROOT
BRANCH  12  16
ATOM     16  C   UNL     1       3.612   2.147  -0.024  0.00  0.00    +0.470 C 
ATOM     17  F   UNL     1       3.337   3.519  -0.017  0.00  0.00    -0.162 F 
ATOM     18  F   UNL     1       4.358   1.815   1.112  0.00  0.00    -0.162 F 
ATOM     19  F   UNL     1       4.342   1.824  -1.173  0.00  0.00    -0.162 F 
ENDBRANCH  12  16
TORSDOF 1
