REMARK  Name = ZINC13064673
REMARK  16 active torsions:
REMARK  status: ('A' for Active; 'I' for Inactive)
REMARK    1  A    between atoms: C_1  and  C_2
REMARK    2  A    between atoms: C_2  and  C_3
REMARK    3  A    between atoms: C_3  and  C_5
REMARK    4  A    between atoms: C_3  and  N_74
REMARK    5  A    between atoms: N_9  and  C_10
REMARK    6  A    between atoms: C_10  and  C_11
REMARK    7  A    between atoms: C_10  and  C_12
REMARK    8  A    between atoms: C_10  and  C_13
REMARK    9  A    between atoms: C_13  and  C_14
REMARK   10  A    between atoms: C_15  and  C_16
REMARK   11  A    between atoms: C_15  and  N_74
REMARK   12  A    between atoms: C_19  and  C_22
REMARK   13  A    between atoms: C_23  and  C_24
REMARK   14  A    between atoms: C_23  and  N_74
REMARK   15  A    between atoms: C_28  and  C_37
REMARK   16  A    between atoms: C_29  and  C_36
REMARK                            x       y       z     vdW  Elec       q    Type
REMARK                         _______ _______ _______ _____ _____    ______ ____
ROOT
ATOM      1  N   UNL     1      -5.679   4.305  -0.938  0.00  0.00    +0.392 N 
ATOM      2  H   UNL     1      -5.593   3.477  -1.540  0.00  0.00    -0.080 HD
ENDROOT
BRANCH   1   3
ATOM      3  C   UNL     1      -7.098   4.481  -0.563  0.00  0.00    +0.003 C 
BRANCH   3   4
ATOM      4  C   UNL     1      -7.958   3.888  -1.649  0.00  0.00    +0.139 A 
ATOM      5  N   UNL     1      -7.841   4.091  -2.938  0.00  0.00    -0.115 NA
ATOM      6  N   UNL     1      -8.758   3.409  -3.533  0.00  0.00    -0.023 NA
ATOM      7  N   UNL     1      -9.457   2.776  -2.656  0.00  0.00    -0.043 NA
ATOM      8  N   UNL     1      -8.991   3.041  -1.483  0.00  0.00    -0.225 N 
BRANCH   8   9
ATOM      9  C   UNL     1      -9.494   2.522  -0.209  0.00  0.00    +0.061 C 
ATOM     10  C   UNL     1      -8.415   1.663   0.453  0.00  0.00    +0.036 C 
ATOM     11  C   UNL     1      -9.853   3.690   0.712  0.00  0.00    +0.036 C 
BRANCH   9  12
ATOM     12  C   UNL     1     -10.740   1.671  -0.462  0.00  0.00    +0.026 C 
ATOM     13  C   UNL     1     -11.266   1.128   0.869  0.00  0.00    +0.006 C 
ENDBRANCH   9  12
ENDBRANCH   8   9
ENDBRANCH   3   4
BRANCH   3  15
ATOM     14  C   UNL     1      -6.687   6.529   0.809  0.00  0.00    +0.002 C 
ATOM     15  C   UNL     1      -7.426   5.968  -0.407  0.00  0.00    -0.011 C 
ENDBRANCH   3  15
ENDBRANCH   1   3
BRANCH   1  16
ATOM     16  C   UNL     1      -5.202   5.490  -1.681  0.00  0.00    -0.042 C 
BRANCH  16  17
ATOM     17  C   UNL     1      -5.712   5.410  -3.097  0.00  0.00    -0.064 A 
ATOM     18  C   UNL     1      -5.074   4.599  -4.017  0.00  0.00    +0.002 A 
ATOM     19  C   UNL     1      -5.545   4.522  -5.314  0.00  0.00    +0.003 A 
ATOM     20  C   UNL     1      -6.648   5.263  -5.694  0.00  0.00    -0.050 A 
ATOM     21  C   UNL     1      -7.284   6.078  -4.776  0.00  0.00    +0.003 A 
ATOM     22  C   UNL     1      -6.815   6.152  -3.477  0.00  0.00    +0.002 A 
ATOM     23  C   UNL     1      -7.159   5.183  -7.110  0.00  0.00    +0.044 C 
ENDBRANCH  16  17
ENDBRANCH   1  16
BRANCH   1  24
ATOM     24  C   UNL     1      -4.857   4.104   0.274  0.00  0.00    -0.036 C 
BRANCH  24  25
ATOM     25  C   UNL     1      -3.512   3.562  -0.138  0.00  0.00    +0.001 A 
ATOM     26  C   UNL     1      -2.463   4.407  -0.294  0.00  0.00    +0.017 A 
ATOM     27  C   UNL     1      -1.171   3.849  -0.699  0.00  0.00    -0.001 A 
ATOM     28  C   UNL     1      -0.056   4.672  -0.892  0.00  0.00    +0.013 A 
ATOM     29  C   UNL     1       1.135   4.121  -1.270  0.00  0.00    -0.047 A 
ATOM     30  C   UNL     1       1.249   2.751  -1.465  0.00  0.00    -0.046 A 
ATOM     31  C   UNL     1       0.165   1.921  -1.280  0.00  0.00    +0.030 A 
ATOM     32  C   UNL     1      -1.060   2.460  -0.900  0.00  0.00    +0.049 A 
ATOM     33  N   UNL     1      -2.163   1.655  -0.714  0.00  0.00    -0.322 N 
ATOM     34  H   UNL     1      -2.084   0.697  -0.850  0.00  0.00    +0.169 HD
ATOM     35  C   UNL     1      -3.347   2.176  -0.347  0.00  0.00    +0.251 A 
ATOM     36  O   UNL     1      -4.301   1.434  -0.192  0.00  0.00    -0.268 OA
ATOM     37  C   UNL     1       2.574   2.165  -1.882  0.00  0.00    +0.044 C 
ATOM     38  C   UNL     1       2.335   5.008  -1.479  0.00  0.00    +0.044 C 
ENDBRANCH  24  25
ENDBRANCH   1  24
TORSDOF 9
