REMARK  Name = ZINC28690326
REMARK  13 active torsions:
REMARK  status: ('A' for Active; 'I' for Inactive)
REMARK    1  A    between atoms: C_1  and  N_2
REMARK    2  A    between atoms: C_6  and  C_7
REMARK    3  A    between atoms: C_7  and  C_9
REMARK    4  A    between atoms: C_7  and  N_16
REMARK    5  A    between atoms: N_16  and  C_17
REMARK    6  A    between atoms: C_17  and  C_18
REMARK    7  A    between atoms: C_18  and  C_20
REMARK    8  A    between atoms: C_18  and  O_31
REMARK    9  A    between atoms: C_20  and  O_21
REMARK   10  A    between atoms: O_21  and  C_22
REMARK   11  A    between atoms: C_22  and  C_23
REMARK   12  A    between atoms: C_26  and  O_29
REMARK   13  A    between atoms: O_29  and  C_30
REMARK                            x       y       z     vdW  Elec       q    Type
REMARK                         _______ _______ _______ _____ _____    ______ ____
ROOT
ATOM      1  N   UNL     1       0.884  -2.609  -1.000  0.00  0.00    +0.390 N 
ATOM      2  H   UNL     1       0.866  -3.672  -0.719  0.00  0.00    -0.084 HD
ATOM      3  H   UNL     1      -0.143  -2.216  -1.012  0.00  0.00    -0.084 HD
ENDROOT
BRANCH   1   4
ATOM      4  C   UNL     1       1.685  -1.857  -0.024  0.00  0.00    +0.028 C 
BRANCH   4  10
ATOM      5  C   UNL     1       3.521   0.638  -0.029  0.00  0.00    +0.150 C 
ATOM      6  N   UNL     1       2.056   0.658  -0.014  0.00  0.00    -0.340 N 
ATOM      7  C   UNL     1       1.259   1.771  -0.000  0.00  0.00    +0.104 A 
ATOM      8  C   UNL     1      -0.016   1.337   0.009  0.00  0.00    +0.101 A 
ATOM      9  N   UNL     1       0.002  -0.004   0.002  0.00  0.00    -0.351 N 
ATOM     10  C   UNL     1       1.240  -0.418  -0.012  0.00  0.00    +0.077 A 
ATOM     11  H   UNL     1      -0.943  -0.567   0.008  0.00  0.00    +0.166 HD
ENDBRANCH   4  10
BRANCH   4  12
ATOM     12  C   UNL     1       1.495  -2.454   1.347  0.00  0.00    -0.019 A 
ATOM     13  C   UNL     1       0.392  -3.243   1.611  0.00  0.00    +0.005 A 
ATOM     14  C   UNL     1       0.218  -3.790   2.868  0.00  0.00    +0.000 A 
ATOM     15  C   UNL     1       1.147  -3.549   3.863  0.00  0.00    +0.003 A 
ATOM     16  C   UNL     1       2.251  -2.760   3.601  0.00  0.00    +0.038 A 
ATOM     17  C   UNL     1       2.429  -2.215   2.340  0.00  0.00    +0.125 A 
ATOM     18  F   UNL     1       3.511  -1.448   2.082  0.00  0.00    -0.205 F 
ENDBRANCH   4  12
ENDBRANCH   1   4
BRANCH   1  19
ATOM     19  C   UNL     1       1.450  -2.488  -2.350  0.00  0.00    -0.047 C 
BRANCH  19  20
ATOM     20  C   UNL     1       0.591  -3.282  -3.336  0.00  0.00    +0.123 C 
BRANCH  20  21
ATOM     21  O   UNL     1       0.570  -4.658  -2.950  0.00  0.00    -0.391 OA
ATOM     22  H   UNL     1      -0.000  -5.387  -3.543  0.00  0.00    +0.210 HD
ENDBRANCH  20  21
BRANCH  20  23
ATOM     23  C   UNL     1       1.180  -3.156  -4.743  0.00  0.00    +0.189 C 
BRANCH  23  24
ATOM     24  O   UNL     1       0.316  -3.800  -5.681  0.00  0.00    -0.373 OA
BRANCH  24  25
ATOM     25  C   UNL     1       0.777  -3.740  -7.032  0.00  0.00    +0.195 C 
BRANCH  25  26
ATOM     26  C   UNL     1      -0.206  -4.446  -7.930  0.00  0.00    -0.022 A 
ATOM     27  C   UNL     1      -0.059  -5.796  -8.189  0.00  0.00    +0.009 A 
ATOM     28  C   UNL     1      -0.962  -6.446  -9.007  0.00  0.00    +0.046 A 
ATOM     29  C   UNL     1      -2.011  -5.741  -9.579  0.00  0.00    +0.120 A 
ATOM     30  C   UNL     1      -2.154  -4.385  -9.322  0.00  0.00    +0.046 A 
ATOM     31  C   UNL     1      -1.251  -3.741  -8.499  0.00  0.00    +0.009 A 
BRANCH  29  32
ATOM     32  O   UNL     1      -2.898  -6.378 -10.388  0.00  0.00    -0.495 OA
ATOM     33  C   UNL     1      -2.689  -7.774 -10.608  0.00  0.00    +0.277 C 
ENDBRANCH  29  32
ENDBRANCH  25  26
ENDBRANCH  24  25
ENDBRANCH  23  24
ENDBRANCH  20  23
ENDBRANCH  19  20
ENDBRANCH   1  19
TORSDOF 11
