REMARK  Name = ZINC29563076
REMARK  7 active torsions:
REMARK  status: ('A' for Active; 'I' for Inactive)
REMARK    1  A    between atoms: C_4  and  C_7
REMARK    2  A    between atoms: C_7  and  N_8
REMARK    3  A    between atoms: C_11  and  N_14
REMARK    4  A    between atoms: C_15  and  C_17
REMARK    5  A    between atoms: C_17  and  N_24
REMARK    6  A    between atoms: C_18  and  C_19
REMARK    7  A    between atoms: C_25  and  C_29
REMARK                            x       y       z     vdW  Elec       q    Type
REMARK                         _______ _______ _______ _____ _____    ______ ____
ROOT
ATOM      1  N   UNL     1       4.257   6.051   1.062  0.00  0.00    -0.307 N 
ATOM      2  C   UNL     1       4.465   4.720   1.086  0.00  0.00    +0.263 C 
ATOM      3  O   UNL     1       5.511   4.274   1.521  0.00  0.00    -0.269 OA
ATOM      4  H   UNL     1       3.284   6.451   0.739  0.00  0.00    +0.149 HD
ENDROOT
BRANCH   1   8
ATOM      5  N   UNL     1       6.133   9.434   2.732  0.00  0.00    +0.382 N 
ATOM      6  C   UNL     1       6.202   9.297   1.271  0.00  0.00    -0.077 C 
ATOM      7  C   UNL     1       5.117   8.328   0.797  0.00  0.00    +0.004 C 
ATOM      8  C   UNL     1       5.327   6.967   1.467  0.00  0.00    +0.070 C 
ATOM      9  C   UNL     1       5.300   7.145   2.987  0.00  0.00    +0.004 C 
ATOM     10  C   UNL     1       6.380   8.149   3.398  0.00  0.00    -0.077 C 
ATOM     11  H   UNL     1       5.114   9.756   2.991  0.00  0.00    -0.081 HD
BRANCH   5  12
ATOM     12  C   UNL     1       7.069  10.462   3.208  0.00  0.00    -0.043 C 
BRANCH  12  16
ATOM     13  C   UNL     1       6.311  11.275   7.332  0.00  0.00    +0.000 A 
ATOM     14  C   UNL     1       7.212  10.290   6.977  0.00  0.00    +0.000 A 
ATOM     15  C   UNL     1       7.458  10.026   5.642  0.00  0.00    +0.002 A 
ATOM     16  C   UNL     1       6.801  10.749   4.663  0.00  0.00    -0.064 A 
ATOM     17  C   UNL     1       5.904  11.738   5.019  0.00  0.00    +0.002 A 
ATOM     18  C   UNL     1       5.654  11.998   6.353  0.00  0.00    +0.000 A 
ENDBRANCH  12  16
ENDBRANCH   5  12
ENDBRANCH   1   8
BRANCH   2  19
ATOM     19  C   UNL     1       3.432   3.809   0.588  0.00  0.00    +0.134 C 
ATOM     20  C   UNL     1       3.680   2.473   0.516  0.00  0.00    +0.079 C 
BRANCH  20  21
ATOM     21  C   UNL     1       2.690   1.595   0.013  0.00  0.00    +0.130 A 
ATOM     22  C   UNL     1       2.775   0.219  -0.039  0.00  0.00    +0.049 A 
ATOM     23  C   UNL     1       1.574  -0.233  -0.609  0.00  0.00    +0.042 A 
ATOM     24  C   UNL     1       0.823   0.858  -0.875  0.00  0.00    +0.195 A 
ATOM     25  O   UNL     1       1.493   1.954  -0.495  0.00  0.00    -0.463 OA
ENDBRANCH  20  21
BRANCH  19  26
ATOM     26  N   UNL     1       2.188   4.313   0.187  0.00  0.00    -0.188 N 
ATOM     27  C   UNL     1       1.814   4.694  -1.068  0.00  0.00    +0.187 A 
ATOM     28  N   UNL     1       0.566   5.107  -0.986  0.00  0.00    -0.108 NA
ATOM     29  N   UNL     1       0.135   5.002   0.219  0.00  0.00    -0.022 NA
ATOM     30  N   UNL     1       1.056   4.534   0.990  0.00  0.00    -0.038 NA
BRANCH  27  31
ATOM     31  C   UNL     1       2.652   4.658  -2.287  0.00  0.00    +0.021 A 
ATOM     32  C   UNL     1       2.059   4.741  -3.547  0.00  0.00    +0.011 A 
ATOM     33  C   UNL     1       2.846   4.707  -4.680  0.00  0.00    +0.001 A 
ATOM     34  C   UNL     1       4.220   4.589  -4.568  0.00  0.00    +0.000 A 
ATOM     35  C   UNL     1       4.814   4.506  -3.321  0.00  0.00    +0.001 A 
ATOM     36  C   UNL     1       4.038   4.539  -2.181  0.00  0.00    +0.011 A 
ENDBRANCH  27  31
ENDBRANCH  19  26
ENDBRANCH   2  19
TORSDOF 7
