REMARK  Name = ZINC12564719
REMARK  10 active torsions:
REMARK  status: ('A' for Active; 'I' for Inactive)
REMARK    1  A    between atoms: C_1  and  C_2
REMARK    2  A    between atoms: C_2  and  C_4
REMARK    3  A    between atoms: C_2  and  O_12
REMARK    4  A    between atoms: C_4  and  C_6
REMARK    5  A    between atoms: O_12  and  C_13
REMARK    6  A    between atoms: C_13  and  C_15
REMARK    7  A    between atoms: C_20  and  N_21
REMARK    8  A    between atoms: N_21  and  S_22
REMARK    9  A    between atoms: S_22  and  C_25
REMARK   10  A    between atoms: C_27  and  N_32
REMARK                            x       y       z     vdW  Elec       q    Type
REMARK                         _______ _______ _______ _____ _____    ______ ____
ROOT
ATOM      1  C   UNL     1      -1.708  -3.913   1.969  0.00  0.00    +0.081 A 
ATOM      2  C   UNL     1      -0.419  -4.454   1.934  0.00  0.00    +0.017 A 
ATOM      3  C   UNL     1      -0.189  -5.713   2.440  0.00  0.00    +0.001 A 
ATOM      4  C   UNL     1      -1.230  -6.455   2.976  0.00  0.00    +0.002 A 
ATOM      5  C   UNL     1      -2.509  -5.938   3.014  0.00  0.00    +0.025 A 
ATOM      6  C   UNL     1      -2.761  -4.667   2.512  0.00  0.00    +0.062 A 
ENDROOT
BRANCH   1   7
ATOM      7  C   UNL     1      -1.961  -2.564   1.434  0.00  0.00    +0.342 C 
ATOM      8  O   UNL     1      -3.084  -2.100   1.462  0.00  0.00    -0.245 OA
BRANCH   7   9
ATOM      9  O   UNL     1      -0.947  -1.845   0.914  0.00  0.00    -0.450 OA
BRANCH   9  11
ATOM     10  C   UNL     1      -1.650  -0.625  -1.074  0.00  0.00    +0.061 C 
ATOM     11  C   UNL     1      -1.270  -0.523   0.405  0.00  0.00    +0.244 C 
BRANCH  11  12
ATOM     12  C   UNL     1      -0.072   0.379   0.555  0.00  0.00    +0.203 C 
ATOM     13  O   UNL     1       1.034  -0.099   0.691  0.00  0.00    -0.288 OA
BRANCH  12  14
ATOM     14  C   UNL     1      -0.245   1.840   0.538  0.00  0.00    +0.021 A 
ATOM     15  C   UNL     1      -1.519   2.395   0.376  0.00  0.00    +0.011 A 
ATOM     16  C   UNL     1      -1.673   3.766   0.365  0.00  0.00    +0.001 A 
ATOM     17  C   UNL     1      -0.571   4.591   0.504  0.00  0.00    +0.000 A 
ATOM     18  C   UNL     1       0.693   4.049   0.659  0.00  0.00    +0.001 A 
ATOM     19  C   UNL     1       0.864   2.681   0.677  0.00  0.00    +0.011 A 
ENDBRANCH  12  14
ENDBRANCH  11  12
ENDBRANCH   9  11
ENDBRANCH   7   9
ENDBRANCH   1   7
BRANCH   6  20
ATOM     20  N   UNL     1      -4.047  -4.144   2.549  0.00  0.00    -0.215 N 
ATOM     21  H   UNL     1      -4.362  -3.581   1.825  0.00  0.00    +0.174 HD
BRANCH  20  22
ATOM     22  S   UNL     1      -5.041  -4.482   3.829  0.00  0.00    +0.074 S 
ATOM     23  O   UNL     1      -4.263  -4.309   5.005  0.00  0.00    -0.150 OA
ATOM     24  O   UNL     1      -6.250  -3.769   3.604  0.00  0.00    -0.150 OA
BRANCH  22  25
ATOM     25  C   UNL     1      -5.443  -6.195   3.739  0.00  0.00    +0.129 A 
ATOM     26  C   UNL     1      -5.044  -7.053   4.747  0.00  0.00    +0.063 A 
ATOM     27  C   UNL     1      -5.360  -8.397   4.676  0.00  0.00    +0.128 A 
ATOM     28  C   UNL     1      -6.074  -8.884   3.597  0.00  0.00    +0.034 A 
ATOM     29  C   UNL     1      -6.473  -8.027   2.589  0.00  0.00    +0.024 A 
ATOM     30  C   UNL     1      -6.163  -6.681   2.662  0.00  0.00    +0.068 A 
ATOM     31 CL   UNL     1      -6.670  -5.603   1.399  0.00  0.00    -0.082 Cl
BRANCH  27  32
ATOM     32  N   UNL     1      -4.933  -9.315   5.755  0.00  0.00    +0.056 N 
ATOM     33  O   UNL     1      -4.303  -8.886   6.706  0.00  0.00    -0.126 OA
ATOM     34  O   UNL     1      -5.211 -10.499   5.694  0.00  0.00    -0.126 OA
ENDBRANCH  27  32
ENDBRANCH  22  25
ENDBRANCH  20  22
ENDBRANCH   6  20
TORSDOF 9
