REMARK  Name = ZINC39667098
REMARK  12 active torsions:
REMARK  status: ('A' for Active; 'I' for Inactive)
REMARK    1  A    between atoms: C_1  and  C_2
REMARK    2  A    between atoms: C_2  and  C_3
REMARK    3  A    between atoms: C_3  and  C_4
REMARK    4  A    between atoms: C_4  and  C_5
REMARK    5  A    between atoms: C_5  and  C_6
REMARK    6  A    between atoms: C_6  and  C_7
REMARK    7  A    between atoms: C_11  and  C_20
REMARK    8  A    between atoms: N_22  and  C_23
REMARK    9  A    between atoms: C_23  and  C_24
REMARK   10  A    between atoms: C_24  and  C_25
REMARK   11  A    between atoms: C_28  and  C_32
REMARK   12  A    between atoms: C_30  and  C_31
REMARK                            x       y       z     vdW  Elec       q    Type
REMARK                         _______ _______ _______ _____ _____    ______ ____
ROOT
ATOM      1  C   UNL     1       2.291  -4.554  -3.895  0.00  0.00    +0.216 C 
ATOM      2  O   UNL     1       2.695  -3.780  -4.736  0.00  0.00    -0.276 OA
ATOM      3  N   UNL     1       2.381  -5.882  -4.102  0.00  0.00    -0.300 N 
ATOM      4  C   UNL     1       1.940  -6.974  -3.203  0.00  0.00    +0.121 C 
ATOM      5  C   UNL     1       1.336  -8.038  -4.147  0.00  0.00    +0.100 C 
ATOM      6  C   UNL     1       2.001  -7.776  -5.509  0.00  0.00    -0.004 C 
ATOM      7  C   UNL     1       2.939  -6.581  -5.285  0.00  0.00    +0.115 C 
ATOM      8  C   UNL     1       2.797  -8.999  -5.952  0.00  0.00    -0.010 C 
ATOM      9  C   UNL     1       3.401  -8.736  -7.335  0.00  0.00    -0.082 C 
ATOM     10  N   UNL     1       2.326  -8.454  -8.294  0.00  0.00    +0.379 N 
ATOM     11  C   UNL     1       1.623  -7.223  -7.911  0.00  0.00    -0.082 C 
ATOM     12  C   UNL     1       0.945  -7.422  -6.552  0.00  0.00    -0.010 C 
ATOM     13  H   UNL     1       2.720  -8.341  -9.216  0.00  0.00    -0.086 HD
ATOM     14  H   UNL     1       1.673  -9.224  -8.302  0.00  0.00    -0.086 HD
ENDROOT
BRANCH   5  15
ATOM     15  C   UNL     1       1.668  -9.424  -3.656  0.00  0.00    +0.218 C 
ATOM     16  O   UNL     1       2.700  -9.622  -3.052  0.00  0.00    -0.275 OA
ATOM     17  N   UNL     1       0.817 -10.443  -3.889  0.00  0.00    -0.315 N 
ATOM     18  H   UNL     1      -0.009 -10.284  -4.373  0.00  0.00    +0.149 HD
BRANCH  17  19
ATOM     19  C   UNL     1       1.139 -11.790  -3.413  0.00  0.00    +0.109 C 
BRANCH  19  20
ATOM     20  C   UNL     1       0.016 -12.752  -3.806  0.00  0.00    +0.054 C 
BRANCH  20  21
ATOM     21  C   UNL     1       0.347 -14.138  -3.315  0.00  0.00    -0.043 A 
ATOM     22  C   UNL     1       0.973 -15.038  -4.158  0.00  0.00    +0.004 A 
ATOM     23  C   UNL     1       1.277 -16.309  -3.708  0.00  0.00    +0.003 A 
ATOM     24  C   UNL     1       0.956 -16.680  -2.415  0.00  0.00    -0.050 A 
ATOM     25  C   UNL     1       0.331 -15.780  -1.573  0.00  0.00    +0.007 A 
ATOM     26  C   UNL     1       0.031 -14.507  -2.022  0.00  0.00    -0.047 A 
ATOM     27  C   UNL     1      -0.645 -13.524  -1.101  0.00  0.00    +0.044 C 
ATOM     28  C   UNL     1       1.286 -18.066  -1.925  0.00  0.00    +0.044 C 
ENDBRANCH  20  21
ENDBRANCH  19  20
ENDBRANCH  17  19
ENDBRANCH   5  15
BRANCH   1  29
ATOM     29  C   UNL     1       1.687  -4.030  -2.617  0.00  0.00    +0.096 C 
BRANCH  29  30
ATOM     30  C   UNL     1       1.704  -2.500  -2.635  0.00  0.00    +0.009 C 
BRANCH  30  31
ATOM     31  C   UNL     1       1.091  -1.969  -1.337  0.00  0.00    +0.000 C 
BRANCH  31  32
ATOM     32  C   UNL     1       1.108  -0.439  -1.355  0.00  0.00    -0.000 C 
BRANCH  32  34
ATOM     33  C   UNL     1       0.512   1.623  -0.075  0.00  0.00    +0.004 C 
ATOM     34  C   UNL     1       0.495   0.093  -0.058  0.00  0.00    -0.003 C 
ENDBRANCH  32  34
ENDBRANCH  31  32
ENDBRANCH  30  31
ENDBRANCH  29  30
ENDBRANCH   1  29
TORSDOF 9
