REMARK  Name = ZINC12479931
REMARK  14 active torsions:
REMARK  status: ('A' for Active; 'I' for Inactive)
REMARK    1  A    between atoms: C_1  and  C_2
REMARK    2  A    between atoms: C_6  and  N_9
REMARK    3  A    between atoms: C_7  and  C_8
REMARK    4  A    between atoms: N_9  and  C_10
REMARK    5  A    between atoms: C_10  and  C_12
REMARK    6  A    between atoms: C_10  and  C_17
REMARK    7  A    between atoms: N_19  and  C_20
REMARK    8  A    between atoms: C_20  and  C_21
REMARK    9  A    between atoms: C_21  and  C_22
REMARK   10  A    between atoms: C_22  and  C_23
REMARK   11  A    between atoms: C_22  and  C_24
REMARK   12  A    between atoms: C_25  and  C_27
REMARK   13  A    between atoms: C_28  and  N_35
REMARK   14  A    between atoms: C_29  and  C_32
REMARK                            x       y       z     vdW  Elec       q    Type
REMARK                         _______ _______ _______ _____ _____    ______ ____
ROOT
ATOM      1  N   UNL     1       1.806   1.930   2.469  0.00  0.00    -0.248 N 
ATOM      2  C   UNL     1       2.836   2.762   2.215  0.00  0.00    +0.262 C 
ATOM      3  O   UNL     1       3.959   2.315   2.075  0.00  0.00    -0.269 OA
ENDROOT
BRANCH   1   9
ATOM      4  C   UNL     1      -1.687   3.750   5.410  0.00  0.00    +0.044 C 
ATOM      5  C   UNL     1      -1.204   3.333   4.045  0.00  0.00    -0.046 A 
ATOM      6  C   UNL     1      -2.039   3.459   2.949  0.00  0.00    +0.004 A 
ATOM      7  C   UNL     1      -1.601   3.072   1.695  0.00  0.00    +0.002 A 
ATOM      8  C   UNL     1      -0.327   2.565   1.533  0.00  0.00    +0.024 A 
ATOM      9  C   UNL     1       0.515   2.443   2.630  0.00  0.00    +0.041 A 
ATOM     10  C   UNL     1       0.073   2.832   3.888  0.00  0.00    -0.026 A 
ATOM     11  C   UNL     1       0.983   2.701   5.082  0.00  0.00    +0.046 C 
ENDBRANCH   1   9
BRANCH   2  12
ATOM     12  C   UNL     1       2.603   4.203   2.108  0.00  0.00    +0.116 A 
ATOM     13  C   UNL     1       3.513   5.230   1.854  0.00  0.00    +0.076 A 
ATOM     14  C   UNL     1       2.907   6.487   1.827  0.00  0.00    +0.155 A 
ATOM     15  N   UNL     1       1.612   6.581   2.030  0.00  0.00    -0.203 NA
ATOM     16  S   UNL     1       1.080   5.115   2.259  0.00  0.00    +0.019 S 
BRANCH  14  17
ATOM     17  C   UNL     1       3.711   7.696   1.572  0.00  0.00    +0.262 C 
ATOM     18  O   UNL     1       4.909   7.602   1.385  0.00  0.00    -0.269 OA
ATOM     19  N   UNL     1       3.119   8.906   1.547  0.00  0.00    -0.324 N 
ATOM     20  H   UNL     1       2.163   8.981   1.697  0.00  0.00    +0.145 HD
ATOM     21  H   UNL     1       3.647   9.702   1.380  0.00  0.00    +0.145 HD
ENDBRANCH  14  17
BRANCH  13  22
ATOM     22  N   UNL     1       4.872   5.025   1.652  0.00  0.00    -0.355 N 
ATOM     23  H   UNL     1       5.236   4.126   1.683  0.00  0.00    +0.142 HD
ATOM     24  H   UNL     1       5.456   5.779   1.479  0.00  0.00    +0.142 HD
ENDBRANCH  13  22
ENDBRANCH   2  12
BRANCH   1  25
ATOM     25  C   UNL     1       2.039   0.487   2.576  0.00  0.00    +0.233 C 
BRANCH  25  26
ATOM     26  C   UNL     1       1.468  -0.018   3.876  0.00  0.00    +0.135 A 
ATOM     27  C   UNL     1       2.114  -0.786   4.773  0.00  0.00    +0.047 A 
ATOM     28  C   UNL     1       1.211  -1.021   5.836  0.00  0.00    +0.041 A 
ATOM     29  C   UNL     1       0.065  -0.390   5.520  0.00  0.00    +0.195 A 
ATOM     30  O   UNL     1       0.227   0.215   4.332  0.00  0.00    -0.465 OA
ENDBRANCH  25  26
BRANCH  25  31
ATOM     31  C   UNL     1       1.369  -0.217   1.425  0.00  0.00    +0.242 C 
ATOM     32  O   UNL     1       0.758   0.423   0.596  0.00  0.00    -0.273 OA
ATOM     33  N   UNL     1       1.449  -1.558   1.317  0.00  0.00    -0.313 N 
ATOM     34  H   UNL     1       1.938  -2.070   1.980  0.00  0.00    +0.149 HD
BRANCH  33  35
ATOM     35  C   UNL     1       0.797  -2.243   0.198  0.00  0.00    +0.104 C 
BRANCH  35  36
ATOM     36  C   UNL     1       1.039  -3.749   0.311  0.00  0.00    +0.022 C 
BRANCH  36  37
ATOM     37  C   UNL     1       0.358  -4.464  -0.858  0.00  0.00    -0.016 C 
ATOM     38  C   UNL     1       1.024  -4.045  -2.170  0.00  0.00    +0.007 C 
ATOM     39  C   UNL     1       0.494  -5.978  -0.678  0.00  0.00    +0.007 C 
ENDBRANCH  36  37
ENDBRANCH  35  36
ENDBRANCH  33  35
ENDBRANCH  25  31
ENDBRANCH   1  25
TORSDOF 10
