REMARK  Name = ZINC60376622
REMARK  12 active torsions:
REMARK  status: ('A' for Active; 'I' for Inactive)
REMARK    1  A    between atoms: C_1  and  O_2
REMARK    2  A    between atoms: O_2  and  C_3
REMARK    3  A    between atoms: C_5  and  C_26
REMARK    4  A    between atoms: C_7  and  S_11
REMARK    5  A    between atoms: C_8  and  O_9
REMARK    6  A    between atoms: O_9  and  C_10
REMARK    7  A    between atoms: S_11  and  N_14
REMARK    8  A    between atoms: N_14  and  C_15
REMARK    9  A    between atoms: C_20  and  C_21
REMARK   10  A    between atoms: C_27  and  C_28
REMARK   11  A    between atoms: C_28  and  O_30
REMARK   12  A    between atoms: O_30  and  C_31
REMARK                            x       y       z     vdW  Elec       q    Type
REMARK                         _______ _______ _______ _____ _____    ______ ____
ROOT
ATOM      1  C   UNL     1       0.626  -0.619   1.042  0.00  0.00    +0.164 A 
ATOM      2  C   UNL     1       1.200   0.136   2.046  0.00  0.00    +0.057 A 
ATOM      3  C   UNL     1       1.841  -0.500   3.116  0.00  0.00    -0.019 A 
ATOM      4  C   UNL     1       1.898  -1.898   3.160  0.00  0.00    +0.040 A 
ATOM      5  C   UNL     1       1.323  -2.643   2.154  0.00  0.00    +0.156 A 
ATOM      6  C   UNL     1       0.682  -2.011   1.097  0.00  0.00    +0.188 A 
ENDROOT
BRANCH   5   7
ATOM      7  S   UNL     1       1.396  -4.403   2.213  0.00  0.00    +0.095 S 
ATOM      8  O   UNL     1       1.844  -4.833   0.935  0.00  0.00    -0.148 OA
ATOM      9  O   UNL     1       2.077  -4.742   3.413  0.00  0.00    -0.148 OA
BRANCH   7  10
ATOM     10  N   UNL     1      -0.158  -4.952   2.379  0.00  0.00    -0.097 NA
BRANCH  10  11
ATOM     11  C   UNL     1      -0.408  -6.315   2.453  0.00  0.00    +0.091 A 
ATOM     12  C   UNL     1       0.642  -7.221   2.393  0.00  0.00    +0.068 A 
ATOM     13  C   UNL     1       0.391  -8.578   2.467  0.00  0.00    +0.160 A 
ATOM     14  C   UNL     1      -0.912  -9.047   2.601  0.00  0.00    +0.159 A 
ATOM     15  C   UNL     1      -1.966  -8.163   2.660  0.00  0.00    +0.058 A 
ATOM     16  C   UNL     1      -1.726  -6.784   2.593  0.00  0.00    +0.090 A 
ATOM     17  F   UNL     1      -1.145 -10.376   2.672  0.00  0.00    -0.202 F 
ATOM     18  F   UNL     1       1.417  -9.455   2.408  0.00  0.00    -0.202 F 
BRANCH  16  19
ATOM     19  C   UNL     1      -2.844  -5.835   2.663  0.00  0.00    +0.389 C 
ATOM     20  O   UNL     1      -3.990  -6.248   2.786  0.00  0.00    -0.241 OA
ATOM     21  O   UNL     1      -2.631  -4.632   2.599  0.00  0.00    -0.241 OA
ENDBRANCH  16  19
ENDBRANCH  10  11
ENDBRANCH   7  10
ENDBRANCH   5   7
BRANCH   1  23
ATOM     22  C   UNL     1      -0.017   1.425   0.010  0.00  0.00    +0.277 C 
ATOM     23  O   UNL     1       0.002  -0.004   0.002  0.00  0.00    -0.491 OA
ENDBRANCH   1  23
BRANCH   6  24
ATOM     24  O   UNL     1       0.113  -2.751   0.111  0.00  0.00    -0.490 OA
ATOM     25  C   UNL     1       0.937  -3.086  -1.007  0.00  0.00    +0.277 C 
ENDBRANCH   6  24
BRANCH   3  26
ATOM     26  C   UNL     1       2.454   0.297   4.187  0.00  0.00    +0.015 C 
ATOM     27  C   UNL     1       2.398   1.646   4.142  0.00  0.00    +0.092 C 
BRANCH  27  28
ATOM     28  C   UNL     1       2.989   2.415   5.176  0.00  0.00    +0.332 C 
ATOM     29  O   UNL     1       3.546   1.860   6.104  0.00  0.00    -0.246 OA
BRANCH  28  30
ATOM     30  O   UNL     1       2.934   3.762   5.130  0.00  0.00    -0.465 OA
ATOM     31  C   UNL     1       3.550   4.474   6.205  0.00  0.00    +0.280 C 
ENDBRANCH  28  30
ENDBRANCH  27  28
ENDBRANCH   3  26
TORSDOF 9
