REMARK  Name = ZINC35489157
REMARK  14 active torsions:
REMARK  status: ('A' for Active; 'I' for Inactive)
REMARK    1  A    between atoms: C_1  and  C_2
REMARK    2  A    between atoms: C_7  and  N_8
REMARK    3  A    between atoms: N_11  and  C_12
REMARK    4  A    between atoms: C_12  and  C_13
REMARK    5  A    between atoms: C_13  and  N_14
REMARK    6  A    between atoms: N_14  and  C_15
REMARK    7  A    between atoms: C_15  and  C_16
REMARK    8  A    between atoms: C_16  and  O_17
REMARK    9  A    between atoms: O_17  and  C_18
REMARK   10  A    between atoms: C_25  and  C_29
REMARK   11  A    between atoms: C_26  and  C_27
REMARK   12  A    between atoms: C_26  and  C_28
REMARK   13  A    between atoms: N_32  and  C_33
REMARK   14  A    between atoms: C_38  and  C_39
REMARK                            x       y       z     vdW  Elec       q    Type
REMARK                         _______ _______ _______ _____ _____    ______ ____
ROOT
ATOM      1  N   UNL     1      -0.436  -0.529   8.425  0.00  0.00    -0.282 N 
ATOM      2  C   UNL     1      -1.641  -0.876   8.919  0.00  0.00    +0.307 C 
ATOM      3  O   UNL     1      -1.715  -1.488   9.967  0.00  0.00    -0.252 OA
ATOM      4  N   UNL     1      -2.764  -0.546   8.251  0.00  0.00    -0.269 N 
ATOM      5  H   UNL     1      -2.703  -0.118   7.383  0.00  0.00    +0.156 HD
ENDROOT
BRANCH   4   6
ATOM      6  C   UNL     1      -4.017  -0.822   8.809  0.00  0.00    +0.038 A 
ATOM      7  C   UNL     1      -4.201  -1.964   9.577  0.00  0.00    +0.023 A 
ATOM      8  C   UNL     1      -5.439  -2.233  10.127  0.00  0.00    +0.002 A 
ATOM      9  C   UNL     1      -6.495  -1.366   9.913  0.00  0.00    +0.000 A 
ATOM     10  C   UNL     1      -6.316  -0.229   9.149  0.00  0.00    +0.005 A 
ATOM     11  C   UNL     1      -5.078   0.049   8.601  0.00  0.00    -0.029 A 
ATOM     12  C   UNL     1      -4.882   1.293   7.773  0.00  0.00    +0.045 C 
ENDBRANCH   4   6
BRANCH   1  13
ATOM     13  C   UNL     1      -0.347   0.207   7.162  0.00  0.00    +0.128 C 
BRANCH  13  14
ATOM     14  C   UNL     1      -0.252  -0.783   6.000  0.00  0.00    +0.124 C 
BRANCH  14  18
ATOM     15  N   UNL     1       0.011  -0.040   2.408  0.00  0.00    -0.269 N 
ATOM     16  C   UNL     1      -0.071  -0.717   3.571  0.00  0.00    +0.304 C 
ATOM     17  O   UNL     1      -0.061  -1.933   3.567  0.00  0.00    -0.253 OA
ATOM     18  N   UNL     1      -0.163  -0.047   4.736  0.00  0.00    -0.298 N 
ATOM     19  H   UNL     1       0.069   0.929   2.414  0.00  0.00    +0.156 HD
ATOM     20  H   UNL     1      -0.170   0.923   4.739  0.00  0.00    +0.150 HD
BRANCH  15  27
ATOM     21  C   UNL     1      -1.279   1.161   0.174  0.00  0.00    +0.045 C 
ATOM     22  C   UNL     1      -0.605  -0.184   0.078  0.00  0.00    -0.029 A 
ATOM     23  C   UNL     1      -0.597  -0.868  -1.122  0.00  0.00    +0.005 A 
ATOM     24  C   UNL     1       0.021  -2.102  -1.212  0.00  0.00    +0.000 A 
ATOM     25  C   UNL     1       0.632  -2.655  -0.101  0.00  0.00    +0.002 A 
ATOM     26  C   UNL     1       0.627  -1.975   1.101  0.00  0.00    +0.023 A 
ATOM     27  C   UNL     1       0.013  -0.733   1.193  0.00  0.00    +0.038 A 
ENDBRANCH  15  27
ENDBRANCH  14  18
ENDBRANCH  13  14
ENDBRANCH   1  13
BRANCH   1  28
ATOM     28  C   UNL     1       0.784  -0.888   9.152  0.00  0.00    +0.137 C 
BRANCH  28  29
ATOM     29  C   UNL     1       1.146   0.234  10.127  0.00  0.00    +0.179 C 
BRANCH  29  30
ATOM     30  O   UNL     1       0.130   0.343  11.126  0.00  0.00    -0.374 OA
BRANCH  30  31
ATOM     31  C   UNL     1       0.372   1.367  12.092  0.00  0.00    +0.125 C 
ATOM     32  C   UNL     1       1.110   0.787  13.320  0.00  0.00    +0.036 C 
ATOM     33  C   UNL     1       0.139   1.030  14.515  0.00  0.00    -0.002 C 
ATOM     34  C   UNL     1       0.183   2.572  14.746  0.00  0.00    +0.005 C 
ATOM     35  C   UNL     1      -0.546   3.171  13.521  0.00  0.00    +0.010 C 
ATOM     36  C   UNL     1      -0.976   1.909  12.659  0.00  0.00    -0.000 C 
ATOM     37  C   UNL     1      -1.249   0.863  13.800  0.00  0.00    -0.024 C 
ATOM     38  C   UNL     1      -2.412   1.286  14.700  0.00  0.00    +0.012 C 
ATOM     39  C   UNL     1      -1.443  -0.551  13.248  0.00  0.00    +0.012 C 
ATOM     40  C   UNL     1      -2.092   2.128  11.635  0.00  0.00    +0.014 C 
ENDBRANCH  30  31
ENDBRANCH  29  30
ENDBRANCH  28  29
ENDBRANCH   1  28
TORSDOF 9
