REMARK  Name = ZINC02844607
REMARK  9 active torsions:
REMARK  status: ('A' for Active; 'I' for Inactive)
REMARK    1  A    between atoms: C_1  and  C_2
REMARK    2  A    between atoms: C_2  and  O_3
REMARK    3  A    between atoms: O_3  and  C_4
REMARK    4  A    between atoms: C_4  and  C_6
REMARK    5  A    between atoms: C_7  and  C_37
REMARK    6  A    between atoms: C_11  and  C_13
REMARK    7  A    between atoms: C_17  and  O_19
REMARK    8  A    between atoms: O_19  and  C_20
REMARK    9  A    between atoms: C_29  and  C_32
REMARK                            x       y       z     vdW  Elec       q    Type
REMARK                         _______ _______ _______ _____ _____    ______ ____
ROOT
ATOM      1  C   UNL     1       7.941   1.307  -1.555  0.00  0.00    +0.065 C 
ATOM      2  C   UNL     1       8.995   2.141  -1.555  0.00  0.00    +0.016 C 
ATOM      3  N   UNL     1       9.457   2.673  -0.384  0.00  0.00    -0.321 N 
ATOM      4  C   UNL     1       9.148   2.091   0.816  0.00  0.00    +0.016 C 
ATOM      5  C   UNL     1       8.094   1.254   0.920  0.00  0.00    +0.024 C 
ATOM      6  C   UNL     1       7.236   0.943  -0.281  0.00  0.00    +0.092 C 
ATOM      7  C   UNL     1       7.765   0.651   2.146  0.00  0.00    +0.162 C 
ATOM      8  O   UNL     1       6.819  -0.110   2.202  0.00  0.00    -0.292 OA
ATOM      9  C   UNL     1       8.563   0.930   3.390  0.00  0.00    +0.091 C 
ATOM     10  C   UNL     1       9.170   2.333   3.288  0.00  0.00    +0.068 C 
ATOM     11  C   UNL     1      10.012   2.405   2.012  0.00  0.00    +0.062 C 
ATOM     12  C   UNL     1       9.671   2.492  -2.856  0.00  0.00    +0.061 C 
ATOM     13  H   UNL     1      10.084   3.577  -0.400  0.00  0.00    +0.152 HD
ENDROOT
BRANCH   6  14
ATOM     14  C   UNL     1       5.950   1.723  -0.186  0.00  0.00    -0.032 A 
ATOM     15  C   UNL     1       5.983   3.105  -0.142  0.00  0.00    +0.005 A 
ATOM     16  C   UNL     1       4.805   3.824  -0.055  0.00  0.00    +0.004 A 
ATOM     17  C   UNL     1       3.592   3.164  -0.018  0.00  0.00    +0.046 A 
ATOM     18  C   UNL     1       3.557   1.777  -0.057  0.00  0.00    +0.129 A 
ATOM     19  C   UNL     1       4.741   1.058  -0.144  0.00  0.00    +0.050 A 
BRANCH  18  20
ATOM     20  O   UNL     1       2.366   1.125  -0.015  0.00  0.00    -0.456 OA
BRANCH  20  21
ATOM     21  C   UNL     1       1.721   0.898  -1.190  0.00  0.00    +0.128 A 
ATOM     22  C   UNL     1       0.504   0.233  -1.197  0.00  0.00    +0.046 A 
ATOM     23  C   UNL     1      -0.147  -0.001  -2.393  0.00  0.00    +0.004 A 
ATOM     24  C   UNL     1       0.409   0.437  -3.581  0.00  0.00    +0.000 A 
ATOM     25  C   UNL     1       1.622   1.100  -3.576  0.00  0.00    +0.004 A 
ATOM     26  C   UNL     1       2.280   1.332  -2.384  0.00  0.00    +0.046 A 
ENDBRANCH  20  21
ENDBRANCH  18  20
ENDBRANCH   6  14
BRANCH  10  27
ATOM     27  C   UNL     1      10.041   2.597   4.489  0.00  0.00    +0.109 A 
ATOM     28  C   UNL     1       9.872   3.590   5.380  0.00  0.00    +0.045 A 
ATOM     29  C   UNL     1      10.905   3.462   6.337  0.00  0.00    +0.041 A 
ATOM     30  C   UNL     1      11.649   2.404   5.968  0.00  0.00    +0.195 A 
ATOM     31  O   UNL     1      11.121   1.884   4.848  0.00  0.00    -0.468 OA
ENDBRANCH  10  27
BRANCH   1  32
ATOM     32  C   UNL     1       7.486   0.762  -2.779  0.00  0.00    +0.338 C 
ATOM     33  O   UNL     1       8.049   1.050  -3.819  0.00  0.00    -0.245 OA
BRANCH  32  34
ATOM     34  O   UNL     1       6.429  -0.076  -2.793  0.00  0.00    -0.462 OA
BRANCH  34  36
ATOM     35  C   UNL     1       4.820  -1.514  -3.881  0.00  0.00    +0.048 C 
ATOM     36  C   UNL     1       6.025  -0.588  -4.064  0.00  0.00    +0.229 C 
ENDBRANCH  34  36
ENDBRANCH  32  34
ENDBRANCH   1  32
TORSDOF 7
