REMARK  Name = ZINC59931067
REMARK  10 active torsions:
REMARK  status: ('A' for Active; 'I' for Inactive)
REMARK    1  A    between atoms: C_1  and  C_2
REMARK    2  A    between atoms: C_5  and  N_31
REMARK    3  A    between atoms: C_7  and  S_8
REMARK    4  A    between atoms: S_8  and  N_11
REMARK    5  A    between atoms: N_14  and  C_17
REMARK    6  A    between atoms: C_17  and  C_18
REMARK    7  A    between atoms: C_18  and  C_20
REMARK    8  A    between atoms: C_18  and  O_30
REMARK    9  A    between atoms: C_23  and  O_26
REMARK   10  A    between atoms: O_26  and  C_27
REMARK                            x       y       z     vdW  Elec       q    Type
REMARK                         _______ _______ _______ _____ _____    ______ ____
ROOT
ATOM      1  N   UNL     1       1.616   1.124   2.614  0.00  0.00    -0.174 NA
ATOM      2  C   UNL     1       2.944   0.581   2.937  0.00  0.00    +0.125 C 
ATOM      3  C   UNL     1       3.897   0.902   1.780  0.00  0.00    +0.101 C 
ATOM      4  N   UNL     1       3.865   2.345   1.510  0.00  0.00    -0.297 NA
ATOM      5  C   UNL     1       2.531   2.776   1.072  0.00  0.00    +0.101 C 
ATOM      6  C   UNL     1       1.523   2.531   2.194  0.00  0.00    +0.125 C 
ENDROOT
BRANCH   1   7
ATOM      7  S   UNL     1       0.263   0.175   2.713  0.00  0.00    +0.061 S 
ATOM      8  O   UNL     1      -0.850   1.058   2.751  0.00  0.00    -0.153 OA
ATOM      9  O   UNL     1       0.511  -0.781   3.734  0.00  0.00    -0.153 OA
BRANCH   7  16
ATOM     10  C   UNL     1      -0.369   1.434   0.036  0.00  0.00    +0.046 C 
ATOM     11  C   UNL     1      -0.151  -0.057   0.025  0.00  0.00    -0.024 A 
ATOM     12  C   UNL     1      -0.239  -0.760  -1.163  0.00  0.00    +0.007 A 
ATOM     13  C   UNL     1      -0.039  -2.127  -1.173  0.00  0.00    +0.033 A 
ATOM     14  C   UNL     1       0.250  -2.793   0.004  0.00  0.00    +0.128 A 
ATOM     15  C   UNL     1       0.339  -2.090   1.191  0.00  0.00    +0.061 A 
ATOM     16  C   UNL     1       0.143  -0.721   1.201  0.00  0.00    +0.111 A 
BRANCH  14  17
ATOM     17  N   UNL     1       0.464  -4.257  -0.006  0.00  0.00    +0.056 N 
ATOM     18  O   UNL     1       0.385  -4.872  -1.044  0.00  0.00    -0.126 OA
ATOM     19  O   UNL     1       0.716  -4.839   1.023  0.00  0.00    -0.126 OA
ENDBRANCH  14  17
ENDBRANCH   7  16
ENDBRANCH   1   7
BRANCH   4  20
ATOM     20  C   UNL     1       4.889   2.719   0.526  0.00  0.00    +0.120 C 
BRANCH  20  21
ATOM     21  C   UNL     1       4.996   4.244   0.455  0.00  0.00    +0.158 C 
BRANCH  21  22
ATOM     22  C   UNL     1       5.956   4.630  -0.640  0.00  0.00    -0.018 A 
ATOM     23  C   UNL     1       7.319   4.574  -0.414  0.00  0.00    +0.010 A 
ATOM     24  C   UNL     1       8.202   4.928  -1.416  0.00  0.00    +0.046 A 
ATOM     25  C   UNL     1       7.720   5.339  -2.650  0.00  0.00    +0.127 A 
ATOM     26  C   UNL     1       6.352   5.394  -2.874  0.00  0.00    +0.046 A 
ATOM     27  C   UNL     1       5.473   5.034  -1.871  0.00  0.00    +0.010 A 
BRANCH  25  28
ATOM     28  O   UNL     1       8.586   5.688  -3.638  0.00  0.00    -0.434 OA
BRANCH  28  29
ATOM     29  C   UNL     1       8.018   6.102  -4.882  0.00  0.00    +0.541 C 
ATOM     30  F   UNL     1       7.245   5.062  -5.410  0.00  0.00    -0.166 F 
ATOM     31  F   UNL     1       7.211   7.226  -4.676  0.00  0.00    -0.166 F 
ENDBRANCH  28  29
ENDBRANCH  25  28
ENDBRANCH  21  22
BRANCH  21  32
ATOM     32  O   UNL     1       5.472   4.747   1.705  0.00  0.00    -0.386 OA
ATOM     33  H   UNL     1       6.343   4.411   1.958  0.00  0.00    +0.210 HD
ENDBRANCH  21  32
ENDBRANCH  20  21
ENDBRANCH   4  20
TORSDOF 9
