REMARK  Name = ZINC06922896
REMARK  6 active torsions:
REMARK  status: ('A' for Active; 'I' for Inactive)
REMARK    1  A    between atoms: C_1  and  C_2
REMARK    2  A    between atoms: C_5  and  N_8
REMARK    3  A    between atoms: C_9  and  C_11
REMARK    4  A    between atoms: C_11  and  N_61
REMARK    5  A    between atoms: C_14  and  O_32
REMARK    6  A    between atoms: C_21  and  C_23
REMARK                            x       y       z     vdW  Elec       q    Type
REMARK                         _______ _______ _______ _____ _____    ______ ____
ROOT
ATOM      1  C   UNL     1       1.316   1.596   2.492  0.00  0.00    -0.075 C 
ATOM      2  C   UNL     1       2.049   1.116   1.241  0.00  0.00    +0.016 C 
ATOM      3  C   UNL     1       1.280   1.566  -0.003  0.00  0.00    +0.066 C 
ATOM      4  C   UNL     1       2.030   1.126  -1.260  0.00  0.00    +0.035 C 
ATOM      5  C   UNL     1       3.420   1.765  -1.279  0.00  0.00    +0.003 C 
ATOM      6  C   UNL     1       3.278   3.289  -1.275  0.00  0.00    +0.000 C 
ATOM      7  C   UNL     1       2.536   3.727  -0.011  0.00  0.00    +0.005 C 
ATOM      8  C   UNL     1       1.148   3.091   0.016  0.00  0.00    +0.011 C 
ATOM      9  C   UNL     1       0.430   3.513   1.301  0.00  0.00    -0.031 C 
ATOM     10  N   UNL     1       1.233   3.072   2.462  0.00  0.00    +0.390 N 
ATOM     11  H   UNL     1       2.181   3.457   2.377  0.00  0.00    -0.080 HD
ENDROOT
BRANCH   9  12
ATOM     12  C   UNL     1       0.304   5.014   1.336  0.00  0.00    -0.057 A 
ATOM     13  C   UNL     1       1.379   5.788   1.730  0.00  0.00    +0.006 A 
ATOM     14  C   UNL     1       1.270   7.166   1.757  0.00  0.00    +0.050 A 
ATOM     15  C   UNL     1       0.077   7.774   1.403  0.00  0.00    +0.166 A 
ATOM     16  C   UNL     1      -1.009   6.995   1.012  0.00  0.00    +0.166 A 
ATOM     17  C   UNL     1      -0.890   5.614   0.980  0.00  0.00    +0.051 A 
ATOM     18  O   UNL     1      -2.055   7.820   0.716  0.00  0.00    -0.453 OA
ATOM     19  C   UNL     1      -1.728   9.085   1.320  0.00  0.00    +0.466 C 
ATOM     20  O   UNL     1      -0.289   9.088   1.352  0.00  0.00    -0.453 OA
ENDBRANCH   9  12
BRANCH   3  21
ATOM     21  O   UNL     1      -0.022   0.976   0.004  0.00  0.00    -0.388 OA
ATOM     22  H   UNL     1      -0.016   0.009  -0.002  0.00  0.00    +0.210 HD
ENDBRANCH   3  21
BRANCH  10  23
ATOM     23  C   UNL     1       0.625   3.568   3.714  0.00  0.00    +0.020 C 
BRANCH  23  25
ATOM     24  N   UNL     1       1.246   3.675   6.105  0.00  0.00    -0.287 N 
ATOM     25  C   UNL     1       1.571   3.294   4.854  0.00  0.00    +0.201 C 
ATOM     26  O   UNL     1       2.625   2.731   4.646  0.00  0.00    -0.278 OA
ATOM     27  H   UNL     1       0.436   4.184   6.262  0.00  0.00    +0.155 HD
BRANCH  24  32
ATOM     28  C   UNL     1       4.619   2.300  10.455  0.00  0.00    +0.044 C 
ATOM     29  C   UNL     1       3.723   2.666   9.300  0.00  0.00    -0.050 A 
ATOM     30  C   UNL     1       4.274   2.962   8.066  0.00  0.00    +0.005 A 
ATOM     31  C   UNL     1       3.455   3.296   7.005  0.00  0.00    +0.023 A 
ATOM     32  C   UNL     1       2.078   3.336   7.178  0.00  0.00    +0.033 A 
ATOM     33  C   UNL     1       1.529   3.044   8.420  0.00  0.00    +0.023 A 
ATOM     34  C   UNL     1       2.352   2.704   9.475  0.00  0.00    +0.005 A 
ENDBRANCH  24  32
ENDBRANCH  23  25
ENDBRANCH  10  23
TORSDOF 5
