REMARK  Name = ZINC02291103
REMARK  8 active torsions:
REMARK  status: ('A' for Active; 'I' for Inactive)
REMARK    1  A    between atoms: C_4  and  C_7
REMARK    2  A    between atoms: C_7  and  C_8
REMARK    3  A    between atoms: C_8  and  N_9
REMARK    4  A    between atoms: C_10  and  N_33
REMARK    5  A    between atoms: C_11  and  C_22
REMARK    6  A    between atoms: N_24  and  C_25
REMARK    7  A    between atoms: C_25  and  C_26
REMARK    8  A    between atoms: C_26  and  C_27
REMARK                            x       y       z     vdW  Elec       q    Type
REMARK                         _______ _______ _______ _____ _____    ______ ____
ROOT
ATOM      1  N   UNL     1      -4.284  -0.214  -0.711  0.00  0.00    -0.312 N 
ATOM      2  C   UNL     1      -3.163   0.456  -1.095  0.00  0.00    +0.112 A 
ATOM      3  C   UNL     1      -2.443   0.876   0.018  0.00  0.00    +0.103 A 
ATOM      4  C   UNL     1      -3.191   0.413   1.198  0.00  0.00    +0.122 A 
ATOM      5  C   UNL     1      -4.369  -0.277   0.665  0.00  0.00    +0.162 A 
ATOM      6  N   UNL     1      -5.241  -0.804   1.497  0.00  0.00    -0.226 NA
ATOM      7  C   UNL     1      -5.050  -0.701   2.818  0.00  0.00    +0.092 A 
ATOM      8  C   UNL     1      -5.978  -1.262   3.715  0.00  0.00    +0.030 A 
ATOM      9  C   UNL     1      -5.775  -1.153   5.056  0.00  0.00    +0.002 A 
ATOM     10  C   UNL     1      -4.657  -0.491   5.561  0.00  0.00    +0.002 A 
ATOM     11  C   UNL     1      -3.738   0.065   4.726  0.00  0.00    +0.030 A 
ATOM     12  C   UNL     1      -3.913  -0.028   3.332  0.00  0.00    +0.090 A 
ATOM     13  N   UNL     1      -3.015   0.515   2.501  0.00  0.00    -0.241 NA
ENDROOT
BRANCH   3  14
ATOM     14  C   UNL     1      -1.187   1.624   0.017  0.00  0.00    +0.250 C 
ATOM     15  O   UNL     1      -1.204   2.841   0.023  0.00  0.00    -0.270 OA
ATOM     16  N   UNL     1      -0.011   0.966   0.007  0.00  0.00    -0.311 N 
ATOM     17  H   UNL     1       0.002  -0.004   0.002  0.00  0.00    +0.149 HD
BRANCH  16  18
ATOM     18  C   UNL     1       1.248   1.716  -0.001  0.00  0.00    +0.109 C 
BRANCH  18  19
ATOM     19  C   UNL     1       2.424   0.737  -0.017  0.00  0.00    +0.049 C 
BRANCH  19  20
ATOM     20  C   UNL     1       3.719   1.508  -0.025  0.00  0.00    -0.072 C 
ATOM     21  C   UNL     1       4.302   1.727   1.109  0.00  0.00    -0.028 C 
ATOM     22  C   UNL     1       5.587   2.486   1.261  0.00  0.00    +0.027 C 
ATOM     23  C   UNL     1       6.305   2.582  -0.087  0.00  0.00    +0.004 C 
ATOM     24  C   UNL     1       5.300   3.069  -1.138  0.00  0.00    +0.005 C 
ATOM     25  C   UNL     1       4.254   1.970  -1.349  0.00  0.00    +0.030 C 
ENDBRANCH  19  20
ENDBRANCH  18  19
ENDBRANCH  16  18
ENDBRANCH   3  14
BRANCH   2  26
ATOM     26  N   UNL     1      -2.796   0.685  -2.395  0.00  0.00    -0.344 N 
ATOM     27  H   UNL     1      -1.981   1.172  -2.590  0.00  0.00    +0.144 HD
ATOM     28  H   UNL     1      -3.352   0.359  -3.120  0.00  0.00    +0.144 HD
ENDBRANCH   2  26
BRANCH   1  29
ATOM     29  C   UNL     1      -5.266  -0.791  -1.632  0.00  0.00    +0.130 C 
BRANCH  29  30
ATOM     30  C   UNL     1      -4.870  -2.231  -1.964  0.00  0.00    +0.057 C 
BRANCH  30  34
ATOM     31  C   UNL     1      -7.733  -3.912  -4.652  0.00  0.00    +0.000 A 
ATOM     32  C   UNL     1      -6.626  -3.249  -5.147  0.00  0.00    +0.000 A 
ATOM     33  C   UNL     1      -5.699  -2.705  -4.277  0.00  0.00    +0.004 A 
ATOM     34  C   UNL     1      -5.880  -2.824  -2.912  0.00  0.00    -0.046 A 
ATOM     35  C   UNL     1      -6.984  -3.492  -2.417  0.00  0.00    +0.004 A 
ATOM     36  C   UNL     1      -7.913  -4.031  -3.286  0.00  0.00    +0.000 A 
ENDBRANCH  30  34
ENDBRANCH  29  30
ENDBRANCH   1  29
TORSDOF 8
