REMARK  Name = ZINC14021106
REMARK  14 active torsions:
REMARK  status: ('A' for Active; 'I' for Inactive)
REMARK    1  A    between atoms: C_1  and  C_2
REMARK    2  A    between atoms: C_2  and  O_3
REMARK    3  A    between atoms: O_3  and  C_4
REMARK    4  A    between atoms: C_4  and  C_6
REMARK    5  A    between atoms: C_7  and  C_36
REMARK    6  A    between atoms: C_8  and  C_31
REMARK    7  A    between atoms: C_10  and  N_11
REMARK    8  A    between atoms: C_12  and  C_14
REMARK    9  A    between atoms: N_19  and  S_21
REMARK   10  A    between atoms: S_21  and  C_24
REMARK   11  A    between atoms: C_27  and  C_30
REMARK   12  A    between atoms: C_31  and  O_33
REMARK   13  A    between atoms: O_33  and  C_34
REMARK   14  A    between atoms: C_34  and  C_35
REMARK                            x       y       z     vdW  Elec       q    Type
REMARK                         _______ _______ _______ _____ _____    ______ ____
ROOT
ATOM      1  N   UNL     1      -0.520  -2.497   3.952  0.00  0.00    -0.279 N 
ATOM      2  C   UNL     1      -1.003  -2.834   5.164  0.00  0.00    +0.222 C 
ATOM      3  O   UNL     1      -0.260  -3.286   6.009  0.00  0.00    -0.275 OA
ATOM      4  H   UNL     1      -1.114  -2.135   3.276  0.00  0.00    +0.155 HD
ENDROOT
BRANCH   1   9
ATOM      5  C   UNL     1       1.509  -2.379   2.488  0.00  0.00    +0.091 A 
ATOM      6  C   UNL     1       2.871  -2.635   2.454  0.00  0.00    -0.014 A 
ATOM      7  C   UNL     1       3.449  -3.155   3.581  0.00  0.00    +0.102 A 
ATOM      8  S   UNL     1       2.070  -3.289   4.702  0.00  0.00    -0.066 S 
ATOM      9  C   UNL     1       0.822  -2.666   3.673  0.00  0.00    +0.087 A 
ATOM     10  C   UNL     1       3.687  -2.350   1.219  0.00  0.00    +0.046 C 
BRANCH   5  11
ATOM     11  C   UNL     1       0.812  -1.821   1.323  0.00  0.00    +0.342 C 
ATOM     12  O   UNL     1       0.332  -2.564   0.489  0.00  0.00    -0.245 OA
BRANCH  11  13
ATOM     13  O   UNL     1       0.704  -0.485   1.178  0.00  0.00    -0.461 OA
BRANCH  13  15
ATOM     14  C   UNL     1      -0.019   1.526   0.010  0.00  0.00    +0.048 C 
ATOM     15  C   UNL     1       0.002  -0.004   0.002  0.00  0.00    +0.229 C 
ENDBRANCH  13  15
ENDBRANCH  11  13
ENDBRANCH   5  11
BRANCH   7  16
ATOM     16  C   UNL     1       4.848  -3.512   3.808  0.00  0.00    +0.346 C 
ATOM     17  O   UNL     1       5.668  -3.354   2.923  0.00  0.00    -0.244 OA
BRANCH  16  18
ATOM     18  O   UNL     1       5.231  -4.017   4.999  0.00  0.00    -0.461 OA
BRANCH  18  19
ATOM     19  C   UNL     1       6.614  -4.344   5.151  0.00  0.00    +0.229 C 
ATOM     20  C   UNL     1       6.856  -4.899   6.556  0.00  0.00    +0.048 C 
ENDBRANCH  18  19
ENDBRANCH  16  18
ENDBRANCH   7  16
ENDBRANCH   1   9
BRANCH   2  21
ATOM     21  C   UNL     1      -2.468  -2.649   5.469  0.00  0.00    +0.091 C 
ATOM     22  C   UNL     1      -2.836  -1.171   5.326  0.00  0.00    +0.015 C 
ATOM     23  C   UNL     1      -4.330  -0.987   5.604  0.00  0.00    +0.018 C 
ATOM     24  C   UNL     1      -4.636  -1.425   7.039  0.00  0.00    +0.109 C 
ATOM     25  N   UNL     1      -4.153  -2.799   7.228  0.00  0.00    -0.176 NA
ATOM     26  C   UNL     1      -2.753  -3.106   6.903  0.00  0.00    +0.122 C 
BRANCH  25  27
ATOM     27  S   UNL     1      -5.165  -3.980   7.795  0.00  0.00    +0.061 S 
ATOM     28  O   UNL     1      -6.488  -3.564   7.485  0.00  0.00    -0.153 OA
ATOM     29  O   UNL     1      -4.633  -5.220   7.351  0.00  0.00    -0.153 OA
BRANCH  27  30
ATOM     30  C   UNL     1      -5.036  -3.977   9.553  0.00  0.00    +0.105 A 
ATOM     31  C   UNL     1      -4.097  -4.776  10.178  0.00  0.00    +0.029 A 
ATOM     32  C   UNL     1      -3.992  -4.770  11.556  0.00  0.00    +0.005 A 
ATOM     33  C   UNL     1      -4.833  -3.972  12.310  0.00  0.00    -0.050 A 
ATOM     34  C   UNL     1      -5.775  -3.177  11.685  0.00  0.00    +0.005 A 
ATOM     35  C   UNL     1      -5.877  -3.179  10.306  0.00  0.00    +0.029 A 
ATOM     36  C   UNL     1      -4.721  -3.968  13.813  0.00  0.00    +0.044 C 
ENDBRANCH  27  30
ENDBRANCH  25  27
ENDBRANCH   2  21
TORSDOF 10
