REMARK  Name = ZINC01467240
REMARK  9 active torsions:
REMARK  status: ('A' for Active; 'I' for Inactive)
REMARK    1  A    between atoms: C_1  and  C_2
REMARK    2  A    between atoms: C_3  and  C_29
REMARK    3  A    between atoms: C_4  and  C_17
REMARK    4  A    between atoms: N_9  and  C_10
REMARK    5  A    between atoms: C_10  and  C_11
REMARK    6  A    between atoms: C_26  and  O_27
REMARK    7  A    between atoms: O_27  and  C_28
REMARK    8  A    between atoms: C_29  and  O_31
REMARK    9  A    between atoms: O_31  and  C_32
REMARK                            x       y       z     vdW  Elec       q    Type
REMARK                         _______ _______ _______ _____ _____    ______ ____
ROOT
ATOM      1  C   UNL     1      -2.531   3.076  -2.259  0.00  0.00    +0.061 C 
ATOM      2  C   UNL     1      -1.806   2.457  -1.092  0.00  0.00    +0.024 C 
ATOM      3  C   UNL     1      -0.764   1.631  -1.320  0.00  0.00    +0.078 C 
ATOM      4  C   UNL     1      -0.062   1.031  -0.118  0.00  0.00    +0.148 C 
ATOM      5  N   UNL     1      -0.581   1.400   1.209  0.00  0.00    -0.288 N 
ATOM      6  C   UNL     1      -1.634   2.238   1.276  0.00  0.00    +0.307 C 
ATOM      7  O   UNL     1      -2.069   2.549   2.368  0.00  0.00    -0.252 OA
ATOM      8  N   UNL     1      -2.216   2.740   0.180  0.00  0.00    -0.255 N 
ATOM      9  H   UNL     1      -0.174   1.048   2.017  0.00  0.00    +0.151 HD
ENDROOT
BRANCH   4  10
ATOM     10  C   UNL     1       1.389   1.433  -0.179  0.00  0.00    +0.027 A 
ATOM     11  C   UNL     1       2.356   0.523  -0.636  0.00  0.00    -0.009 A 
ATOM     12  C   UNL     1       2.001  -0.774  -1.046  0.00  0.00    +0.009 A 
ATOM     13  C   UNL     1       2.964  -1.629  -1.484  0.00  0.00    +0.001 A 
ATOM     14  C   UNL     1       4.301  -1.240  -1.533  0.00  0.00    +0.001 A 
ATOM     15  C   UNL     1       4.683   0.008  -1.144  0.00  0.00    +0.008 A 
ATOM     16  C   UNL     1       3.716   0.920  -0.687  0.00  0.00    -0.017 A 
ATOM     17  C   UNL     1       4.074   2.217  -0.278  0.00  0.00    +0.012 A 
ATOM     18  C   UNL     1       3.114   3.074   0.159  0.00  0.00    +0.046 A 
ATOM     19  C   UNL     1       1.770   2.687   0.205  0.00  0.00    +0.126 A 
BRANCH  19  20
ATOM     20  O   UNL     1       0.833   3.569   0.642  0.00  0.00    -0.495 OA
ATOM     21  C   UNL     1       1.293   4.865   1.030  0.00  0.00    +0.277 C 
ENDBRANCH  19  20
ENDBRANCH   4  10
BRANCH   3  22
ATOM     22  C   UNL     1      -0.339   1.337  -2.637  0.00  0.00    +0.339 C 
ATOM     23  O   UNL     1      -0.918   1.830  -3.587  0.00  0.00    -0.245 OA
BRANCH  22  24
ATOM     24  O   UNL     1       0.707   0.509  -2.840  0.00  0.00    -0.465 OA
ATOM     25  C   UNL     1       1.081   0.256  -4.196  0.00  0.00    +0.280 C 
ENDBRANCH  22  24
ENDBRANCH   3  22
BRANCH   8  26
ATOM     26  C   UNL     1      -3.355   3.644   0.354  0.00  0.00    +0.150 C 
BRANCH  26  27
ATOM     27  C   UNL     1      -4.633   2.847   0.356  0.00  0.00    -0.030 A 
ATOM     28  C   UNL     1      -5.304   2.613  -0.830  0.00  0.00    +0.005 A 
ATOM     29  C   UNL     1      -6.474   1.876  -0.829  0.00  0.00    +0.000 A 
ATOM     30  C   UNL     1      -6.979   1.384   0.360  0.00  0.00    +0.000 A 
ATOM     31  C   UNL     1      -6.312   1.623   1.547  0.00  0.00    +0.000 A 
ATOM     32  C   UNL     1      -5.139   2.354   1.545  0.00  0.00    +0.005 A 
ENDBRANCH  26  27
ENDBRANCH   8  26
TORSDOF 6
