REMARK  Name = ZINC09993377
REMARK  13 active torsions:
REMARK  status: ('A' for Active; 'I' for Inactive)
REMARK    1  A    between atoms: C_1  and  C_2
REMARK    2  A    between atoms: C_2  and  O_3
REMARK    3  A    between atoms: O_3  and  C_4
REMARK    4  A    between atoms: C_4  and  C_6
REMARK    5  A    between atoms: C_8  and  C_33
REMARK    6  A    between atoms: C_15  and  C_26
REMARK    7  A    between atoms: C_17  and  C_21
REMARK    8  A    between atoms: C_18  and  C_20
REMARK    9  A    between atoms: C_21  and  O_23
REMARK   10  A    between atoms: O_23  and  C_24
REMARK   11  A    between atoms: C_24  and  C_25
REMARK   12  A    between atoms: C_37  and  O_39
REMARK   13  A    between atoms: O_39  and  C_40
REMARK                            x       y       z     vdW  Elec       q    Type
REMARK                         _______ _______ _______ _____ _____    ______ ____
ROOT
ATOM      1  C   UNL     1       0.442  -2.701   2.088  0.00  0.00    +0.176 C 
ATOM      2  C   UNL     1       1.365  -3.863   2.469  0.00  0.00    +0.046 C 
ATOM      3  C   UNL     1       0.540  -4.915   3.214  0.00  0.00    +0.060 C 
ATOM      4  C   UNL     1      -0.091  -4.292   4.435  0.00  0.00    +0.016 C 
ATOM      5  C   UNL     1      -0.430  -2.986   4.452  0.00  0.00    +0.025 C 
ATOM      6  C   UNL     1      -0.206  -2.160   3.334  0.00  0.00    +0.176 C 
ATOM      7  O   UNL     1      -0.540  -0.993   3.374  0.00  0.00    -0.291 OA
ATOM      8  C   UNL     1      -1.058  -2.369   5.677  0.00  0.00    +0.094 C 
ATOM      9  C   UNL     1      -1.605  -3.425   6.592  0.00  0.00    +0.065 C 
ATOM     10  C   UNL     1      -1.218  -4.709   6.486  0.00  0.00    +0.016 C 
ATOM     11  N   UNL     1      -0.316  -5.083   5.529  0.00  0.00    -0.321 N 
ATOM     12  C   UNL     1      -1.783  -5.741   7.427  0.00  0.00    +0.061 C 
ATOM     13  H   UNL     1       0.169  -5.918   5.627  0.00  0.00    +0.152 HD
ENDROOT
BRANCH   8  14
ATOM     14  C   UNL     1      -0.017  -1.567   6.416  0.00  0.00    -0.017 A 
ATOM     15  C   UNL     1       1.124  -2.187   6.890  0.00  0.00    +0.006 A 
ATOM     16  C   UNL     1       2.079  -1.452   7.568  0.00  0.00    +0.000 A 
ATOM     17  C   UNL     1       1.893  -0.097   7.772  0.00  0.00    +0.001 A 
ATOM     18  C   UNL     1       0.752   0.523   7.299  0.00  0.00    +0.020 A 
ATOM     19  C   UNL     1      -0.202  -0.211   6.615  0.00  0.00    +0.045 A 
ATOM     20 CL   UNL     1      -1.632   0.568   6.015  0.00  0.00    -0.083 Cl
ENDBRANCH   8  14
BRANCH   2  21
ATOM     21  C   UNL     1       1.958  -4.468   1.223  0.00  0.00    -0.039 A 
ATOM     22  C   UNL     1       3.268  -4.191   0.875  0.00  0.00    +0.004 A 
ATOM     23  C   UNL     1       3.814  -4.744  -0.267  0.00  0.00    +0.004 A 
ATOM     24  C   UNL     1       3.053  -5.576  -1.065  0.00  0.00    +0.045 A 
ATOM     25  C   UNL     1       1.739  -5.856  -0.719  0.00  0.00    +0.120 A 
ATOM     26  C   UNL     1       1.195  -5.304   0.431  0.00  0.00    +0.049 A 
BRANCH  25  27
ATOM     27  O   UNL     1       0.989  -6.675  -1.503  0.00  0.00    -0.495 OA
ATOM     28  C   UNL     1       1.616  -7.212  -2.669  0.00  0.00    +0.277 C 
ENDBRANCH  25  27
ENDBRANCH   2  21
BRANCH   1  29
ATOM     29  C   UNL     1      -0.621  -3.192   1.140  0.00  0.00    +0.318 C 
ATOM     30  O   UNL     1      -1.621  -3.716   1.571  0.00  0.00    -0.250 OA
BRANCH  29  31
ATOM     31  O   UNL     1      -0.457  -3.048  -0.185  0.00  0.00    -0.464 OA
BRANCH  31  33
ATOM     32  C   UNL     1      -1.142  -3.286  -2.490  0.00  0.00    +0.048 C 
ATOM     33  C   UNL     1      -1.505  -3.537  -1.025  0.00  0.00    +0.229 C 
ENDBRANCH  31  33
ENDBRANCH  29  31
ENDBRANCH   1  29
BRANCH   9  34
ATOM     34  C   UNL     1      -2.546  -3.064   7.585  0.00  0.00    +0.338 C 
ATOM     35  O   UNL     1      -3.052  -3.922   8.284  0.00  0.00    -0.245 OA
BRANCH  34  36
ATOM     36  O   UNL     1      -2.881  -1.769   7.756  0.00  0.00    -0.462 OA
BRANCH  36  37
ATOM     37  C   UNL     1      -3.837  -1.476   8.777  0.00  0.00    +0.229 C 
ATOM     38  C   UNL     1      -4.090   0.032   8.822  0.00  0.00    +0.048 C 
ENDBRANCH  36  37
ENDBRANCH  34  36
ENDBRANCH   9  34
TORSDOF 9
