REMARK  Name = ZINC12389372
REMARK  7 active torsions:
REMARK  status: ('A' for Active; 'I' for Inactive)
REMARK    1  A    between atoms: C_1  and  C_2
REMARK    2  A    between atoms: C_2  and  C_3
REMARK    3  A    between atoms: C_2  and  N_4
REMARK    4  A    between atoms: C_5  and  C_7
REMARK    5  A    between atoms: C_7  and  S_8
REMARK    6  A    between atoms: S_8  and  C_9
REMARK    7  A    between atoms: N_15  and  C_16
REMARK                            x       y       z     vdW  Elec       q    Type
REMARK                         _______ _______ _______ _____ _____    ______ ____
ROOT
ATOM      1  C   UNL     1       3.204  -1.747  -0.036  0.00  0.00    +0.164 C 
ATOM      2  N   UNL     1       1.900  -1.613  -0.025  0.00  0.00    -0.206 NA
ATOM      3  C   UNL     1       1.303  -0.412  -0.013  0.00  0.00    +0.169 A 
ATOM      4  C   UNL     1       2.086   0.750  -0.014  0.00  0.00    +0.077 A 
ATOM      5  C   UNL     1       1.208   1.848   0.000  0.00  0.00    +0.148 A 
ATOM      6  N   UNL     1      -0.017   1.396   0.010  0.00  0.00    -0.172 NA
ATOM      7  N   UNL     1       0.002  -0.004   0.002  0.00  0.00    -0.214 N 
ATOM      8  C   UNL     1       3.548   0.604  -0.028  0.00  0.00    +0.113 C 
ATOM      9  C   UNL     1       5.769   1.567  -0.041  0.00  0.00    +0.115 C 
ATOM     10  C   UNL     1       6.191   0.275  -0.749  0.00  0.00    +0.040 C 
ATOM     11  C   UNL     1       5.506  -0.905  -0.052  0.00  0.00    +0.116 C 
ATOM     12  N   UNL     1       4.058  -0.678  -0.038  0.00  0.00    -0.266 N 
ATOM     13  N   UNL     1       4.271   1.737  -0.032  0.00  0.00    -0.372 N 
ATOM     14  H   UNL     1       3.829   2.664  -0.029  0.00  0.00    +0.161 HD
ENDROOT
BRANCH   7  15
ATOM     15  C   UNL     1      -1.121  -0.841   0.009  0.00  0.00    +0.068 A 
ATOM     16  C   UNL     1      -1.100  -2.040  -0.692  0.00  0.00    +0.029 A 
ATOM     17  C   UNL     1      -2.207  -2.865  -0.679  0.00  0.00    +0.022 A 
ATOM     18  C   UNL     1      -3.341  -2.493   0.022  0.00  0.00    +0.041 A 
ATOM     19  C   UNL     1      -3.367  -1.297   0.717  0.00  0.00    +0.022 A 
ATOM     20  C   UNL     1      -2.260  -0.470   0.711  0.00  0.00    +0.029 A 
ATOM     21 CL   UNL     1      -4.734  -3.530   0.030  0.00  0.00    -0.084 Cl
ENDBRANCH   7  15
BRANCH   1  22
ATOM     22  S   UNL     1       3.885  -3.372  -0.051  0.00  0.00    -0.081 S 
BRANCH  22  23
ATOM     23  C   UNL     1       2.363  -4.351  -0.042  0.00  0.00    +0.172 C 
BRANCH  23  25
ATOM     24  N   UNL     1       1.728  -6.742  -0.049  0.00  0.00    -0.312 N 
ATOM     25  C   UNL     1       2.709  -5.818  -0.053  0.00  0.00    +0.224 C 
ATOM     26  O   UNL     1       3.871  -6.167  -0.064  0.00  0.00    -0.275 OA
ATOM     27  H   UNL     1       0.799  -6.463  -0.039  0.00  0.00    +0.149 HD
BRANCH  24  29
ATOM     28  C   UNL     1       0.915  -8.967   0.557  0.00  0.00    +0.027 C 
ATOM     29  C   UNL     1       2.065  -8.168  -0.059  0.00  0.00    +0.067 C 
ATOM     30  C   UNL     1       2.292  -8.628  -1.500  0.00  0.00    +0.027 C 
ENDBRANCH  24  29
ENDBRANCH  23  25
ENDBRANCH  22  23
ENDBRANCH   1  22
TORSDOF 5
