REMARK  Name = ZINC24596887
REMARK  11 active torsions:
REMARK  status: ('A' for Active; 'I' for Inactive)
REMARK    1  A    between atoms: C_1  and  C_2
REMARK    2  A    between atoms: C_9  and  N_17
REMARK    3  A    between atoms: C_10  and  C_11
REMARK    4  A    between atoms: C_11  and  O_13
REMARK    5  A    between atoms: O_13  and  C_14
REMARK    6  A    between atoms: C_14  and  C_15
REMARK    7  A    between atoms: C_14  and  C_16
REMARK    8  A    between atoms: C_18  and  C_20
REMARK    9  A    between atoms: C_20  and  C_22
REMARK   10  A    between atoms: C_20  and  N_23
REMARK   11  A    between atoms: C_29  and  C_31
REMARK                            x       y       z     vdW  Elec       q    Type
REMARK                         _______ _______ _______ _____ _____    ______ ____
ROOT
ATOM      1  N   UNL     1      -1.438  -0.889   2.498  0.00  0.00    -0.281 N 
ATOM      2  C   UNL     1      -2.167  -1.334   3.540  0.00  0.00    +0.204 C 
ATOM      3  O   UNL     1      -3.197  -1.944   3.343  0.00  0.00    -0.277 OA
ATOM      4  H   UNL     1      -0.504  -0.336   2.677  0.00  0.00    +0.155 HD
ENDROOT
BRANCH   1  12
ATOM      5  C   UNL     1      -4.237  -2.366  -4.655  0.00  0.00    +0.008 C 
ATOM      6  C   UNL     1      -3.566  -1.649  -3.482  0.00  0.00    -0.009 C 
ATOM      7  C   UNL     1      -2.044  -1.716  -3.638  0.00  0.00    +0.008 C 
ATOM      8  C   UNL     1      -1.375  -0.798  -2.613  0.00  0.00    +0.037 C 
ATOM      9  C   UNL     1      -1.919  -1.128  -1.228  0.00  0.00    -0.021 A 
ATOM     10  C   UNL     1      -3.069  -1.820  -1.079  0.00  0.00    -0.004 A 
ATOM     11  S   UNL     1      -3.284  -1.967   0.672  0.00  0.00    -0.077 S 
ATOM     12  C   UNL     1      -1.864  -1.128   1.201  0.00  0.00    +0.086 A 
ATOM     13  C   UNL     1      -1.256  -0.753   0.010  0.00  0.00    +0.091 A 
ATOM     14  C   UNL     1      -3.959  -2.337  -2.166  0.00  0.00    +0.046 C 
BRANCH  13  15
ATOM     15  C   UNL     1       0.002  -0.004   0.002  0.00  0.00    +0.342 C 
ATOM     16  O   UNL     1       1.064  -0.598  -0.011  0.00  0.00    -0.245 OA
BRANCH  15  17
ATOM     17  O   UNL     1      -0.016   1.345   0.009  0.00  0.00    -0.458 OA
BRANCH  17  18
ATOM     18  C   UNL     1       1.268   2.021   0.001  0.00  0.00    +0.171 C 
ATOM     19  C   UNL     1       1.706   2.267  -1.445  0.00  0.00    +0.052 C 
ATOM     20  C   UNL     1       1.144   3.360   0.731  0.00  0.00    +0.052 C 
ENDBRANCH  17  18
ENDBRANCH  15  17
ENDBRANCH  13  15
ENDBRANCH   1  12
BRANCH   2  21
ATOM     21  C   UNL     1      -1.704  -1.074   4.950  0.00  0.00    +0.017 C 
ATOM     22  C   UNL     1      -1.606   0.434   5.185  0.00  0.00    -0.004 C 
BRANCH  21  23
ATOM     23  N   UNL     1      -2.665  -1.656   5.897  0.00  0.00    +0.389 N 
ATOM     24  C   UNL     1      -3.994  -1.054   5.734  0.00  0.00    -0.058 C 
ATOM     25  C   UNL     1      -5.004  -1.808   6.606  0.00  0.00    +0.089 C 
ATOM     26  N   UNL     1      -4.499  -1.837   7.987  0.00  0.00    -0.305 N 
ATOM     27  C   UNL     1      -3.122  -2.300   8.215  0.00  0.00    +0.089 C 
ATOM     28  C   UNL     1      -2.186  -1.526   7.280  0.00  0.00    -0.058 C 
ATOM     29  C   UNL     1      -5.277  -1.449   9.017  0.00  0.00    +0.219 C 
ATOM     30  O   UNL     1      -4.844  -1.479  10.149  0.00  0.00    -0.275 OA
ATOM     31  H   UNL     1      -2.754  -2.730   5.673  0.00  0.00    -0.081 HD
BRANCH  29  32
ATOM     32  C   UNL     1      -6.685  -0.977   8.760  0.00  0.00    +0.075 C 
ATOM     33  C   UNL     1      -6.988   0.505   8.993  0.00  0.00    +0.013 C 
ATOM     34  C   UNL     1      -7.518  -0.548   9.970  0.00  0.00    +0.013 C 
ENDBRANCH  29  32
ENDBRANCH  21  23
ENDBRANCH   2  21
TORSDOF 7
