REMARK  Name = ZINC33297946
REMARK  12 active torsions:
REMARK  status: ('A' for Active; 'I' for Inactive)
REMARK    1  A    between atoms: C_1  and  C_2
REMARK    2  A    between atoms: C_2  and  C_3
REMARK    3  A    between atoms: N_5  and  C_6
REMARK    4  A    between atoms: C_7  and  C_32
REMARK    5  A    between atoms: C_10  and  C_11
REMARK    6  A    between atoms: C_12  and  C_13
REMARK    7  A    between atoms: C_16  and  S_19
REMARK    8  A    between atoms: S_19  and  N_22
REMARK    9  A    between atoms: N_22  and  C_23
REMARK   10  A    between atoms: C_28  and  O_29
REMARK   11  A    between atoms: O_29  and  C_30
REMARK   12  A    between atoms: C_30  and  C_31
REMARK                            x       y       z     vdW  Elec       q    Type
REMARK                         _______ _______ _______ _____ _____    ______ ____
ROOT
ATOM      1  C   UNL     1      -6.674   0.558   1.095  0.00  0.00    -0.025 A 
ATOM      2  C   UNL     1      -6.539  -0.832   1.168  0.00  0.00    +0.010 A 
ATOM      3  C   UNL     1      -7.659  -1.623   1.313  0.00  0.00    +0.029 A 
ATOM      4  C   UNL     1      -8.915  -1.045   1.375  0.00  0.00    +0.109 A 
ATOM      5  C   UNL     1      -9.058   0.329   1.298  0.00  0.00    +0.029 A 
ATOM      6  C   UNL     1      -7.947   1.134   1.158  0.00  0.00    +0.010 A 
ENDROOT
BRANCH   4   7
ATOM      7  S   UNL     1     -10.341  -2.066   1.554  0.00  0.00    +0.072 S 
ATOM      8  O   UNL     1      -9.901  -3.277   2.151  0.00  0.00    -0.150 OA
ATOM      9  O   UNL     1     -11.351  -1.253   2.135  0.00  0.00    -0.150 OA
BRANCH   7  10
ATOM     10  N   UNL     1     -10.862  -2.450   0.030  0.00  0.00    -0.213 N 
ATOM     11  H   UNL     1     -11.859  -2.131  -0.308  0.00  0.00    +0.174 HD
BRANCH  10  12
ATOM     12  C   UNL     1     -10.033  -3.182  -0.829  0.00  0.00    +0.090 A 
ATOM     13  C   UNL     1      -9.197  -4.165  -0.319  0.00  0.00    +0.028 A 
ATOM     14  C   UNL     1      -8.383  -4.889  -1.169  0.00  0.00    +0.002 A 
ATOM     15  C   UNL     1      -8.393  -4.630  -2.527  0.00  0.00    +0.004 A 
ATOM     16  C   UNL     1      -9.220  -3.649  -3.042  0.00  0.00    +0.047 A 
ATOM     17  C   UNL     1     -10.042  -2.922  -2.197  0.00  0.00    +0.143 A 
BRANCH  17  18
ATOM     18  O   UNL     1     -10.855  -1.956  -2.702  0.00  0.00    -0.490 OA
BRANCH  18  19
ATOM     19  C   UNL     1     -10.810  -1.744  -4.115  0.00  0.00    +0.226 C 
ATOM     20  C   UNL     1     -11.785  -0.627  -4.494  0.00  0.00    +0.048 C 
ENDBRANCH  18  19
ENDBRANCH  17  18
ENDBRANCH  10  12
ENDBRANCH   7  10
ENDBRANCH   4   7
BRANCH   1  22
ATOM     21  C   UNL     1      -4.386   1.172   1.691  0.00  0.00    +0.051 C 
ATOM     22  C   UNL     1      -5.483   1.411   0.945  0.00  0.00    +0.011 C 
BRANCH  21  27
ATOM     23  C   UNL     1      -3.384  -0.248   3.563  0.00  0.00    +0.103 A 
ATOM     24  C   UNL     1      -3.995  -1.148   4.467  0.00  0.00    +0.102 A 
ATOM     25  N   UNL     1      -5.268  -1.145   4.192  0.00  0.00    -0.081 NA
ATOM     26  O   UNL     1      -5.542  -0.409   3.275  0.00  0.00    -0.353 OA
ATOM     27  C   UNL     1      -4.445   0.212   2.794  0.00  0.00    +0.182 A 
ATOM     28  C   UNL     1      -3.307  -1.952   5.540  0.00  0.00    +0.071 C 
BRANCH  23  31
ATOM     29  C   UNL     1      -1.243   0.059   4.559  0.00  0.00    +0.217 C 
ATOM     30  O   UNL     1      -1.721  -0.209   5.640  0.00  0.00    -0.275 OA
ATOM     31  N   UNL     1      -2.029   0.095   3.464  0.00  0.00    -0.281 N 
ATOM     32  H   UNL     1      -1.606   0.392   2.493  0.00  0.00    +0.155 HD
BRANCH  29  34
ATOM     33  C   UNL     1       0.888   0.236   5.814  0.00  0.00    +0.013 C 
ATOM     34  C   UNL     1       0.232   0.348   4.437  0.00  0.00    +0.093 C 
ENDBRANCH  29  34
ENDBRANCH  23  31
ENDBRANCH  21  27
ENDBRANCH   1  22
TORSDOF 9
