REMARK  Name = ZINC63314256
REMARK  9 active torsions:
REMARK  status: ('A' for Active; 'I' for Inactive)
REMARK    1  A    between atoms: C_1  and  C_2
REMARK    2  A    between atoms: C_2  and  O_3
REMARK    3  A    between atoms: O_3  and  C_4
REMARK    4  A    between atoms: C_6  and  S_11
REMARK    5  A    between atoms: S_11  and  N_14
REMARK    6  A    between atoms: N_14  and  C_15
REMARK    7  A    between atoms: C_15  and  C_16
REMARK    8  A    between atoms: C_16  and  C_17
REMARK    9  A    between atoms: C_25  and  C_27
REMARK                            x       y       z     vdW  Elec       q    Type
REMARK                         _______ _______ _______ _____ _____    ______ ____
ROOT
ATOM      1  N   UNL     1       1.258  -5.408   1.557  0.00  0.00    -0.190 NA
ATOM      2  H   UNL     1       2.102  -5.090   1.913  0.00  0.00    +0.148 HD
ENDROOT
BRANCH   1   3
ATOM      3  S   UNL     1       0.858  -5.107  -0.021  0.00  0.00    +0.059 S 
ATOM      4  O   UNL     1       0.434  -6.345  -0.576  0.00  0.00    -0.153 OA
ATOM      5  O   UNL     1       1.927  -4.351  -0.574  0.00  0.00    -0.153 OA
BRANCH   3   8
ATOM      6  C   UNL     1      -1.498  -1.848   0.006  0.00  0.00    +0.136 A 
ATOM      7  C   UNL     1      -0.388  -2.679  -0.003  0.00  0.00    +0.075 A 
ATOM      8  C   UNL     1      -0.553  -4.051  -0.009  0.00  0.00    +0.109 A 
ATOM      9  C   UNL     1      -1.823  -4.596  -0.005  0.00  0.00    +0.030 A 
ATOM     10  C   UNL     1      -2.932  -3.771   0.004  0.00  0.00    +0.021 A 
ATOM     11  C   UNL     1      -2.773  -2.398   0.016  0.00  0.00    +0.060 A 
ATOM     12 BR   UNL     1      -4.290  -1.269   0.037  0.00  0.00    -0.047 Br
BRANCH   6  13
ATOM     13  O   UNL     1      -1.339  -0.499   0.012  0.00  0.00    -0.491 OA
BRANCH  13  15
ATOM     14  C   UNL     1      -0.019   1.526   0.010  0.00  0.00    +0.048 C 
ATOM     15  C   UNL     1       0.002  -0.004   0.002  0.00  0.00    +0.226 C 
ENDBRANCH  13  15
ENDBRANCH   6  13
ENDBRANCH   3   8
ENDBRANCH   1   3
BRANCH   1  16
ATOM     16  C   UNL     1       0.337  -6.156   2.417  0.00  0.00    +0.110 C 
BRANCH  16  17
ATOM     17  C   UNL     1       1.074  -6.618   3.675  0.00  0.00    +0.050 C 
BRANCH  17  18
ATOM     18  C   UNL     1       0.127  -7.386   4.559  0.00  0.00    -0.037 C 
ATOM     19  C   UNL     1      -1.176  -7.655   4.315  0.00  0.00    +0.001 A 
ATOM     20  C   UNL     1      -2.069  -7.326   3.198  0.00  0.00    +0.010 A 
ATOM     21  C   UNL     1      -3.355  -7.738   3.229  0.00  0.00    +0.002 A 
ATOM     22  C   UNL     1      -3.881  -8.476   4.297  0.00  0.00    +0.022 A 
ATOM     23  C   UNL     1      -3.141  -8.830   5.373  0.00  0.00    +0.064 A 
ATOM     24  C   UNL     1      -1.730  -8.436   5.445  0.00  0.00    +0.062 A 
ATOM     25  N   UNL     1      -0.807  -8.641   6.351  0.00  0.00    -0.377 N 
ATOM     26  C   UNL     1       0.442  -8.019   5.896  0.00  0.00    +0.103 C 
ATOM     27  C   UNL     1       1.534  -9.079   5.734  0.00  0.00    +0.035 C 
ATOM     28 CL   UNL     1      -3.858  -9.745   6.662  0.00  0.00    -0.081 Cl
ATOM     29  H   UNL     1      -0.928  -9.127   7.182  0.00  0.00    +0.160 HD
ENDBRANCH  17  18
ENDBRANCH  16  17
ENDBRANCH   1  16
TORSDOF 7
