REMARK  Name = ZINC11196564
REMARK  11 active torsions:
REMARK  status: ('A' for Active; 'I' for Inactive)
REMARK    1  A    between atoms: C_1  and  C_2
REMARK    2  A    between atoms: C_5  and  N_8
REMARK    3  A    between atoms: C_9  and  C_28
REMARK    4  A    between atoms: C_12  and  S_13
REMARK    5  A    between atoms: S_13  and  C_14
REMARK    6  A    between atoms: C_14  and  C_16
REMARK    7  A    between atoms: C_14  and  C_17
REMARK    8  A    between atoms: N_19  and  C_20
REMARK    9  A    between atoms: N_24  and  C_25
REMARK   10  A    between atoms: C_25  and  C_26
REMARK   11  A    between atoms: C_25  and  C_27
REMARK                            x       y       z     vdW  Elec       q    Type
REMARK                         _______ _______ _______ _____ _____    ______ ____
ROOT
ATOM      1  N   UNL     1       3.086   5.560   1.226  0.00  0.00    -0.270 N 
ATOM      2  C   UNL     1       4.460   5.534   1.132  0.00  0.00    +0.169 A 
ATOM      3  N   UNL     1       4.782   4.428   0.502  0.00  0.00    -0.128 NA
ATOM      4  N   UNL     1       3.721   3.767   0.204  0.00  0.00    -0.122 NA
ATOM      5  C   UNL     1       2.654   4.414   0.618  0.00  0.00    +0.197 A 
ENDROOT
BRANCH   1  10
ATOM      6  C   UNL     1      -0.111   9.582   3.638  0.00  0.00    +0.044 C 
ATOM      7  C   UNL     1       0.737   8.514   2.998  0.00  0.00    -0.050 A 
ATOM      8  C   UNL     1       0.815   7.258   3.571  0.00  0.00    +0.005 A 
ATOM      9  C   UNL     1       1.592   6.277   2.986  0.00  0.00    +0.026 A 
ATOM     10  C   UNL     1       2.296   6.553   1.822  0.00  0.00    +0.051 A 
ATOM     11  C   UNL     1       2.221   7.817   1.252  0.00  0.00    +0.026 A 
ATOM     12  C   UNL     1       1.438   8.792   1.838  0.00  0.00    +0.005 A 
ENDBRANCH   1  10
BRANCH   2  13
ATOM     13  C   UNL     1       5.396   6.557   1.644  0.00  0.00    +0.020 A 
ATOM     14  C   UNL     1       6.711   6.601   1.177  0.00  0.00    +0.011 A 
ATOM     15  C   UNL     1       7.577   7.562   1.656  0.00  0.00    +0.001 A 
ATOM     16  C   UNL     1       7.149   8.473   2.605  0.00  0.00    +0.000 A 
ATOM     17  C   UNL     1       5.849   8.432   3.076  0.00  0.00    +0.001 A 
ATOM     18  C   UNL     1       4.970   7.480   2.601  0.00  0.00    +0.011 A 
ENDBRANCH   2  13
BRANCH   5  19
ATOM     19  S   UNL     1       0.980   3.897   0.429  0.00  0.00    -0.073 S 
BRANCH  19  20
ATOM     20  C   UNL     1       1.230   2.335  -0.450  0.00  0.00    +0.137 C 
ATOM     21  C   UNL     1       1.837   2.615  -1.826  0.00  0.00    +0.029 C 
BRANCH  20  22
ATOM     22  C   UNL     1      -0.094   1.635  -0.617  0.00  0.00    +0.231 C 
ATOM     23  O   UNL     1      -1.123   2.278  -0.625  0.00  0.00    -0.274 OA
ATOM     24  N   UNL     1      -0.135   0.296  -0.765  0.00  0.00    -0.270 N 
ATOM     25  H   UNL     1       0.688  -0.217  -0.763  0.00  0.00    +0.156 HD
BRANCH  24  26
ATOM     26  C   UNL     1      -1.361  -0.351  -0.921  0.00  0.00    +0.123 A 
ATOM     27  C   UNL     1      -2.587   0.240  -0.936  0.00  0.00    +0.065 A 
ATOM     28  C   UNL     1      -3.543  -0.762  -1.117  0.00  0.00    +0.136 A 
ATOM     29  N   UNL     1      -2.924  -1.912  -1.198  0.00  0.00    -0.178 NA
ATOM     30  N   UNL     1      -1.548  -1.682  -1.078  0.00  0.00    -0.248 N 
BRANCH  30  31
ATOM     31  C   UNL     1      -0.496  -2.701  -1.114  0.00  0.00    +0.103 C 
ATOM     32  C   UNL     1      -0.717  -3.702   0.022  0.00  0.00    +0.032 C 
ATOM     33  C   UNL     1      -0.543  -3.434  -2.456  0.00  0.00    +0.032 C 
ENDBRANCH  30  31
ENDBRANCH  24  26
ENDBRANCH  20  22
ENDBRANCH  19  20
ENDBRANCH   5  19
TORSDOF 7
