REMARK  Name = ZINC09130314
REMARK  3 active torsions:
REMARK  status: ('A' for Active; 'I' for Inactive)
REMARK    1  A    between atoms: C_1  and  C_2
REMARK    2  A    between atoms: C_23  and  N_27
REMARK    3  A    between atoms: C_24  and  C_25
REMARK                            x       y       z     vdW  Elec       q    Type
REMARK                         _______ _______ _______ _____ _____    ______ ____
ROOT
ATOM      1  C   UNL     1       3.667   2.331  -0.027  0.00  0.00    +0.045 C 
ATOM      2  C   UNL     1       2.400   1.515  -0.016  0.00  0.00    -0.029 A 
ATOM      3  C   UNL     1       1.152   2.119   0.002  0.00  0.00    +0.005 A 
ATOM      4  C   UNL     1      -0.017   1.387   0.010  0.00  0.00    +0.001 A 
ATOM      5  C   UNL     1       0.002  -0.004   0.002  0.00  0.00    +0.007 A 
ATOM      6  C   UNL     1       1.239  -0.609  -0.010  0.00  0.00    -0.002 A 
ATOM      7  C   UNL     1       2.434   0.120  -0.023  0.00  0.00    +0.041 A 
ATOM      8  N   UNL     1       3.519  -0.738  -0.041  0.00  0.00    -0.284 N 
ATOM      9  C   UNL     1       3.141  -2.035  -0.024  0.00  0.00    +0.237 C 
ATOM     10  O   UNL     1       3.875  -3.001  -0.030  0.00  0.00    -0.274 OA
ATOM     11  C   UNL     1       1.633  -2.054   0.004  0.00  0.00    +0.131 C 
ATOM     12  C   UNL     1       1.083  -2.768  -1.208  0.00  0.00    +0.023 C 
ATOM     13  C   UNL     1      -0.177  -3.207  -1.130  0.00  0.00    +0.040 C 
ATOM     14  C   UNL     1      -0.900  -3.783  -2.277  0.00  0.00    +0.003 A 
ATOM     15  C   UNL     1      -0.226  -4.128  -3.448  0.00  0.00    +0.059 A 
ATOM     16  C   UNL     1      -0.931  -4.664  -4.510  0.00  0.00    +0.163 A 
ATOM     17  C   UNL     1      -2.307  -4.832  -4.412  0.00  0.00    +0.162 A 
ATOM     18  C   UNL     1      -2.975  -4.500  -3.247  0.00  0.00    +0.053 A 
ATOM     19  C   UNL     1      -2.275  -4.002  -2.163  0.00  0.00    -0.033 A 
ATOM     20  C   UNL     1      -3.008  -3.756  -0.873  0.00  0.00    +0.055 C 
ATOM     21  C   UNL     1      -2.297  -2.741   0.017  0.00  0.00    +0.117 C 
ATOM     22  N   UNL     1      -0.869  -3.045   0.079  0.00  0.00    -0.287 N 
ATOM     23  C   UNL     1      -0.179  -3.158   1.259  0.00  0.00    +0.103 C 
ATOM     24  C   UNL     1       1.126  -2.710   1.265  0.00  0.00    +0.088 C 
ATOM     25  O   UNL     1      -2.997  -5.347  -5.473  0.00  0.00    -0.488 OA
ATOM     26  C   UNL     1      -3.066  -4.520  -6.635  0.00  0.00    +0.232 C 
ATOM     27  C   UNL     1      -1.829  -4.705  -7.500  0.00  0.00    +0.082 C 
ATOM     28  C   UNL     1      -0.562  -4.230  -6.807  0.00  0.00    +0.232 C 
ATOM     29  O   UNL     1      -0.284  -5.027  -5.654  0.00  0.00    -0.488 OA
ATOM     30  H   UNL     1       4.443  -0.443  -0.062  0.00  0.00    +0.155 HD
ENDROOT
BRANCH  23  31
ATOM     31  N   UNL     1      -0.761  -3.692   2.384  0.00  0.00    -0.345 N 
ATOM     32  H   UNL     1      -0.252  -3.761   3.207  0.00  0.00    +0.144 HD
ATOM     33  H   UNL     1      -1.680  -4.000   2.354  0.00  0.00    +0.144 HD
ENDBRANCH  23  31
BRANCH  24  34
ATOM     34  C   UNL     1       1.963  -2.861   2.417  0.00  0.00    +0.100 C 
ATOM     35  N   UNL     1       2.627  -2.981   3.332  0.00  0.00    -0.191 NA
ENDBRANCH  24  34
TORSDOF 2
