REMARK  Name = ZINC39448830
REMARK  5 active torsions:
REMARK  status: ('A' for Active; 'I' for Inactive)
REMARK    1  A    between atoms: C_1  and  C_2
REMARK    2  A    between atoms: C_5  and  C_8
REMARK    3  A    between atoms: C_11  and  S_16
REMARK    4  A    between atoms: S_16  and  C_17
REMARK    5  A    between atoms: C_17  and  C_18
REMARK                            x       y       z     vdW  Elec       q    Type
REMARK                         _______ _______ _______ _____ _____    ______ ____
ROOT
ATOM      1  S   UNL     1       2.721  -5.734   2.647  0.00  0.00    -0.083 S 
ENDROOT
BRANCH   1   4
ATOM      2  C   UNL     1       0.059  -4.275  -0.021  0.00  0.00    +0.200 C 
ATOM      3  N   UNL     1       0.760  -4.759   1.166  0.00  0.00    -0.346 N 
ATOM      4  C   UNL     1       1.966  -5.230   1.137  0.00  0.00    +0.136 C 
ATOM      5  N   UNL     1       2.679  -5.349  -0.040  0.00  0.00    -0.269 N 
ATOM      6  C   UNL     1       2.141  -4.758  -1.181  0.00  0.00    +0.180 C 
ATOM      7  N   UNL     1       0.751  -4.750  -1.230  0.00  0.00    -0.293 N 
ATOM      8  N   UNL     1       2.881  -4.254  -2.126  0.00  0.00    -0.272 NA
ATOM      9  H   UNL     1       2.465  -3.851  -2.905  0.00  0.00    +0.189 HD
ATOM     10  H   UNL     1       0.266  -5.040  -2.018  0.00  0.00    +0.151 HD
ATOM     11  H   UNL     1       3.523  -5.826  -0.071  0.00  0.00    +0.157 HD
ATOM     12  H   UNL     1       0.299  -4.726   2.019  0.00  0.00    +0.163 HD
BRANCH   2  17
ATOM     13  C   UNL     1      -0.018   1.503   0.010  0.00  0.00    +0.044 C 
ATOM     14  C   UNL     1       0.002  -0.004   0.002  0.00  0.00    -0.050 A 
ATOM     15  C   UNL     1       0.006  -0.689  -1.199  0.00  0.00    +0.004 A 
ATOM     16  C   UNL     1       0.025  -2.071  -1.206  0.00  0.00    +0.007 A 
ATOM     17  C   UNL     1       0.040  -2.768  -0.013  0.00  0.00    -0.007 A 
ATOM     18  C   UNL     1       0.037  -2.084   1.188  0.00  0.00    +0.007 A 
ATOM     19  C   UNL     1       0.023  -0.702   1.195  0.00  0.00    +0.004 A 
ENDBRANCH   2  17
ENDBRANCH   1   4
BRANCH   1  20
ATOM     20  C   UNL     1       4.365  -6.312   2.144  0.00  0.00    +0.173 C 
BRANCH  20  21
ATOM     21  C   UNL     1       5.128  -6.778   3.358  0.00  0.00    +0.234 C 
ATOM     22  O   UNL     1       4.612  -6.725   4.455  0.00  0.00    -0.274 OA
ATOM     23  N   UNL     1       6.382  -7.253   3.225  0.00  0.00    -0.239 N 
ATOM     24  C   UNL     1       7.001  -7.318   1.968  0.00  0.00    +0.044 A 
ATOM     25  C   UNL     1       7.104  -6.144   1.231  0.00  0.00    +0.024 A 
ATOM     26  C   UNL     1       7.735  -6.139   0.005  0.00  0.00    +0.002 A 
ATOM     27  C   UNL     1       8.269  -7.319  -0.482  0.00  0.00    +0.000 A 
ATOM     28  C   UNL     1       8.155  -8.483   0.241  0.00  0.00    +0.005 A 
ATOM     29  C   UNL     1       7.502  -8.514   1.476  0.00  0.00    -0.025 A 
ATOM     30  C   UNL     1       7.388  -9.887   2.097  0.00  0.00    +0.042 C 
ATOM     31  C   UNL     1       6.605  -9.895   3.398  0.00  0.00    +0.042 C 
ATOM     32  C   UNL     1       7.280  -9.052   4.451  0.00  0.00    -0.025 A 
ATOM     33  C   UNL     1       7.111  -7.692   4.338  0.00  0.00    +0.044 A 
ATOM     34  C   UNL     1       7.647  -6.826   5.275  0.00  0.00    +0.024 A 
ATOM     35  C   UNL     1       8.384  -7.355   6.322  0.00  0.00    +0.002 A 
ATOM     36  C   UNL     1       8.579  -8.720   6.423  0.00  0.00    +0.000 A 
ATOM     37  C   UNL     1       8.019  -9.590   5.478  0.00  0.00    +0.005 A 
ENDBRANCH  20  21
ENDBRANCH   1  20
TORSDOF 4
