REMARK  Name = ZINC65183117
REMARK  8 active torsions:
REMARK  status: ('A' for Active; 'I' for Inactive)
REMARK    1  A    between atoms: C_1  and  N_2
REMARK    2  A    between atoms: N_2  and  C_3
REMARK    3  A    between atoms: C_3  and  C_4
REMARK    4  A    between atoms: C_4  and  C_5
REMARK    5  A    between atoms: C_8  and  C_11
REMARK    6  A    between atoms: C_22  and  C_24
REMARK    7  A    between atoms: C_27  and  O_30
REMARK    8  A    between atoms: O_30  and  C_31
REMARK                            x       y       z     vdW  Elec       q    Type
REMARK                         _______ _______ _______ _____ _____    ______ ____
ROOT
ATOM      1  C   UNL     1      -1.071  -1.794   3.140  0.00  0.00    +0.139 C 
ATOM      2  N   UNL     1       0.059  -2.126   3.651  0.00  0.00    -0.072 NA
ATOM      3  O   UNL     1      -0.120  -2.828   4.867  0.00  0.00    -0.367 OA
ATOM      4  C   UNL     1      -1.538  -2.910   5.080  0.00  0.00    +0.318 C 
ATOM      5  N   UNL     1      -2.121  -2.212   3.923  0.00  0.00    -0.291 N 
ATOM      6  H   UNL     1      -3.065  -2.075   3.745  0.00  0.00    +0.151 HD
ENDROOT
BRANCH   4   7
ATOM      7  C   UNL     1      -1.991  -4.371   5.116  0.00  0.00    +0.165 C 
ATOM      8  C   UNL     1      -3.480  -4.450   5.365  0.00  0.00    +0.012 C 
ATOM      9  C   UNL     1      -3.631  -5.131   6.523  0.00  0.00    -0.002 A 
ATOM     10  C   UNL     1      -4.815  -5.534   7.293  0.00  0.00    +0.029 A 
ATOM     11  C   UNL     1      -4.645  -6.225   8.444  0.00  0.00    +0.042 A 
ATOM     12  C   UNL     1      -3.370  -6.566   8.918  0.00  0.00    +0.022 A 
ATOM     13  C   UNL     1      -2.236  -6.231   8.266  0.00  0.00    +0.027 A 
ATOM     14  C   UNL     1      -2.297  -5.503   7.046  0.00  0.00    +0.043 A 
ATOM     15  N   UNL     1      -1.356  -5.069   6.240  0.00  0.00    -0.373 N 
ATOM     16 CL   UNL     1      -6.042  -6.702   9.357  0.00  0.00    -0.084 Cl
ATOM     17  H   UNL     1      -0.402  -5.189   6.366  0.00  0.00    +0.160 HD
ENDBRANCH   4   7
BRANCH   1  18
ATOM     18  C   UNL     1      -1.226  -1.035   1.847  0.00  0.00    +0.094 C 
BRANCH  18  19
ATOM     19  C   UNL     1       0.155  -0.742   1.259  0.00  0.00    +0.115 C 
BRANCH  19  21
ATOM     20  C   UNL     1      -0.033   1.460   0.012  0.00  0.00    +0.132 C 
ATOM     21  N   UNL     1       0.004  -0.004   0.002  0.00  0.00    -0.300 N 
ATOM     22  C   UNL     1      -0.102  -0.673  -1.163  0.00  0.00    +0.246 C 
ATOM     23  O   UNL     1      -0.178  -1.886  -1.163  0.00  0.00    -0.270 OA
BRANCH  22  24
ATOM     24  C   UNL     1      -0.124   0.068  -2.440  0.00  0.00    +0.037 A 
ATOM     25  C   UNL     1       0.640   1.228  -2.590  0.00  0.00    +0.016 A 
ATOM     26  C   UNL     1       0.617   1.915  -3.783  0.00  0.00    +0.046 A 
ATOM     27  C   UNL     1      -0.166   1.458  -4.837  0.00  0.00    +0.120 A 
ATOM     28  C   UNL     1      -0.927   0.304  -4.691  0.00  0.00    +0.046 A 
ATOM     29  C   UNL     1      -0.905  -0.393  -3.503  0.00  0.00    +0.016 A 
BRANCH  27  30
ATOM     30  O   UNL     1      -0.186   2.139  -6.010  0.00  0.00    -0.495 OA
ATOM     31  C   UNL     1      -1.012   1.613  -7.051  0.00  0.00    +0.277 C 
ENDBRANCH  27  30
ENDBRANCH  22  24
ENDBRANCH  19  21
ENDBRANCH  18  19
ENDBRANCH   1  18
TORSDOF 6
