REMARK  Name = ZINC11997960
REMARK  12 active torsions:
REMARK  status: ('A' for Active; 'I' for Inactive)
REMARK    1  A    between atoms: C_1  and  C_2
REMARK    2  A    between atoms: C_4  and  C_11
REMARK    3  A    between atoms: C_5  and  C_10
REMARK    4  A    between atoms: C_7  and  O_8
REMARK    5  A    between atoms: O_8  and  C_9
REMARK    6  A    between atoms: C_11  and  N_63
REMARK    7  A    between atoms: C_13  and  S_28
REMARK    8  A    between atoms: C_16  and  C_18
REMARK    9  A    between atoms: N_20  and  C_21
REMARK   10  A    between atoms: C_21  and  C_22
REMARK   11  A    between atoms: C_23  and  C_27
REMARK   12  A    between atoms: S_28  and  C_29
REMARK                            x       y       z     vdW  Elec       q    Type
REMARK                         _______ _______ _______ _____ _____    ______ ____
ROOT
ATOM      1  C   UNL     1       0.163   0.309  -1.546  0.00  0.00    -0.063 C 
ATOM      2  C   UNL     1       0.658   1.276  -0.449  0.00  0.00    +0.034 C 
ATOM      3  C   UNL     1      -0.609   2.025   0.023  0.00  0.00    +0.006 C 
ATOM      4  C   UNL     1      -1.758   1.446  -0.830  0.00  0.00    +0.021 C 
ATOM      5  N   UNL     1      -1.080   0.930  -2.017  0.00  0.00    +0.391 N 
ATOM      6  H   UNL     1      -0.867   1.701  -2.661  0.00  0.00    -0.080 HD
ENDROOT
BRANCH   4   7
ATOM      7  C   UNL     1      -2.741   2.530  -1.191  0.00  0.00    +0.200 C 
ATOM      8  O   UNL     1      -2.582   3.181  -2.202  0.00  0.00    -0.278 OA
ATOM      9  N   UNL     1      -3.798   2.776  -0.391  0.00  0.00    -0.311 N 
ATOM     10  H   UNL     1      -3.925   2.255   0.417  0.00  0.00    +0.149 HD
BRANCH   9  11
ATOM     11  C   UNL     1      -4.753   3.829  -0.742  0.00  0.00    +0.165 C 
BRANCH  11  12
ATOM     12  C   UNL     1      -5.832   3.899   0.308  0.00  0.00    +0.124 A 
ATOM     13  C   UNL     1      -5.790   4.701   1.466  0.00  0.00    +0.106 A 
ATOM     14  N   UNL     1      -6.878   4.523   2.153  0.00  0.00    -0.054 NA
ATOM     15  O   UNL     1      -7.676   3.583   1.451  0.00  0.00    -0.242 OA
ATOM     16  N   UNL     1      -6.948   3.234   0.284  0.00  0.00    -0.052 NA
ATOM     17  C   UNL     1      -4.659   5.622   1.847  0.00  0.00    +0.071 C 
ENDBRANCH  11  12
ENDBRANCH   9  11
ENDBRANCH   4   7
BRANCH   5  18
ATOM     18  C   UNL     1      -1.934  -0.077  -2.721  0.00  0.00    -0.042 C 
BRANCH  18  22
ATOM     19  C   UNL     1      -5.123  -1.822   0.717  0.00  0.00    +0.047 C 
ATOM     20  C   UNL     1      -3.859  -1.977  -0.088  0.00  0.00    -0.009 A 
ATOM     21  C   UNL     1      -3.492  -1.001  -0.994  0.00  0.00    +0.009 A 
ATOM     22  C   UNL     1      -2.332  -1.143  -1.734  0.00  0.00    -0.061 A 
ATOM     23  C   UNL     1      -1.540  -2.265  -1.573  0.00  0.00    -0.046 A 
ATOM     24  C   UNL     1      -1.899  -3.241  -0.664  0.00  0.00    +0.049 A 
ATOM     25  C   UNL     1      -3.063  -3.101   0.079  0.00  0.00    +0.123 A 
ATOM     26  C   UNL     1      -0.280  -2.420  -2.384  0.00  0.00    +0.044 C 
BRANCH  25  27
ATOM     27  O   UNL     1      -3.421  -4.062   0.970  0.00  0.00    -0.495 OA
ATOM     28  C   UNL     1      -2.554  -5.192   1.091  0.00  0.00    +0.277 C 
ENDBRANCH  25  27
ENDBRANCH  18  22
ENDBRANCH   5  18
BRANCH   2  29
ATOM     29  S   UNL     1       1.393   0.346   0.925  0.00  0.00    -0.124 S 
BRANCH  29  30
ATOM     30  C   UNL     1       2.835  -0.383   0.223  0.00  0.00    +0.008 A 
ATOM     31  C   UNL     1       3.146  -0.164  -1.114  0.00  0.00    +0.017 A 
ATOM     32  C   UNL     1       4.280  -0.732  -1.660  0.00  0.00    +0.039 A 
ATOM     33  C   UNL     1       5.101  -1.528  -0.879  0.00  0.00    +0.123 A 
ATOM     34  C   UNL     1       4.791  -1.752   0.452  0.00  0.00    +0.039 A 
ATOM     35  C   UNL     1       3.661  -1.181   1.004  0.00  0.00    +0.017 A 
ATOM     36  F   UNL     1       6.207  -2.087  -1.417  0.00  0.00    -0.205 F 
ENDBRANCH  29  30
ENDBRANCH   2  29
TORSDOF 8
