REMARK  Name = ZINC09548813
REMARK  7 active torsions:
REMARK  status: ('A' for Active; 'I' for Inactive)
REMARK    1  A    between atoms: C_1  and  N_65
REMARK    2  A    between atoms: C_2  and  C_3
REMARK    3  A    between atoms: C_2  and  N_65
REMARK    4  A    between atoms: N_5  and  C_14
REMARK    5  A    between atoms: C_7  and  C_8
REMARK    6  A    between atoms: C_20  and  N_21
REMARK    7  A    between atoms: C_20  and  N_65
REMARK                            x       y       z     vdW  Elec       q    Type
REMARK                         _______ _______ _______ _____ _____    ______ ____
ROOT
ATOM      1  C   UNL     1       2.522   1.696   0.503  0.00  0.00    -0.037 C 
ENDROOT
BRANCH   1   2
ATOM      2  C   UNL     1       1.030   1.734   0.298  0.00  0.00    -0.018 A 
ATOM      3  C   UNL     1       0.330   2.745  -0.261  0.00  0.00    +0.116 A 
ATOM      4  N   UNL     1      -0.983   2.396  -0.257  0.00  0.00    -0.239 N 
ATOM      5  N   UNL     1      -1.091   1.122   0.317  0.00  0.00    -0.166 NA
ATOM      6  C   UNL     1       0.117   0.722   0.654  0.00  0.00    +0.094 A 
BRANCH   6   7
ATOM      7  C   UNL     1       0.458  -0.571   1.298  0.00  0.00    +0.002 A 
ATOM      8  C   UNL     1       1.563  -1.300   0.862  0.00  0.00    +0.010 A 
ATOM      9  C   UNL     1       1.878  -2.499   1.468  0.00  0.00    +0.001 A 
ATOM     10  C   UNL     1       1.093  -2.983   2.499  0.00  0.00    +0.000 A 
ATOM     11  C   UNL     1      -0.008  -2.267   2.933  0.00  0.00    +0.001 A 
ATOM     12  C   UNL     1      -0.329  -1.064   2.338  0.00  0.00    +0.010 A 
ENDBRANCH   6   7
BRANCH   4  13
ATOM     13  C   UNL     1      -2.043   3.172  -0.744  0.00  0.00    +0.065 A 
ATOM     14  C   UNL     1      -1.796   4.425  -1.288  0.00  0.00    +0.028 A 
ATOM     15  C   UNL     1      -2.842   5.185  -1.771  0.00  0.00    +0.002 A 
ATOM     16  C   UNL     1      -4.137   4.705  -1.704  0.00  0.00    +0.000 A 
ATOM     17  C   UNL     1      -4.388   3.459  -1.158  0.00  0.00    +0.002 A 
ATOM     18  C   UNL     1      -3.345   2.692  -0.677  0.00  0.00    +0.028 A 
ENDBRANCH   4  13
ENDBRANCH   1   2
BRANCH   1  20
ATOM     19  C   UNL     1       2.578   3.335   2.283  0.00  0.00    -0.093 C 
ATOM     20  N   UNL     1       2.811   1.918   1.935  0.00  0.00    +0.391 N 
ATOM     21  H   UNL     1       2.184   1.329   2.497  0.00  0.00    -0.079 HD
BRANCH  20  22
ATOM     22  C   UNL     1       4.210   1.548   2.232  0.00  0.00    +0.043 C 
BRANCH  22  23
ATOM     23  N   UNL     1       4.317   1.224   3.657  0.00  0.00    -0.241 N 
ATOM     24  C   UNL     1       4.125  -0.007   4.169  0.00  0.00    +0.245 C 
ATOM     25  O   UNL     1       3.839  -1.016   3.560  0.00  0.00    -0.273 OA
ATOM     26  C   UNL     1       4.338   0.129   5.667  0.00  0.00    +0.112 C 
ATOM     27  C   UNL     1       5.603  -0.677   6.041  0.00  0.00    +0.035 C 
ATOM     28  C   UNL     1       6.173  -0.120   7.315  0.00  0.00    +0.003 C 
ATOM     29  C   UNL     1       5.674  -0.869   8.567  0.00  0.00    +0.000 C 
ATOM     30  C   UNL     1       4.171  -1.200   8.505  0.00  0.00    +0.000 C 
ATOM     31  C   UNL     1       3.356  -0.062   7.953  0.00  0.00    +0.003 C 
ATOM     32  C   UNL     1       3.173  -0.282   6.439  0.00  0.00    +0.035 C 
ATOM     33  N   UNL     1       4.652   1.563   5.834  0.00  0.00    -0.285 N 
ATOM     34  C   UNL     1       4.622   2.112   4.608  0.00  0.00    +0.308 C 
ATOM     35  O   UNL     1       4.844   3.287   4.389  0.00  0.00    -0.252 OA
ATOM     36  H   UNL     1       4.847   2.019   6.668  0.00  0.00    +0.151 HD
ENDBRANCH  22  23
ENDBRANCH  20  22
ENDBRANCH   1  20
TORSDOF 6
