REMARK  Name = ZINC15947273
REMARK  7 active torsions:
REMARK  status: ('A' for Active; 'I' for Inactive)
REMARK    1  A    between atoms: C_1  and  C_2
REMARK    2  A    between atoms: C_2  and  N_3
REMARK    3  A    between atoms: C_11  and  O_33
REMARK    4  A    between atoms: C_13  and  C_16
REMARK    5  A    between atoms: C_19  and  O_22
REMARK    6  A    between atoms: O_22  and  C_23
REMARK    7  A    between atoms: C_23  and  C_25
REMARK                            x       y       z     vdW  Elec       q    Type
REMARK                         _______ _______ _______ _____ _____    ______ ____
ROOT
ATOM      1  N   UNL     1      -1.535  -0.036  -0.379  0.00  0.00    +0.383 N 
ATOM      2  C   UNL     1      -1.419  -1.491  -0.212  0.00  0.00    -0.074 C 
ATOM      3  C   UNL     1      -2.773  -2.087   0.188  0.00  0.00    +0.018 C 
ATOM      4  C   UNL     1      -3.812  -1.604  -0.815  0.00  0.00    -0.027 A 
ATOM      5  C   UNL     1      -3.543  -0.540  -1.610  0.00  0.00    -0.021 A 
ATOM      6  S   UNL     1      -4.997  -0.338  -2.598  0.00  0.00    -0.080 S 
ATOM      7  C   UNL     1      -5.911  -1.587  -2.001  0.00  0.00    +0.080 A 
ATOM      8  C   UNL     1      -5.120  -2.193  -1.016  0.00  0.00    +0.067 A 
ATOM      9  C   UNL     1      -5.702  -3.351  -0.290  0.00  0.00    +0.220 C 
ATOM     10  N   UNL     1      -6.790  -3.886  -0.774  0.00  0.00    -0.223 NA
ATOM     11  C   UNL     1      -7.438  -3.467  -2.010  0.00  0.00    +0.224 C 
ATOM     12  N   UNL     1      -7.171  -2.048  -2.309  0.00  0.00    -0.313 N 
ATOM     13  C   UNL     1      -2.281   0.262  -1.616  0.00  0.00    -0.035 C 
ATOM     14  H   UNL     1      -7.846  -1.472  -2.700  0.00  0.00    +0.149 HD
ATOM     15  H   UNL     1      -2.026   0.354   0.411  0.00  0.00    -0.081 HD
ENDROOT
BRANCH  11  16
ATOM     16  C   UNL     1      -6.923  -4.312  -3.147  0.00  0.00    -0.005 A 
ATOM     17  C   UNL     1      -6.854  -3.785  -4.423  0.00  0.00    +0.011 A 
ATOM     18  C   UNL     1      -6.383  -4.558  -5.466  0.00  0.00    +0.047 A 
ATOM     19  C   UNL     1      -5.980  -5.865  -5.233  0.00  0.00    +0.132 A 
ATOM     20  C   UNL     1      -6.050  -6.392  -3.951  0.00  0.00    +0.047 A 
ATOM     21  C   UNL     1      -6.517  -5.613  -2.910  0.00  0.00    +0.011 A 
BRANCH  19  22
ATOM     22  O   UNL     1      -5.517  -6.628  -6.258  0.00  0.00    -0.422 OA
BRANCH  22  23
ATOM     23  C   UNL     1      -4.325  -6.306  -6.798  0.00  0.00    +0.346 C 
ATOM     24  O   UNL     1      -3.651  -5.426  -6.301  0.00  0.00    -0.244 OA
BRANCH  23  25
ATOM     25  C   UNL     1      -3.838  -7.023  -7.993  0.00  0.00    +0.078 A 
ATOM     26  C   UNL     1      -4.614  -8.031  -8.570  0.00  0.00    +0.018 A 
ATOM     27  C   UNL     1      -4.154  -8.697  -9.686  0.00  0.00    +0.021 A 
ATOM     28  C   UNL     1      -2.925  -8.369 -10.236  0.00  0.00    +0.042 A 
ATOM     29  C   UNL     1      -2.151  -7.370  -9.669  0.00  0.00    +0.040 A 
ATOM     30  C   UNL     1      -2.602  -6.691  -8.555  0.00  0.00    +0.056 A 
ATOM     31 CL   UNL     1      -1.634  -5.434  -7.850  0.00  0.00    -0.083 Cl
ATOM     32 CL   UNL     1      -2.353  -9.213 -11.640  0.00  0.00    -0.083 Cl
ENDBRANCH  23  25
ENDBRANCH  22  23
ENDBRANCH  19  22
ENDBRANCH  11  16
BRANCH   1  34
ATOM     33  C   UNL     1      -0.309   2.080  -0.508  0.00  0.00    -0.017 C 
ATOM     34  C   UNL     1      -0.193   0.555  -0.463  0.00  0.00    -0.082 C 
ENDBRANCH   1  34
BRANCH   9  35
ATOM     35  O   UNL     1      -5.123  -3.836   0.833  0.00  0.00    -0.492 OA
ATOM     36  H   UNL     1      -5.587  -4.590   1.221  0.00  0.00    +0.294 HD
ENDBRANCH   9  35
TORSDOF 6
