REMARK  Name = ZINC16391988
REMARK  8 active torsions:
REMARK  status: ('A' for Active; 'I' for Inactive)
REMARK    1  A    between atoms: C_1  and  C_2
REMARK    2  A    between atoms: C_2  and  C_29
REMARK    3  A    between atoms: C_7  and  C_28
REMARK    4  A    between atoms: C_8  and  O_11
REMARK    5  A    between atoms: O_11  and  C_12
REMARK    6  A    between atoms: C_12  and  C_14
REMARK    7  A    between atoms: C_20  and  O_25
REMARK    8  A    between atoms: O_25  and  C_26
REMARK                            x       y       z     vdW  Elec       q    Type
REMARK                         _______ _______ _______ _____ _____    ______ ____
ROOT
ATOM      1  C   UNL     1      -3.679  -2.137   0.214  0.00  0.00    +0.144 A 
ATOM      2  C   UNL     1      -2.643  -3.047   0.343  0.00  0.00    +0.034 A 
ATOM      3  C   UNL     1      -2.866  -4.393  -0.044  0.00  0.00    +0.023 A 
ATOM      4  C   UNL     1      -1.838  -5.341   0.075  0.00  0.00    +0.027 A 
ATOM      5  C   UNL     1      -2.057  -6.636  -0.299  0.00  0.00    +0.022 A 
ATOM      6  C   UNL     1      -3.293  -7.026  -0.797  0.00  0.00    +0.064 A 
ATOM      7  C   UNL     1      -4.321  -6.111  -0.923  0.00  0.00    +0.164 A 
ATOM      8  C   UNL     1      -4.120  -4.782  -0.548  0.00  0.00    +0.181 A 
ATOM      9  O   UNL     1      -5.125  -3.888  -0.671  0.00  0.00    -0.418 OA
ATOM     10  C   UNL     1      -4.967  -2.603  -0.313  0.00  0.00    +0.352 A 
ATOM     11  O   UNL     1      -5.893  -1.822  -0.431  0.00  0.00    -0.244 OA
ATOM     12 BR   UNL     1      -0.667  -7.908  -0.136  0.00  0.00    -0.050 Br
ENDROOT
BRANCH   1  13
ATOM     13  C   UNL     1      -3.493  -0.731   0.604  0.00  0.00    +0.346 C 
ATOM     14  O   UNL     1      -4.410   0.059   0.485  0.00  0.00    -0.245 OA
BRANCH  13  15
ATOM     15  O   UNL     1      -2.307  -0.318   1.091  0.00  0.00    -0.457 OA
BRANCH  15  22
ATOM     16  C   UNL     1      -0.134  -0.369   2.834  0.00  0.00    +0.012 C 
ATOM     17  C   UNL     1      -0.098   1.148   2.638  0.00  0.00    -0.023 C 
ATOM     18  C   UNL     1      -1.149   1.883   3.543  0.00  0.00    -0.001 C 
ATOM     19  C   UNL     1      -1.070   3.327   2.960  0.00  0.00    +0.005 C 
ATOM     20  C   UNL     1      -0.792   3.126   1.453  0.00  0.00    +0.011 C 
ATOM     21  C   UNL     1      -0.729   1.579   1.267  0.00  0.00    +0.010 C 
ATOM     22  C   UNL     1      -2.195   1.084   1.455  0.00  0.00    +0.183 C 
ATOM     23  C   UNL     1      -2.478   1.303   2.971  0.00  0.00    +0.049 C 
ATOM     24  C   UNL     1      -0.013   1.086   0.008  0.00  0.00    +0.015 C 
ATOM     25  C   UNL     1       1.313   1.709   2.822  0.00  0.00    +0.012 C 
ENDBRANCH  15  22
ENDBRANCH  13  15
ENDBRANCH   1  13
BRANCH   7  26
ATOM     26  O   UNL     1      -5.527  -6.504  -1.413  0.00  0.00    -0.491 OA
ATOM     27  C   UNL     1      -5.662  -7.879  -1.778  0.00  0.00    +0.277 C 
ENDBRANCH   7  26
TORSDOF 4
