REMARK  Name = ZINC09319604
REMARK  3 active torsions:
REMARK  status: ('A' for Active; 'I' for Inactive)
REMARK    1  A    between atoms: C_1  and  C_2
REMARK    2  A    between atoms: N_28  and  C_31
REMARK    3  A    between atoms: C_31  and  C_32
REMARK                            x       y       z     vdW  Elec       q    Type
REMARK                         _______ _______ _______ _____ _____    ______ ____
ROOT
ATOM      1  C   UNL     1      -0.292   3.752   4.890  0.00  0.00    +0.047 C 
ATOM      2  C   UNL     1       0.259   5.046   4.349  0.00  0.00    -0.009 A 
ATOM      3  C   UNL     1       0.227   6.176   5.109  0.00  0.00    +0.008 A 
ATOM      4  C   UNL     1       0.732   7.375   4.587  0.00  0.00    +0.019 A 
ATOM      5  C   UNL     1       1.261   7.405   3.344  0.00  0.00    +0.096 A 
ATOM      6  N   UNL     1       1.310   6.276   2.581  0.00  0.00    -0.269 N 
ATOM      7  C   UNL     1       0.809   5.094   3.055  0.00  0.00    +0.122 A 
ATOM      8  N   UNL     1       0.828   3.998   2.307  0.00  0.00    -0.329 N 
ATOM      9  C   UNL     1       1.328   3.996   1.062  0.00  0.00    +0.109 A 
ATOM     10  C   UNL     1       1.852   5.171   0.556  0.00  0.00    +0.057 A 
ATOM     11  C   UNL     1       1.843   6.322   1.344  0.00  0.00    +0.263 A 
ATOM     12  O   UNL     1       2.315   7.364   0.915  0.00  0.00    -0.267 OA
ATOM     13  C   UNL     1       2.432   5.236  -0.831  0.00  0.00    +0.071 C 
ATOM     14  C   UNL     1       2.843   3.823  -1.244  0.00  0.00    +0.146 C 
ATOM     15  C   UNL     1       1.665   2.863  -1.034  0.00  0.00    +0.099 C 
ATOM     16  N   UNL     1       1.261   2.801   0.368  0.00  0.00    -0.312 N 
ATOM     17  C   UNL     1      -0.067   2.252   0.556  0.00  0.00    +0.107 C 
ATOM     18  C   UNL     1      -0.209   0.781   0.754  0.00  0.00    +0.019 C 
ATOM     19  C   UNL     1       0.733  -0.081  -0.044  0.00  0.00    +0.002 C 
ATOM     20  C   UNL     1       1.047   0.444  -1.408  0.00  0.00    +0.002 C 
ATOM     21  C   UNL     1       2.139   1.471  -1.462  0.00  0.00    +0.024 C 
ATOM     22  C   UNL     1       3.216   3.822  -2.701  0.00  0.00    +0.238 C 
ATOM     23  O   UNL     1       2.405   4.203  -3.518  0.00  0.00    -0.274 OA
ATOM     24  N   UNL     1       4.419   3.410  -3.122  0.00  0.00    -0.239 N 
ATOM     25  C   UNL     1       5.365   2.981  -2.273  0.00  0.00    +0.315 C 
ATOM     26  O   UNL     1       6.429   2.593  -2.713  0.00  0.00    -0.252 OA
ATOM     27  N   UNL     1       5.160   2.974  -0.947  0.00  0.00    -0.220 N 
ATOM     28  C   UNL     1       4.001   3.366  -0.401  0.00  0.00    +0.240 C 
ATOM     29  O   UNL     1       3.883   3.352   0.805  0.00  0.00    -0.274 OA
ATOM     30  H   UNL     1       4.658   3.417  -4.196  0.00  0.00    +0.159 HD
ATOM     31  H   UNL     1       0.425   3.054   2.704  0.00  0.00    +0.168 HD
ENDROOT
BRANCH  27  32
ATOM     32  C   UNL     1       6.239   2.520  -0.066  0.00  0.00    +0.154 C 
BRANCH  32  33
ATOM     33  C   UNL     1       6.202   1.018   0.041  0.00  0.00    -0.011 A 
ATOM     34  C   UNL     1       5.320   0.291  -0.737  0.00  0.00    +0.006 A 
ATOM     35  C   UNL     1       5.290  -1.088  -0.642  0.00  0.00    +0.000 A 
ATOM     36  C   UNL     1       6.135  -1.740   0.237  0.00  0.00    +0.001 A 
ATOM     37  C   UNL     1       7.014  -1.014   1.018  0.00  0.00    +0.020 A 
ATOM     38  C   UNL     1       7.048   0.366   0.920  0.00  0.00    +0.046 A 
ATOM     39 CL   UNL     1       8.152   1.279   1.901  0.00  0.00    -0.083 Cl
ENDBRANCH  32  33
ENDBRANCH  27  32
TORSDOF 2
