REMARK  Name = ZINC12041486
REMARK  9 active torsions:
REMARK  status: ('A' for Active; 'I' for Inactive)
REMARK    1  A    between atoms: C_1  and  C_2
REMARK    2  A    between atoms: C_2  and  C_3
REMARK    3  A    between atoms: C_3  and  C_4
REMARK    4  A    between atoms: C_4  and  C_19
REMARK    5  A    between atoms: N_7  and  C_11
REMARK    6  A    between atoms: C_11  and  C_12
REMARK    7  A    between atoms: C_12  and  C_13
REMARK    8  A    between atoms: C_18  and  N_68
REMARK    9  A    between atoms: C_25  and  C_27
REMARK                            x       y       z     vdW  Elec       q    Type
REMARK                         _______ _______ _______ _____ _____    ______ ____
ROOT
ATOM      1  C   UNL     1      -0.521  -3.471  -0.404  0.00  0.00    +0.115 C 
ATOM      2  C   UNL     1      -0.448  -2.045  -0.915  0.00  0.00    +0.247 C 
ATOM      3  O   UNL     1      -1.117  -1.548  -1.794  0.00  0.00    -0.273 OA
ATOM      4  N   UNL     1       0.515  -1.446  -0.187  0.00  0.00    -0.224 N 
ATOM      5  C   UNL     1       1.059  -2.288   0.700  0.00  0.00    +0.309 C 
ATOM      6  O   UNL     1       1.950  -1.979   1.466  0.00  0.00    -0.252 OA
ATOM      7  N   UNL     1       0.506  -3.513   0.651  0.00  0.00    -0.285 N 
ATOM      8  H   UNL     1       0.741  -4.277   1.201  0.00  0.00    +0.151 HD
ENDROOT
BRANCH   1   9
ATOM      9  C   UNL     1      -1.904  -3.764   0.179  0.00  0.00    +0.024 C 
ATOM     10  C   UNL     1      -2.950  -3.711  -0.937  0.00  0.00    +0.025 C 
ATOM     11  C   UNL     1      -4.329  -4.039  -0.356  0.00  0.00    +0.108 C 
ATOM     12  N   UNL     1      -4.598  -3.128   0.765  0.00  0.00    -0.297 N 
ATOM     13  C   UNL     1      -3.611  -3.034   1.850  0.00  0.00    +0.108 C 
ATOM     14  C   UNL     1      -2.240  -2.717   1.244  0.00  0.00    +0.025 C 
ATOM     15  C   UNL     1      -5.727  -2.394   0.798  0.00  0.00    +0.249 C 
ATOM     16  O   UNL     1      -5.891  -1.570   1.677  0.00  0.00    -0.270 OA
BRANCH  15  17
ATOM     17  C   UNL     1      -6.765  -2.590  -0.233  0.00  0.00    +0.075 A 
ATOM     18  C   UNL     1      -7.191  -3.879  -0.563  0.00  0.00    +0.057 A 
ATOM     19  C   UNL     1      -8.161  -4.057  -1.528  0.00  0.00    +0.159 A 
ATOM     20  C   UNL     1      -8.715  -2.956  -2.170  0.00  0.00    +0.161 A 
ATOM     21  C   UNL     1      -8.298  -1.676  -1.847  0.00  0.00    +0.080 A 
ATOM     22  C   UNL     1      -7.330  -1.486  -0.879  0.00  0.00    +0.138 A 
ATOM     23  F   UNL     1      -6.928  -0.236  -0.561  0.00  0.00    -0.205 F 
ATOM     24  F   UNL     1      -9.665  -3.136  -3.113  0.00  0.00    -0.202 F 
ATOM     25  F   UNL     1      -8.573  -5.303  -1.848  0.00  0.00    -0.202 F 
ENDBRANCH  15  17
ENDBRANCH   1   9
BRANCH   1  26
ATOM     26  C   UNL     1      -0.185  -4.461  -1.522  0.00  0.00    +0.035 C 
BRANCH  26  28
ATOM     27  C   UNL     1       1.601  -5.251  -3.079  0.00  0.00    +0.004 C 
ATOM     28  C   UNL     1       1.266  -4.261  -1.962  0.00  0.00    -0.001 C 
ENDBRANCH  26  28
ENDBRANCH   1  26
BRANCH   4  29
ATOM     29  C   UNL     1       0.921  -0.048  -0.351  0.00  0.00    +0.116 C 
BRANCH  29  30
ATOM     30  C   UNL     1       0.077   0.839   0.567  0.00  0.00    +0.004 C 
BRANCH  30  31
ATOM     31  C   UNL     1       0.410   2.308   0.302  0.00  0.00    -0.068 C 
ATOM     32  C   UNL     1       1.892   2.592   0.631  0.00  0.00    -0.017 C 
ATOM     33  C   UNL     1       1.901   4.003   1.255  0.00  0.00    -0.020 C 
ATOM     34  C   UNL     1       0.424   4.453   1.251  0.00  0.00    -0.079 C 
ATOM     35  C   UNL     1      -1.717   3.415   0.724  0.00  0.00    -0.096 C 
ATOM     36  N   UNL     1      -0.320   3.195   1.215  0.00  0.00    +0.380 N 
ATOM     37  H   UNL     1      -0.354   2.781   2.154  0.00  0.00    -0.082 HD
ENDBRANCH  30  31
ENDBRANCH  29  30
ENDBRANCH   4  29
TORSDOF 7
