REMARK  Name = ZINC11634087
REMARK  5 active torsions:
REMARK  status: ('A' for Active; 'I' for Inactive)
REMARK    1  A    between atoms: C_1  and  C_2
REMARK    2  A    between atoms: C_2  and  C_3
REMARK    3  A    between atoms: C_2  and  C_4
REMARK    4  A    between atoms: C_13  and  N_14
REMARK    5  A    between atoms: N_14  and  N_15
REMARK                            x       y       z     vdW  Elec       q    Type
REMARK                         _______ _______ _______ _____ _____    ______ ____
ROOT
ATOM      1  C   UNL     1      -2.415   0.915  -0.088  0.00  0.00    -0.003 A 
ATOM      2  C   UNL     1      -3.612   1.567  -0.076  0.00  0.00    +0.017 A 
ATOM      3  C   UNL     1      -3.608   2.971   0.039  0.00  0.00    +0.004 A 
ATOM      4  C   UNL     1      -4.805   3.703   0.057  0.00  0.00    +0.059 A 
ATOM      5  C   UNL     1      -4.769   5.064   0.170  0.00  0.00    +0.163 A 
ATOM      6  C   UNL     1      -3.543   5.739   0.270  0.00  0.00    +0.164 A 
ATOM      7  C   UNL     1      -2.363   5.049   0.253  0.00  0.00    +0.077 A 
ATOM      8  C   UNL     1      -2.369   3.650   0.138  0.00  0.00    +0.077 A 
ATOM      9  N   UNL     1      -1.224   2.956   0.126  0.00  0.00    -0.231 NA
ATOM     10  C   UNL     1      -1.222   1.644   0.013  0.00  0.00    +0.136 A 
ATOM     11  O   UNL     1      -3.509   7.096   0.389  0.00  0.00    -0.485 OA
ATOM     12  C   UNL     1      -4.698   7.805   0.025  0.00  0.00    +0.270 C 
ATOM     13  C   UNL     1      -5.896   7.098   0.672  0.00  0.00    +0.270 C 
ATOM     14  O   UNL     1      -5.943   5.754   0.181  0.00  0.00    -0.485 OA
ENDROOT
BRANCH   1  16
ATOM     15  C   UNL     1      -3.231  -1.211   0.893  0.00  0.00    +0.012 C 
ATOM     16  C   UNL     1      -2.373  -0.587  -0.210  0.00  0.00    +0.016 C 
ATOM     17  C   UNL     1      -2.919  -1.003  -1.577  0.00  0.00    +0.012 C 
ENDBRANCH   1  16
BRANCH  10  18
ATOM     18  N   UNL     1      -0.011   0.966   0.000  0.00  0.00    -0.267 N 
ATOM     19  H   UNL     1       0.003  -0.003   0.020  0.00  0.00    +0.167 HD
BRANCH  18  20
ATOM     20  N   UNL     1       1.162   1.665  -0.047  0.00  0.00    -0.255 NA
ATOM     21  H   UNL     1       1.955   1.041  -0.055  0.00  0.00    +0.140 HD
ATOM     22  H   UNL     1       1.182   2.286  -0.842  0.00  0.00    +0.140 HD
ENDBRANCH  18  20
ENDBRANCH  10  18
TORSDOF 3
