REMARK  Name = ZINC21261082
REMARK  9 active torsions:
REMARK  status: ('A' for Active; 'I' for Inactive)
REMARK    1  A    between atoms: C_1  and  C_2
REMARK    2  A    between atoms: N_13  and  C_26
REMARK    3  A    between atoms: C_14  and  S_16
REMARK    4  A    between atoms: S_16  and  C_17
REMARK    5  A    between atoms: C_17  and  C_19
REMARK    6  A    between atoms: C_17  and  C_20
REMARK    7  A    between atoms: N_22  and  C_23
REMARK    8  A    between atoms: C_23  and  C_24
REMARK    9  A    between atoms: C_23  and  C_25
REMARK                            x       y       z     vdW  Elec       q    Type
REMARK                         _______ _______ _______ _____ _____    ______ ____
ROOT
ATOM      1  C   UNL     1       5.861  -0.597  -8.391  0.00  0.00    +0.008 C 
ATOM      2  C   UNL     1       5.253  -0.693  -6.990  0.00  0.00    -0.009 C 
ATOM      3  C   UNL     1       4.223  -1.825  -6.953  0.00  0.00    +0.008 C 
ATOM      4  C   UNL     1       3.798  -2.093  -5.509  0.00  0.00    +0.037 C 
ATOM      5  C   UNL     1       3.353  -0.777  -4.875  0.00  0.00    -0.023 A 
ATOM      6  C   UNL     1       3.712   0.404  -5.416  0.00  0.00    -0.004 A 
ATOM      7  S   UNL     1       2.982   1.632  -4.367  0.00  0.00    -0.073 S 
ATOM      8  C   UNL     1       2.193   0.551  -3.201  0.00  0.00    +0.117 A 
ATOM      9  C   UNL     1       2.526  -0.732  -3.668  0.00  0.00    +0.076 A 
ATOM     10  C   UNL     1       2.013  -1.827  -2.903  0.00  0.00    +0.268 A 
ATOM     11  O   UNL     1       2.251  -2.976  -3.233  0.00  0.00    -0.267 OA
ATOM     12  N   UNL     1       1.264  -1.571  -1.815  0.00  0.00    -0.253 N 
ATOM     13  C   UNL     1       0.988  -0.289  -1.430  0.00  0.00    +0.178 A 
ATOM     14  N   UNL     1       1.444   0.737  -2.120  0.00  0.00    -0.215 NA
ATOM     15  C   UNL     1       4.549   0.626  -6.639  0.00  0.00    +0.046 C 
ENDROOT
BRANCH  12  16
ATOM     16  C   UNL     1       0.758  -2.639  -1.061  0.00  0.00    +0.087 A 
ATOM     17  C   UNL     1      -0.486  -3.176  -1.362  0.00  0.00    +0.029 A 
ATOM     18  C   UNL     1      -0.980  -4.231  -0.621  0.00  0.00    +0.002 A 
ATOM     19  C   UNL     1      -0.241  -4.748   0.428  0.00  0.00    +0.003 A 
ATOM     20  C   UNL     1       0.997  -4.214   0.735  0.00  0.00    +0.040 A 
ATOM     21  C   UNL     1       1.500  -3.160  -0.006  0.00  0.00    +0.147 A 
ATOM     22  F   UNL     1       2.709  -2.638   0.294  0.00  0.00    -0.203 F 
ENDBRANCH  12  16
BRANCH  13  23
ATOM     23  S   UNL     1       0.002  -0.004   0.002  0.00  0.00    -0.075 S 
BRANCH  23  24
ATOM     24  C   UNL     1      -0.022   1.806   0.012  0.00  0.00    +0.137 C 
ATOM     25  C   UNL     1      -0.762   2.313  -1.228  0.00  0.00    +0.029 C 
BRANCH  24  26
ATOM     26  C   UNL     1      -0.728   2.292   1.252  0.00  0.00    +0.226 C 
ATOM     27  O   UNL     1      -1.474   1.550   1.855  0.00  0.00    -0.275 OA
ATOM     28  N   UNL     1      -0.530   3.551   1.690  0.00  0.00    -0.312 N 
ATOM     29  H   UNL     1       0.146   4.224   1.143  0.00  0.00    +0.149 HD
BRANCH  28  30
ATOM     30  C   UNL     1      -1.216   4.023   2.895  0.00  0.00    +0.067 C 
ATOM     31  C   UNL     1      -0.412   5.162   3.526  0.00  0.00    +0.027 C 
ATOM     32  C   UNL     1      -2.611   4.529   2.523  0.00  0.00    +0.027 C 
ENDBRANCH  28  30
ENDBRANCH  24  26
ENDBRANCH  23  24
ENDBRANCH  13  23
TORSDOF 5
