REMARK  Name = ZINC16779592
REMARK  12 active torsions:
REMARK  status: ('A' for Active; 'I' for Inactive)
REMARK    1  A    between atoms: C_1  and  C_2
REMARK    2  A    between atoms: C_5  and  N_8
REMARK    3  A    between atoms: C_9  and  C_34
REMARK    4  A    between atoms: C_10  and  C_31
REMARK    5  A    between atoms: C_13  and  C_30
REMARK    6  A    between atoms: C_14  and  C_29
REMARK    7  A    between atoms: C_15  and  N_17
REMARK    8  A    between atoms: N_17  and  S_18
REMARK    9  A    between atoms: S_18  and  C_21
REMARK   10  A    between atoms: C_24  and  O_27
REMARK   11  A    between atoms: O_27  and  C_28
REMARK   12  A    between atoms: C_31  and  C_33
REMARK                            x       y       z     vdW  Elec       q    Type
REMARK                         _______ _______ _______ _____ _____    ______ ____
ROOT
ATOM      1  N   UNL     1      -0.805   5.850   1.482  0.00  0.00    -0.312 N 
ATOM      2  C   UNL     1      -0.340   4.742   0.858  0.00  0.00    +0.032 A 
ATOM      3  C   UNL     1      -0.578   3.636   1.645  0.00  0.00    +0.046 A 
ATOM      4  C   UNL     1      -1.258   4.130   2.859  0.00  0.00    +0.013 A 
ATOM      5  C   UNL     1      -1.367   5.520   2.703  0.00  0.00    +0.058 A 
ATOM      6  C   UNL     1      -1.970   6.276   3.702  0.00  0.00    -0.021 A 
ATOM      7  C   UNL     1      -2.464   5.659   4.831  0.00  0.00    -0.023 A 
ATOM      8  C   UNL     1      -2.353   4.280   4.989  0.00  0.00    +0.052 A 
ATOM      9  C   UNL     1      -1.751   3.514   4.005  0.00  0.00    +0.035 A 
ATOM     10  C   UNL     1      -3.120   6.485   5.907  0.00  0.00    +0.046 C 
ATOM     11  C   UNL     1      -2.099   7.769   3.543  0.00  0.00    +0.046 C 
ATOM     12  C   UNL     1       0.333   4.722  -0.490  0.00  0.00    +0.064 C 
ENDROOT
BRANCH   1  17
ATOM     13  C   UNL     1      -0.495  11.112  -0.619  0.00  0.00    +0.044 C 
ATOM     14  C   UNL     1      -0.578   9.715  -0.060  0.00  0.00    -0.050 A 
ATOM     15  C   UNL     1       0.576   9.059   0.329  0.00  0.00    +0.005 A 
ATOM     16  C   UNL     1       0.504   7.778   0.841  0.00  0.00    +0.026 A 
ATOM     17  C   UNL     1      -0.729   7.149   0.963  0.00  0.00    +0.047 A 
ATOM     18  C   UNL     1      -1.884   7.808   0.566  0.00  0.00    +0.026 A 
ATOM     19  C   UNL     1      -1.806   9.091   0.060  0.00  0.00    +0.005 A 
ENDBRANCH   1  17
BRANCH   3  20
ATOM     20  C   UNL     1      -0.242   2.292   1.347  0.00  0.00    +0.162 C 
ATOM     21  O   UNL     1       0.803   1.824   1.750  0.00  0.00    -0.292 OA
ATOM     22  C   UNL     1      -1.182   1.444   0.529  0.00  0.00    +0.091 C 
ENDBRANCH   3  20
BRANCH   8  23
ATOM     23  N   UNL     1      -2.852   3.668   6.144  0.00  0.00    -0.216 N 
ATOM     24  H   UNL     1      -3.660   4.005   6.561  0.00  0.00    +0.174 HD
BRANCH  23  25
ATOM     25  S   UNL     1      -2.062   2.368   6.799  0.00  0.00    +0.072 S 
ATOM     26  O   UNL     1      -2.725   2.061   8.017  0.00  0.00    -0.150 OA
ATOM     27  O   UNL     1      -1.910   1.417   5.754  0.00  0.00    -0.150 OA
BRANCH  25  28
ATOM     28  C   UNL     1      -0.441   2.906   7.230  0.00  0.00    +0.109 A 
ATOM     29  C   UNL     1       0.588   2.802   6.312  0.00  0.00    +0.032 A 
ATOM     30  C   UNL     1       1.859   3.228   6.645  0.00  0.00    +0.047 A 
ATOM     31  C   UNL     1       2.105   3.751   7.906  0.00  0.00    +0.120 A 
ATOM     32  C   UNL     1       1.073   3.850   8.828  0.00  0.00    +0.047 A 
ATOM     33  C   UNL     1      -0.198   3.427   8.487  0.00  0.00    +0.032 A 
BRANCH  31  34
ATOM     34  O   UNL     1       3.356   4.167   8.239  0.00  0.00    -0.495 OA
ATOM     35  C   UNL     1       4.370   4.036   7.240  0.00  0.00    +0.277 C 
ENDBRANCH  31  34
ENDBRANCH  25  28
ENDBRANCH  23  25
ENDBRANCH   8  23
TORSDOF 6
