REMARK  Name = ZINC10955505
REMARK  11 active torsions:
REMARK  status: ('A' for Active; 'I' for Inactive)
REMARK    1  A    between atoms: C_1  and  C_2
REMARK    2  A    between atoms: C_4  and  C_8
REMARK    3  A    between atoms: C_5  and  C_7
REMARK    4  A    between atoms: C_10  and  C_20
REMARK    5  A    between atoms: N_14  and  C_17
REMARK    6  A    between atoms: C_17  and  C_18
REMARK    7  A    between atoms: C_17  and  C_19
REMARK    8  A    between atoms: C_20  and  O_22
REMARK    9  A    between atoms: O_22  and  C_23
REMARK   10  A    between atoms: C_23  and  C_25
REMARK   11  A    between atoms: C_23  and  C_26
REMARK                            x       y       z     vdW  Elec       q    Type
REMARK                         _______ _______ _______ _____ _____    ______ ____
ROOT
ATOM      1  C   UNL     1       0.755  -2.632  -0.028  0.00  0.00    +0.077 A 
ATOM      2  C   UNL     1      -0.610  -2.325  -0.012  0.00  0.00    +0.044 A 
ATOM      3  C   UNL     1      -1.006  -0.992  -0.001  0.00  0.00    +0.073 A 
ATOM      4  C   UNL     1       0.002   0.000  -0.007  0.00  0.00    +0.053 A 
ATOM      5  C   UNL     1      -0.018   1.411  -0.000  0.00  0.00    +0.145 A 
ATOM      6  N   UNL     1       1.211   1.844  -0.011  0.00  0.00    -0.177 NA
ATOM      7  N   UNL     1       2.095   0.758  -0.026  0.00  0.00    -0.244 N 
ATOM      8  C   UNL     1       1.354  -0.396  -0.023  0.00  0.00    +0.160 A 
ATOM      9  N   UNL     1       1.675  -1.681  -0.033  0.00  0.00    -0.227 NA
ENDROOT
BRANCH   1  13
ATOM     10  C   UNL     1       0.698  -7.741  -0.053  0.00  0.00    +0.086 C 
ATOM     11  C   UNL     1       1.133  -6.298  -0.049  0.00  0.00    +0.103 A 
ATOM     12  C   UNL     1       0.311  -5.235  -0.036  0.00  0.00    +0.054 A 
ATOM     13  C   UNL     1       1.179  -4.052  -0.039  0.00  0.00    +0.041 A 
ATOM     14  C   UNL     1       2.452  -4.528  -0.060  0.00  0.00    +0.111 A 
ATOM     15  O   UNL     1       2.404  -5.867  -0.060  0.00  0.00    -0.464 OA
ATOM     16  C   UNL     1       3.706  -3.691  -0.078  0.00  0.00    +0.087 C 
ENDBRANCH   1  13
BRANCH   7  17
ATOM     17  C   UNL     1       3.557   0.841  -0.042  0.00  0.00    +0.103 C 
ATOM     18  C   UNL     1       4.012   1.596  -1.292  0.00  0.00    +0.032 C 
ATOM     19  C   UNL     1       4.039   1.584   1.206  0.00  0.00    +0.032 C 
ENDBRANCH   7  17
BRANCH   3  20
ATOM     20  C   UNL     1      -2.437  -0.624   0.017  0.00  0.00    +0.341 C 
ATOM     21  O   UNL     1      -2.763   0.546   0.026  0.00  0.00    -0.245 OA
BRANCH  20  22
ATOM     22  O   UNL     1      -3.381  -1.586   0.022  0.00  0.00    -0.449 OA
BRANCH  22  23
ATOM     23  C   UNL     1      -4.766  -1.151   0.040  0.00  0.00    +0.259 C 
ATOM     24  C   UNL     1      -5.237  -1.006   1.488  0.00  0.00    +0.062 C 
BRANCH  23  25
ATOM     25  C   UNL     1      -5.621  -2.171  -0.667  0.00  0.00    +0.259 C 
ATOM     26  O   UNL     1      -5.130  -3.208  -1.058  0.00  0.00    -0.271 OA
ATOM     27  N   UNL     1      -6.933  -1.931  -0.863  0.00  0.00    -0.267 N 
ATOM     28  C   UNL     1      -7.702  -2.824  -1.608  0.00  0.00    +0.125 A 
ATOM     29  C   UNL     1      -9.027  -2.518  -1.897  0.00  0.00    +0.045 A 
ATOM     30  C   UNL     1      -9.779  -3.413  -2.637  0.00  0.00    +0.025 A 
ATOM     31  C   UNL     1      -9.177  -4.589  -3.065  0.00  0.00    +0.059 A 
ATOM     32  C   UNL     1      -7.854  -4.828  -2.742  0.00  0.00    +0.132 A 
ATOM     33  N   UNL     1      -7.161  -3.953  -2.039  0.00  0.00    -0.239 NA
ATOM     34 CL   UNL     1     -10.075  -5.746  -3.996  0.00  0.00    -0.082 Cl
ATOM     35  H   UNL     1      -7.342  -1.136  -0.486  0.00  0.00    +0.156 HD
ENDBRANCH  23  25
ENDBRANCH  22  23
ENDBRANCH  20  22
ENDBRANCH   3  20
TORSDOF 6
