REMARK  Name = ZINC21852637
REMARK  7 active torsions:
REMARK  status: ('A' for Active; 'I' for Inactive)
REMARK    1  A    between atoms: C_1  and  C_2
REMARK    2  A    between atoms: C_2  and  C_3
REMARK    3  A    between atoms: C_2  and  C_4
REMARK    4  A    between atoms: C_10  and  C_21
REMARK    5  A    between atoms: C_10  and  C_22
REMARK    6  A    between atoms: N_11  and  C_14
REMARK    7  A    between atoms: N_24  and  C_25
REMARK                            x       y       z     vdW  Elec       q    Type
REMARK                         _______ _______ _______ _____ _____    ______ ____
ROOT
ATOM      1  C   UNL     1      -0.584   3.249   0.781  0.00  0.00    +0.066 A 
ATOM      2  C   UNL     1       0.450   4.104   1.190  0.00  0.00    +0.058 A 
ATOM      3  C   UNL     1      -0.129   5.337   1.290  0.00  0.00    +0.124 A 
ATOM      4  N   UNL     1      -1.452   5.191   0.938  0.00  0.00    -0.256 N 
ATOM      5  N   UNL     1      -1.675   3.967   0.655  0.00  0.00    -0.175 NA
ATOM      6  C   UNL     1      -2.363   6.342   0.913  0.00  0.00    +0.179 C 
ATOM      7  C   UNL     1      -1.909   7.367   1.951  0.00  0.00    +0.135 C 
ATOM      8  N   UNL     1      -0.477   7.639   1.878  0.00  0.00    -0.250 N 
ATOM      9  C   UNL     1       0.422   6.648   1.667  0.00  0.00    +0.270 C 
ATOM     10  O   UNL     1       1.619   6.831   1.783  0.00  0.00    -0.268 OA
ATOM     11  C   UNL     1      -2.673   8.673   1.724  0.00  0.00    +0.044 C 
ENDROOT
BRANCH   8  12
ATOM     12  C   UNL     1      -0.022   8.953   2.030  0.00  0.00    +0.038 A 
ATOM     13  C   UNL     1       0.616   9.338   3.203  0.00  0.00    +0.025 A 
ATOM     14  C   UNL     1       1.067  10.634   3.349  0.00  0.00    +0.022 A 
ATOM     15  C   UNL     1       0.876  11.554   2.332  0.00  0.00    +0.041 A 
ATOM     16  C   UNL     1       0.235  11.175   1.165  0.00  0.00    +0.022 A 
ATOM     17  C   UNL     1      -0.214   9.878   1.012  0.00  0.00    +0.025 A 
ATOM     18 CL   UNL     1       1.439  13.185   2.521  0.00  0.00    -0.084 Cl
ENDBRANCH   8  12
BRANCH   7  19
ATOM     19  C   UNL     1      -2.237   6.846   3.326  0.00  0.00    +0.239 C 
ATOM     20  O   UNL     1      -3.136   6.046   3.473  0.00  0.00    -0.273 OA
ATOM     21  N   UNL     1      -1.530   7.269   4.393  0.00  0.00    -0.311 N 
ATOM     22  H   UNL     1      -0.715   7.995   4.260  0.00  0.00    +0.149 HD
BRANCH  21  23
ATOM     23  C   UNL     1      -1.849   6.763   5.730  0.00  0.00    +0.073 C 
ATOM     24  C   UNL     1      -3.015   7.588   6.312  0.00  0.00    +0.022 C 
ATOM     25  C   UNL     1      -3.670   6.786   7.405  0.00  0.00    +0.002 C 
ATOM     26  C   UNL     1      -3.111   7.127   8.800  0.00  0.00    +0.000 C 
ATOM     27  C   UNL     1      -1.580   7.297   8.805  0.00  0.00    +0.000 C 
ATOM     28  C   UNL     1      -0.883   6.257   7.971  0.00  0.00    +0.002 C 
ATOM     29  C   UNL     1      -0.654   6.834   6.559  0.00  0.00    +0.022 C 
ENDBRANCH  21  23
ENDBRANCH   7  19
BRANCH   1  31
ATOM     30  C   UNL     1       0.027   1.536  -0.904  0.00  0.00    +0.014 C 
ATOM     31  C   UNL     1      -0.462   1.769   0.527  0.00  0.00    +0.033 C 
ATOM     32  C   UNL     1       0.539   1.163   1.512  0.00  0.00    +0.014 C 
ENDBRANCH   1  31
TORSDOF 4
