REMARK  Name = ZINC08845514
REMARK  11 active torsions:
REMARK  status: ('A' for Active; 'I' for Inactive)
REMARK    1  A    between atoms: C_1  and  C_2
REMARK    2  A    between atoms: C_5  and  C_8
REMARK    3  A    between atoms: C_11  and  C_29
REMARK    4  A    between atoms: N_18  and  C_19
REMARK    5  A    between atoms: C_19  and  C_20
REMARK    6  A    between atoms: C_20  and  C_21
REMARK    7  A    between atoms: C_24  and  O_27
REMARK    8  A    between atoms: O_27  and  C_28
REMARK    9  A    between atoms: C_31  and  C_37
REMARK   10  A    between atoms: C_33  and  C_36
REMARK   11  A    between atoms: C_34  and  O_35
REMARK                            x       y       z     vdW  Elec       q    Type
REMARK                         _______ _______ _______ _____ _____    ______ ____
ROOT
ATOM      1  C   UNL     1       0.221  -3.877   0.253  0.00  0.00    +0.141 C 
ATOM      2  C   UNL     1       1.537  -4.605   0.266  0.00  0.00    +0.035 A 
ATOM      3  C   UNL     1       2.773  -4.818  -0.353  0.00  0.00    +0.102 A 
ATOM      4  N   UNL     1       3.426  -5.710   0.366  0.00  0.00    -0.173 NA
ATOM      5  N   UNL     1       2.725  -6.081   1.377  0.00  0.00    -0.272 N 
ATOM      6  H   UNL     1       3.006  -6.729   2.042  0.00  0.00    +0.189 HD
ATOM      7  C   UNL     1       1.526  -5.426   1.377  0.00  0.00    +0.126 A 
ATOM      8  C   UNL     1       0.248  -5.249   2.075  0.00  0.00    +0.265 C 
ATOM      9  O   UNL     1      -0.074  -5.832   3.093  0.00  0.00    -0.268 OA
ATOM     10  N   UNL     1      -0.520  -4.351   1.430  0.00  0.00    -0.285 N 
ENDROOT
BRANCH   3  11
ATOM     11  C   UNL     1       3.260  -4.161  -1.592  0.00  0.00    +0.044 A 
ATOM     12  C   UNL     1       2.415  -3.327  -2.319  0.00  0.00    +0.017 A 
ATOM     13  C   UNL     1       2.872  -2.718  -3.471  0.00  0.00    -0.049 A 
ATOM     14  C   UNL     1       4.168  -2.934  -3.906  0.00  0.00    +0.010 A 
ATOM     15  C   UNL     1       5.014  -3.761  -3.192  0.00  0.00    -0.008 A 
ATOM     16  C   UNL     1       4.570  -4.373  -2.030  0.00  0.00    +0.129 A 
ATOM     17  C   UNL     1       6.424  -3.992  -3.672  0.00  0.00    +0.047 C 
ATOM     18  C   UNL     1       1.957  -1.815  -4.257  0.00  0.00    +0.044 C 
BRANCH  16  19
ATOM     19  O   UNL     1       5.403  -5.181  -1.324  0.00  0.00    -0.506 OA
ATOM     20  H   UNL     1       5.373  -6.110  -1.594  0.00  0.00    +0.292 HD
ENDBRANCH  16  19
ENDBRANCH   3  11
BRANCH   1  25
ATOM     21  C   UNL     1       1.100   1.823   0.616  0.00  0.00    +0.044 C 
ATOM     22  C   UNL     1       0.871   0.337   0.521  0.00  0.00    -0.050 A 
ATOM     23  C   UNL     1       1.146  -0.476   1.605  0.00  0.00    +0.004 A 
ATOM     24  C   UNL     1       0.935  -1.839   1.519  0.00  0.00    +0.006 A 
ATOM     25  C   UNL     1       0.449  -2.390   0.348  0.00  0.00    -0.022 A 
ATOM     26  C   UNL     1       0.173  -1.578  -0.736  0.00  0.00    +0.006 A 
ATOM     27  C   UNL     1       0.379  -0.214  -0.647  0.00  0.00    +0.004 A 
ENDBRANCH   1  25
BRANCH  10  28
ATOM     28  C   UNL     1      -1.861  -3.919   1.831  0.00  0.00    +0.114 C 
BRANCH  28  29
ATOM     29  C   UNL     1      -2.905  -4.828   1.181  0.00  0.00    +0.054 C 
BRANCH  29  30
ATOM     30  C   UNL     1      -4.285  -4.384   1.594  0.00  0.00    -0.046 A 
ATOM     31  C   UNL     1      -4.867  -4.908   2.733  0.00  0.00    +0.007 A 
ATOM     32  C   UNL     1      -6.131  -4.503   3.114  0.00  0.00    +0.046 A 
ATOM     33  C   UNL     1      -6.817  -3.568   2.352  0.00  0.00    +0.120 A 
ATOM     34  C   UNL     1      -6.231  -3.043   1.209  0.00  0.00    +0.046 A 
ATOM     35  C   UNL     1      -4.964  -3.448   0.836  0.00  0.00    +0.007 A 
BRANCH  33  36
ATOM     36  O   UNL     1      -8.062  -3.168   2.724  0.00  0.00    -0.495 OA
ATOM     37  C   UNL     1      -8.709  -2.203   1.892  0.00  0.00    +0.277 C 
ENDBRANCH  33  36
ENDBRANCH  29  30
ENDBRANCH  28  29
ENDBRANCH  10  28
TORSDOF 7
