REMARK  Name = ZINC35842728
REMARK  14 active torsions:
REMARK  status: ('A' for Active; 'I' for Inactive)
REMARK    1  A    between atoms: C_1  and  O_2
REMARK    2  A    between atoms: O_2  and  C_3
REMARK    3  A    between atoms: C_3  and  C_4
REMARK    4  A    between atoms: C_4  and  C_5
REMARK    5  A    between atoms: C_5  and  N_6
REMARK    6  A    between atoms: N_6  and  C_7
REMARK    7  A    between atoms: N_6  and  C_15
REMARK    8  A    between atoms: C_7  and  C_8
REMARK    9  A    between atoms: C_15  and  C_16
REMARK   10  A    between atoms: N_18  and  C_19
REMARK   11  A    between atoms: N_18  and  C_31
REMARK   12  A    between atoms: C_19  and  C_20
REMARK   13  A    between atoms: C_20  and  C_21
REMARK   14  A    between atoms: C_31  and  C_32
REMARK                            x       y       z     vdW  Elec       q    Type
REMARK                         _______ _______ _______ _____ _____    ______ ____
ROOT
ATOM      1  C   UNL     1      -2.688  -5.846   0.510  0.00  0.00    +0.199 C 
ATOM      2  O   UNL     1      -1.600  -6.345   0.706  0.00  0.00    -0.278 OA
ATOM      3  N   UNL     1      -3.718  -6.613   0.102  0.00  0.00    -0.298 N 
ENDROOT
BRANCH   1   4
ATOM      4  C   UNL     1      -2.887  -4.367   0.724  0.00  0.00    +0.019 C 
BRANCH   4   5
ATOM      5  N   UNL     1      -1.594  -3.737   1.023  0.00  0.00    +0.388 N 
ATOM      6  H   UNL     1      -1.153  -4.223   1.789  0.00  0.00    -0.081 HD
BRANCH   5   7
ATOM      7  C   UNL     1      -0.731  -3.804  -0.163  0.00  0.00    -0.075 C 
BRANCH   7   8
ATOM      8  C   UNL     1       0.657  -3.260   0.185  0.00  0.00    +0.009 C 
BRANCH   8   9
ATOM      9  C   UNL     1       1.556  -3.330  -1.051  0.00  0.00    +0.157 C 
BRANCH   9  11
ATOM     10  C   UNL     1       3.775  -2.843  -1.817  0.00  0.00    +0.193 C 
ATOM     11  O   UNL     1       2.852  -2.822  -0.726  0.00  0.00    -0.383 OA
ENDBRANCH   9  11
ENDBRANCH   8   9
ENDBRANCH   7   8
ENDBRANCH   5   7
BRANCH   5  12
ATOM     12  C   UNL     1      -1.809  -2.332   1.394  0.00  0.00    -0.039 C 
BRANCH  12  13
ATOM     13  C   UNL     1      -2.650  -2.265   2.643  0.00  0.00    -0.029 A 
ATOM     14  C   UNL     1      -3.985  -1.916   2.560  0.00  0.00    +0.004 A 
ATOM     15  C   UNL     1      -4.756  -1.855   3.705  0.00  0.00    +0.000 A 
ATOM     16  C   UNL     1      -4.193  -2.142   4.935  0.00  0.00    +0.003 A 
ATOM     17  C   UNL     1      -2.859  -2.490   5.021  0.00  0.00    +0.038 A 
ATOM     18  C   UNL     1      -2.086  -2.558   3.873  0.00  0.00    +0.125 A 
ATOM     19  F   UNL     1      -0.783  -2.903   3.955  0.00  0.00    -0.205 F 
ENDBRANCH  12  13
ENDBRANCH   5  12
ENDBRANCH   4   5
ENDBRANCH   1   4
BRANCH   3  20
ATOM     20  C   UNL     1      -3.555  -8.065   0.004  0.00  0.00    +0.113 C 
BRANCH  20  21
ATOM     21  C   UNL     1      -4.025  -8.720   1.304  0.00  0.00    +0.056 C 
BRANCH  21  22
ATOM     22  C   UNL     1      -3.749 -10.201   1.250  0.00  0.00    -0.021 A 
ATOM     23  C   UNL     1      -4.620 -11.163   0.904  0.00  0.00    +0.087 A 
ATOM     24  N   UNL     1      -4.012 -12.387   0.971  0.00  0.00    -0.360 N 
ATOM     25  H   UNL     1      -4.440 -13.233   0.767  0.00  0.00    +0.165 HD
ATOM     26  C   UNL     1      -2.703 -12.239   1.371  0.00  0.00    +0.047 A 
ATOM     27  C   UNL     1      -2.479 -10.862   1.557  0.00  0.00    +0.003 A 
ATOM     28  C   UNL     1      -1.222 -10.410   1.962  0.00  0.00    +0.010 A 
ATOM     29  C   UNL     1      -0.213 -11.307   2.172  0.00  0.00    +0.001 A 
ATOM     30  C   UNL     1      -0.428 -12.665   1.986  0.00  0.00    +0.002 A 
ATOM     31  C   UNL     1      -1.663 -13.135   1.596  0.00  0.00    +0.026 A 
ENDBRANCH  21  22
ENDBRANCH  20  21
ENDBRANCH   3  20
BRANCH   3  32
ATOM     32  C   UNL     1      -5.000  -5.994  -0.244  0.00  0.00    +0.142 C 
BRANCH  32  33
ATOM     33  C   UNL     1      -5.063  -5.767  -1.732  0.00  0.00    -0.030 A 
ATOM     34  C   UNL     1      -4.703  -4.541  -2.260  0.00  0.00    +0.006 A 
ATOM     35  C   UNL     1      -4.760  -4.333  -3.625  0.00  0.00    +0.020 A 
ATOM     36  C   UNL     1      -5.179  -5.351  -4.463  0.00  0.00    +0.041 A 
ATOM     37  C   UNL     1      -5.540  -6.577  -3.934  0.00  0.00    +0.020 A 
ATOM     38  C   UNL     1      -5.476  -6.787  -2.570  0.00  0.00    +0.006 A 
ATOM     39 CL   UNL     1      -5.252  -5.089  -6.178  0.00  0.00    -0.084 Cl
ENDBRANCH  32  33
ENDBRANCH   3  32
TORSDOF 13
