REMARK  Name = ZINC35315885
REMARK  6 active torsions:
REMARK  status: ('A' for Active; 'I' for Inactive)
REMARK    1  A    between atoms: C_1  and  C_2
REMARK    2  A    between atoms: C_2  and  C_3
REMARK    3  A    between atoms: C_4  and  C_23
REMARK    4  A    between atoms: C_5  and  C_17
REMARK    5  A    between atoms: C_23  and  O_25
REMARK    6  A    between atoms: O_25  and  C_26
REMARK                            x       y       z     vdW  Elec       q    Type
REMARK                         _______ _______ _______ _____ _____    ______ ____
ROOT
ATOM      1  C   UNL     1      -1.376  -0.634   0.009  0.00  0.00    +0.023 C 
ATOM      2  C   UNL     1      -2.028  -0.748  -1.157  0.00  0.00    +0.081 C 
ATOM      3  C   UNL     1      -3.472  -1.156  -1.258  0.00  0.00    +0.159 C 
ATOM      4  N   UNL     1      -4.092  -1.100   0.067  0.00  0.00    -0.300 N 
ATOM      5  C   UNL     1      -5.410  -1.158   0.417  0.00  0.00    +0.071 A 
ATOM      6  C   UNL     1      -6.580  -1.278  -0.324  0.00  0.00    +0.028 A 
ATOM      7  C   UNL     1      -7.772  -1.306   0.381  0.00  0.00    +0.002 A 
ATOM      8  C   UNL     1      -7.811  -1.220   1.762  0.00  0.00    +0.002 A 
ATOM      9  C   UNL     1      -6.662  -1.100   2.522  0.00  0.00    +0.030 A 
ATOM     10  C   UNL     1      -5.445  -1.068   1.831  0.00  0.00    +0.091 A 
ATOM     11  N   UNL     1      -4.171  -0.958   2.258  0.00  0.00    -0.214 NA
ATOM     12  C   UNL     1      -3.366  -0.972   1.230  0.00  0.00    +0.202 A 
ATOM     13  N   UNL     1      -1.982  -0.878   1.215  0.00  0.00    -0.288 N 
ATOM     14  H   UNL     1      -1.461  -0.978   2.028  0.00  0.00    +0.155 HD
ENDROOT
BRANCH   3  15
ATOM     15  C   UNL     1      -3.560  -2.562  -1.793  0.00  0.00    -0.020 A 
ATOM     16  C   UNL     1      -2.971  -3.604  -1.101  0.00  0.00    +0.006 A 
ATOM     17  C   UNL     1      -3.052  -4.893  -1.591  0.00  0.00    +0.000 A 
ATOM     18  C   UNL     1      -3.722  -5.142  -2.774  0.00  0.00    +0.000 A 
ATOM     19  C   UNL     1      -4.312  -4.101  -3.467  0.00  0.00    +0.000 A 
ATOM     20  C   UNL     1      -4.235  -2.812  -2.974  0.00  0.00    +0.006 A 
ENDBRANCH   3  15
BRANCH   1  22
ATOM     21  C   UNL     1       0.183   1.292   0.121  0.00  0.00    +0.010 C 
ATOM     22  C   UNL     1       0.076  -0.229  -0.007  0.00  0.00    +0.048 C 
ENDBRANCH   1  22
BRANCH   2  23
ATOM     23  C   UNL     1      -1.323  -0.471  -2.350  0.00  0.00    +0.339 C 
ATOM     24  O   UNL     1      -1.464   0.603  -2.905  0.00  0.00    -0.245 OA
BRANCH  23  25
ATOM     25  O   UNL     1      -0.494  -1.398  -2.876  0.00  0.00    -0.465 OA
ATOM     26  C   UNL     1       0.185  -1.050  -4.083  0.00  0.00    +0.280 C 
ENDBRANCH  23  25
ENDBRANCH   2  23
TORSDOF 4
