REMARK  Name = ZINC13184594
REMARK  13 active torsions:
REMARK  status: ('A' for Active; 'I' for Inactive)
REMARK    1  A    between atoms: C_1  and  C_2
REMARK    2  A    between atoms: C_2  and  C_4
REMARK    3  A    between atoms: C_2  and  S_22
REMARK    4  A    between atoms: N_6  and  C_7
REMARK    5  A    between atoms: C_7  and  C_9
REMARK    6  A    between atoms: C_7  and  C_12
REMARK    7  A    between atoms: C_9  and  C_10
REMARK    8  A    between atoms: C_15  and  O_20
REMARK    9  A    between atoms: C_16  and  O_18
REMARK   10  A    between atoms: O_18  and  C_19
REMARK   11  A    between atoms: O_20  and  C_21
REMARK   12  A    between atoms: S_22  and  C_23
REMARK   13  A    between atoms: C_26  and  N_29
REMARK                            x       y       z     vdW  Elec       q    Type
REMARK                         _______ _______ _______ _____ _____    ______ ____
ROOT
ATOM      1  C   UNL     1      -0.743   1.549   1.930  0.00  0.00    +0.227 C 
ATOM      2  O   UNL     1      -0.089   0.543   2.110  0.00  0.00    -0.275 OA
ATOM      3  N   UNL     1      -0.718   2.163   0.730  0.00  0.00    -0.307 N 
ATOM      4  H   UNL     1      -1.296   2.923   0.562  0.00  0.00    +0.149 HD
ENDROOT
BRANCH   1   6
ATOM      5  C   UNL     1      -0.843   3.279   3.703  0.00  0.00    +0.029 C 
ATOM      6  C   UNL     1      -1.583   2.112   3.047  0.00  0.00    +0.134 C 
BRANCH   6   7
ATOM      7  S   UNL     1      -1.890   0.820   4.283  0.00  0.00    -0.113 S 
BRANCH   7   8
ATOM      8  C   UNL     1      -2.970   1.589   5.444  0.00  0.00    +0.009 A 
ATOM      9  C   UNL     1      -2.447   2.297   6.519  0.00  0.00    +0.017 A 
ATOM     10  C   UNL     1      -3.296   2.904   7.423  0.00  0.00    +0.034 A 
ATOM     11  C   UNL     1      -4.666   2.796   7.266  0.00  0.00    +0.126 A 
ATOM     12  C   UNL     1      -5.190   2.087   6.201  0.00  0.00    +0.034 A 
ATOM     13  C   UNL     1      -4.347   1.483   5.289  0.00  0.00    +0.017 A 
BRANCH  11  14
ATOM     14  N   UNL     1      -5.573   3.442   8.241  0.00  0.00    +0.056 N 
ATOM     15  O   UNL     1      -6.780   3.349   8.104  0.00  0.00    -0.126 OA
ATOM     16  O   UNL     1      -5.113   4.067   9.180  0.00  0.00    -0.126 OA
ENDBRANCH  11  14
ENDBRANCH   7   8
ENDBRANCH   6   7
ENDBRANCH   1   6
BRANCH   3  17
ATOM     17  C   UNL     1       0.183   1.681  -0.321  0.00  0.00    +0.114 C 
BRANCH  17  18
ATOM     18  C   UNL     1      -0.377   2.052  -1.670  0.00  0.00    -0.023 A 
ATOM     19  C   UNL     1      -0.967   3.288  -1.856  0.00  0.00    +0.009 A 
ATOM     20  C   UNL     1      -1.480   3.633  -3.092  0.00  0.00    +0.050 A 
ATOM     21  C   UNL     1      -1.405   2.739  -4.148  0.00  0.00    +0.162 A 
ATOM     22  C   UNL     1      -0.811   1.494  -3.961  0.00  0.00    +0.162 A 
ATOM     23  C   UNL     1      -0.293   1.157  -2.720  0.00  0.00    +0.055 A 
BRANCH  22  24
ATOM     24  O   UNL     1      -0.735   0.613  -4.994  0.00  0.00    -0.491 OA
ATOM     25  C   UNL     1      -0.112  -0.645  -4.728  0.00  0.00    +0.277 C 
ENDBRANCH  22  24
BRANCH  21  26
ATOM     26  O   UNL     1      -1.910   3.076  -5.365  0.00  0.00    -0.491 OA
ATOM     27  C   UNL     1      -2.505   4.370  -5.484  0.00  0.00    +0.277 C 
ENDBRANCH  21  26
ENDBRANCH  17  18
BRANCH  17  28
ATOM     28  C   UNL     1       1.560   2.324  -0.145  0.00  0.00    +0.152 C 
BRANCH  28  29
ATOM     29  C   UNL     1       2.529   1.708  -1.122  0.00  0.00    +0.358 C 
ATOM     30  O   UNL     1       2.191   0.762  -1.793  0.00  0.00    -0.246 OA
ATOM     31  O   UNL     1       3.767   2.211  -1.246  0.00  0.00    -0.246 OA
ENDBRANCH  28  29
ENDBRANCH  17  28
ENDBRANCH   3  17
TORSDOF 10
