REMARK  Name = ZINC19727591
REMARK  13 active torsions:
REMARK  status: ('A' for Active; 'I' for Inactive)
REMARK    1  A    between atoms: C_1  and  C_2
REMARK    2  A    between atoms: C_2  and  C_3
REMARK    3  A    between atoms: C_3  and  C_5
REMARK    4  A    between atoms: C_3  and  O_6
REMARK    5  A    between atoms: O_6  and  C_7
REMARK    6  A    between atoms: C_7  and  C_9
REMARK    7  A    between atoms: C_10  and  C_38
REMARK    8  A    between atoms: C_14  and  C_16
REMARK    9  A    between atoms: C_20  and  N_22
REMARK   10  A    between atoms: C_28  and  C_34
REMARK   11  A    between atoms: C_30  and  C_33
REMARK   12  A    between atoms: C_34  and  O_36
REMARK   13  A    between atoms: O_36  and  C_37
REMARK                            x       y       z     vdW  Elec       q    Type
REMARK                         _______ _______ _______ _____ _____    ______ ____
ROOT
ATOM      1  C   UNL     1       1.187   2.276   0.000  0.00  0.00    +0.065 C 
ATOM      2  C   UNL     1       0.084   1.508   0.031  0.00  0.00    +0.016 C 
ATOM      3  N   UNL     1      -1.158   2.079   0.044  0.00  0.00    -0.321 N 
ATOM      4  C   UNL     1      -1.336   3.375  -0.354  0.00  0.00    +0.016 C 
ATOM      5  C   UNL     1      -0.290   4.226  -0.406  0.00  0.00    +0.025 C 
ATOM      6  C   UNL     1       1.092   3.774  -0.007  0.00  0.00    +0.092 C 
ATOM      7  C   UNL     1      -0.456   5.555  -0.834  0.00  0.00    +0.176 C 
ATOM      8  O   UNL     1       0.505   6.298  -0.860  0.00  0.00    -0.291 OA
ATOM      9  C   UNL     1      -1.802   6.074  -1.261  0.00  0.00    +0.171 C 
ATOM     10  C   UNL     1      -2.632   4.910  -1.814  0.00  0.00    +0.013 C 
ATOM     11  C   UNL     1      -2.724   3.825  -0.739  0.00  0.00    +0.055 C 
ATOM     12  C   UNL     1      -1.953   4.342  -3.062  0.00  0.00    +0.009 C 
ATOM     13  C   UNL     1       0.218   0.007   0.045  0.00  0.00    +0.061 C 
ATOM     14  H   UNL     1      -2.028   1.495   0.377  0.00  0.00    +0.152 HD
ENDROOT
BRANCH   6  15
ATOM     15  C   UNL     1       1.404   4.296   1.372  0.00  0.00    -0.033 A 
ATOM     16  C   UNL     1       0.622   3.917   2.447  0.00  0.00    +0.006 A 
ATOM     17  C   UNL     1       0.910   4.392   3.713  0.00  0.00    +0.022 A 
ATOM     18  C   UNL     1       1.975   5.255   3.902  0.00  0.00    +0.071 A 
ATOM     19  C   UNL     1       2.754   5.638   2.825  0.00  0.00    +0.145 A 
ATOM     20  C   UNL     1       2.468   5.158   1.560  0.00  0.00    +0.038 A 
ATOM     21 CL   UNL     1       2.334   5.856   5.490  0.00  0.00    -0.081 Cl
BRANCH  19  22
ATOM     22  N   UNL     1       3.893   6.561   3.026  0.00  0.00    +0.058 N 
ATOM     23  O   UNL     1       4.578   6.898   2.077  0.00  0.00    -0.126 OA
ATOM     24  O   UNL     1       4.145   6.983   4.140  0.00  0.00    -0.126 OA
ENDBRANCH  19  22
ENDBRANCH   6  15
BRANCH   1  25
ATOM     25  C   UNL     1       2.461   1.661  -0.025  0.00  0.00    +0.338 C 
ATOM     26  O   UNL     1       2.550   0.452  -0.126  0.00  0.00    -0.245 OA
BRANCH  25  27
ATOM     27  O   UNL     1       3.576   2.416   0.062  0.00  0.00    -0.458 OA
BRANCH  27  28
ATOM     28  C   UNL     1       4.828   1.729   0.030  0.00  0.00    +0.173 C 
ATOM     29  C   UNL     1       5.305   1.605  -1.419  0.00  0.00    +0.052 C 
BRANCH  28  31
ATOM     30  C   UNL     1       5.447   2.530   2.314  0.00  0.00    +0.007 C 
ATOM     31  C   UNL     1       5.861   2.513   0.841  0.00  0.00    +0.041 C 
ENDBRANCH  28  31
ENDBRANCH  27  28
ENDBRANCH  25  27
ENDBRANCH   1  25
BRANCH   9  32
ATOM     32  C   UNL     1      -1.627   7.120  -2.330  0.00  0.00    +0.318 C 
ATOM     33  O   UNL     1      -2.114   6.955  -3.424  0.00  0.00    -0.250 OA
BRANCH  32  34
ATOM     34  O   UNL     1      -0.928   8.237  -2.068  0.00  0.00    -0.467 OA
ATOM     35  C   UNL     1      -0.800   9.202  -3.146  0.00  0.00    +0.280 C 
ENDBRANCH  32  34
ENDBRANCH   9  32
TORSDOF 8
