REMARK  Name = ZINC02850862
REMARK  6 active torsions:
REMARK  status: ('A' for Active; 'I' for Inactive)
REMARK    1  A    between atoms: C_4  and  O_7
REMARK    2  A    between atoms: O_7  and  C_8
REMARK    3  A    between atoms: C_13  and  N_14
REMARK    4  A    between atoms: C_15  and  C_17
REMARK    5  A    between atoms: N_20  and  S_23
REMARK    6  A    between atoms: S_23  and  C_26
REMARK                            x       y       z     vdW  Elec       q    Type
REMARK                         _______ _______ _______ _____ _____    ______ ____
ROOT
ATOM      1  N   UNL     1      -1.458   2.209  -0.041  0.00  0.00    -0.282 N 
ATOM      2  C   UNL     1      -1.540   3.554  -0.010  0.00  0.00    +0.220 C 
ATOM      3  O   UNL     1      -0.539   4.219   0.149  0.00  0.00    -0.275 OA
ATOM      4  H   UNL     1      -2.264   1.675  -0.120  0.00  0.00    +0.155 HD
ENDROOT
BRANCH   1  10
ATOM      5  C   UNL     1      -0.025   0.315  -0.513  0.00  0.00    +0.150 A 
ATOM      6  C   UNL     1       1.215  -0.298  -0.436  0.00  0.00    +0.049 A 
ATOM      7  C   UNL     1       2.267   0.345   0.188  0.00  0.00    +0.024 A 
ATOM      8  C   UNL     1       2.087   1.603   0.736  0.00  0.00    +0.043 A 
ATOM      9  C   UNL     1       0.852   2.221   0.664  0.00  0.00    +0.047 A 
ATOM     10  C   UNL     1      -0.208   1.581   0.039  0.00  0.00    +0.078 A 
ATOM     11 CL   UNL     1       3.413   2.405   1.518  0.00  0.00    -0.083 Cl
BRANCH   5  12
ATOM     12  O   UNL     1      -1.061  -0.317  -1.126  0.00  0.00    -0.454 OA
BRANCH  12  16
ATOM     13  C   UNL     1      -1.672   0.412  -5.140  0.00  0.00    +0.000 A 
ATOM     14  C   UNL     1      -2.570  -0.369  -4.436  0.00  0.00    +0.004 A 
ATOM     15  C   UNL     1      -2.368  -0.615  -3.092  0.00  0.00    +0.046 A 
ATOM     16  C   UNL     1      -1.263  -0.077  -2.448  0.00  0.00    +0.129 A 
ATOM     17  C   UNL     1      -0.366   0.712  -3.156  0.00  0.00    +0.046 A 
ATOM     18  C   UNL     1      -0.570   0.949  -4.501  0.00  0.00    +0.004 A 
ENDBRANCH  12  16
ENDBRANCH   5  12
ENDBRANCH   1  10
BRANCH   2  19
ATOM     19  C   UNL     1      -2.877   4.231  -0.172  0.00  0.00    +0.078 C 
ATOM     20  C   UNL     1      -3.478   3.854  -1.528  0.00  0.00    +0.030 C 
ATOM     21  C   UNL     1      -4.852   4.516  -1.675  0.00  0.00    +0.110 C 
ATOM     22  N   UNL     1      -4.705   5.962  -1.461  0.00  0.00    -0.177 NA
ATOM     23  C   UNL     1      -4.057   6.432  -0.229  0.00  0.00    +0.110 C 
ATOM     24  C   UNL     1      -2.692   5.748  -0.098  0.00  0.00    +0.030 C 
BRANCH  22  25
ATOM     25  S   UNL     1      -5.260   7.042  -2.587  0.00  0.00    +0.061 S 
ATOM     26  O   UNL     1      -6.276   6.376  -3.323  0.00  0.00    -0.153 OA
ATOM     27  O   UNL     1      -5.494   8.263  -1.898  0.00  0.00    -0.153 OA
BRANCH  25  28
ATOM     28  C   UNL     1      -3.939   7.345  -3.713  0.00  0.00    +0.105 A 
ATOM     29  C   UNL     1      -3.048   8.375  -3.473  0.00  0.00    +0.028 A 
ATOM     30  C   UNL     1      -2.009   8.609  -4.355  0.00  0.00    +0.002 A 
ATOM     31  C   UNL     1      -1.867   7.821  -5.481  0.00  0.00    +0.000 A 
ATOM     32  C   UNL     1      -2.761   6.795  -5.724  0.00  0.00    +0.002 A 
ATOM     33  C   UNL     1      -3.797   6.557  -4.840  0.00  0.00    +0.028 A 
ENDBRANCH  25  28
ENDBRANCH  22  25
ENDBRANCH   2  19
TORSDOF 6
