REMARK  Name = ZINC33435763
REMARK  2 active torsions:
REMARK  status: ('A' for Active; 'I' for Inactive)
REMARK    1  A    between atoms: C_13  and  C_15
REMARK    2  A    between atoms: C_16  and  N_20
REMARK                            x       y       z     vdW  Elec       q    Type
REMARK                         _______ _______ _______ _____ _____    ______ ____
ROOT
ATOM      1  C   UNL     1       0.171   9.316  -2.669  0.00  0.00    +0.178 A 
ATOM      2  C   UNL     1       0.620  10.290  -3.564  0.00  0.00    +0.126 A 
ATOM      3  S   UNL     1      -0.774  10.476  -4.580  0.00  0.00    +0.052 S 
ATOM      4  N   UNL     1      -1.792   9.335  -3.814  0.00  0.00    -0.108 NA
ATOM      5  N   UNL     1      -1.062   8.872  -2.858  0.00  0.00    -0.135 NA
ENDROOT
BRANCH   2   6
ATOM      6  N   UNL     1       1.846  10.933  -3.624  0.00  0.00    -0.261 N 
ATOM      7  C   UNL     1       2.077  11.854  -4.580  0.00  0.00    +0.307 C 
ATOM      8  O   UNL     1       1.181  12.191  -5.329  0.00  0.00    -0.252 OA
ATOM      9  N   UNL     1       3.302  12.402  -4.705  0.00  0.00    -0.284 N 
ATOM     10  C   UNL     1       4.366  12.088  -3.744  0.00  0.00    +0.114 C 
ATOM     11  C   UNL     1       5.634  11.673  -4.478  0.00  0.00    +0.027 C 
ATOM     12  C   UNL     1       5.995  12.686  -5.565  0.00  0.00    +0.018 C 
ATOM     13  C   UNL     1       4.843  12.797  -6.544  0.00  0.00    +0.054 C 
ATOM     14  C   UNL     1       3.605  13.323  -5.812  0.00  0.00    +0.119 C 
ATOM     15  C   UNL     1       4.486  11.420  -7.054  0.00  0.00    +0.027 A 
ATOM     16  C   UNL     1       3.877  11.342  -8.267  0.00  0.00    +0.022 A 
ATOM     17  C   UNL     1       3.398  10.117  -8.744  0.00  0.00    +0.007 A 
ATOM     18  C   UNL     1       3.541   9.005  -7.966  0.00  0.00    +0.070 A 
ATOM     19  C   UNL     1       4.185   9.119  -6.726  0.00  0.00    +0.251 A 
ATOM     20  O   UNL     1       4.277   8.140  -6.002  0.00  0.00    -0.268 OA
ATOM     21  N   UNL     1       4.706  10.303  -6.322  0.00  0.00    -0.312 N 
ATOM     22  C   UNL     1       5.507  10.294  -5.098  0.00  0.00    +0.130 C 
ATOM     23  H   UNL     1       2.630  10.691  -2.891  0.00  0.00    +0.157 HD
ENDBRANCH   2   6
BRANCH   1  36
ATOM     24  C   UNL     1      -1.000   6.509   5.334  0.00  0.00    +0.005 A 
ATOM     25  C   UNL     1      -2.148   7.260   5.553  0.00  0.00    +0.018 A 
ATOM     26  C   UNL     1      -2.728   7.931   4.495  0.00  0.00    +0.084 A 
ATOM     27  N   UNL     1      -2.209   7.863   3.284  0.00  0.00    -0.350 N 
ATOM     28  C   UNL     1      -1.119   7.154   3.034  0.00  0.00    +0.099 A 
ATOM     29  C   UNL     1      -0.482   6.452   4.053  0.00  0.00    +0.042 A 
ATOM     30  N   UNL     1      -0.607   7.110   1.743  0.00  0.00    -0.314 N 
ATOM     31  C   UNL     1       0.799   7.537   1.719  0.00  0.00    +0.125 C 
ATOM     32  C   UNL     1       1.377   7.303   0.320  0.00  0.00    +0.127 C 
ATOM     33  N   UNL     1       0.508   7.969  -0.662  0.00  0.00    -0.293 N 
ATOM     34  C   UNL     1      -0.936   7.695  -0.612  0.00  0.00    +0.127 C 
ATOM     35  C   UNL     1      -1.424   7.914   0.825  0.00  0.00    +0.125 C 
ATOM     36  C   UNL     1       1.021   8.808  -1.584  0.00  0.00    +0.269 C 
ATOM     37  O   UNL     1       2.188   9.144  -1.517  0.00  0.00    -0.268 OA
ATOM     38  H   UNL     1      -2.683   8.404   2.451  0.00  0.00    +0.166 HD
ENDBRANCH   1  36
TORSDOF 2
