REMARK  Name = ZINC34698262
REMARK  6 active torsions:
REMARK  status: ('A' for Active; 'I' for Inactive)
REMARK    1  A    between atoms: C_4  and  C_7
REMARK    2  A    between atoms: C_7  and  C_8
REMARK    3  A    between atoms: N_11  and  C_14
REMARK    4  A    between atoms: C_14  and  C_15
REMARK    5  A    between atoms: C_20  and  C_22
REMARK    6  A    between atoms: C_29  and  C_31
REMARK                            x       y       z     vdW  Elec       q    Type
REMARK                         _______ _______ _______ _____ _____    ______ ____
ROOT
ATOM      1  C   UNL     1       8.274  -1.995   4.092  0.00  0.00    -0.001 C 
ATOM      2  C   UNL     1       9.434  -1.084   3.637  0.00  0.00    +0.110 C 
ATOM      3  N   UNL     1      10.494  -1.293   4.650  0.00  0.00    -0.296 N 
ATOM      4  C   UNL     1       9.762  -1.375   5.935  0.00  0.00    +0.116 C 
ATOM      5  C   UNL     1       8.489  -2.190   5.607  0.00  0.00    +0.039 C 
ATOM      6  C   UNL     1      11.824  -1.388   4.449  0.00  0.00    +0.253 C 
ATOM      7  O   UNL     1      12.562  -1.660   5.377  0.00  0.00    -0.269 OA
ENDROOT
BRANCH   5   8
ATOM      8  C   UNL     1       7.310  -1.653   6.377  0.00  0.00    -0.040 A 
ATOM      9  C   UNL     1       6.444  -2.524   7.012  0.00  0.00    +0.004 A 
ATOM     10  C   UNL     1       5.362  -2.033   7.718  0.00  0.00    +0.003 A 
ATOM     11  C   UNL     1       5.144  -0.670   7.790  0.00  0.00    +0.038 A 
ATOM     12  C   UNL     1       6.010   0.203   7.154  0.00  0.00    +0.124 A 
ATOM     13  C   UNL     1       7.097  -0.290   6.452  0.00  0.00    +0.042 A 
ATOM     14  F   UNL     1       5.797   1.535   7.222  0.00  0.00    -0.205 F 
ENDBRANCH   5   8
BRANCH   6  15
ATOM     15  C   UNL     1      12.380  -1.162   3.112  0.00  0.00    +0.074 A 
ATOM     16  C   UNL     1      13.684  -1.328   2.668  0.00  0.00    +0.021 A 
ATOM     17  C   UNL     1      13.905  -1.033   1.344  0.00  0.00    +0.008 A 
ATOM     18  C   UNL     1      12.868  -0.612   0.580  0.00  0.00    +0.046 A 
ATOM     19  S   UNL     1      11.557  -0.610   1.630  0.00  0.00    -0.092 S 
ENDBRANCH   6  15
BRANCH   1  20
ATOM     20  C   UNL     1       6.929  -1.316   3.828  0.00  0.00    -0.073 C 
BRANCH  20  24
ATOM     21  C   UNL     1       5.165  -1.687  -0.033  0.00  0.00    -0.010 C 
ATOM     22  C   UNL     1       5.270  -0.304   0.617  0.00  0.00    -0.015 C 
ATOM     23  C   UNL     1       5.470  -0.470   2.126  0.00  0.00    -0.079 C 
ATOM     24  N   UNL     1       6.701  -1.227   2.380  0.00  0.00    +0.380 N 
ATOM     25  C   UNL     1       6.579  -2.579   1.821  0.00  0.00    -0.079 C 
ATOM     26  C   UNL     1       6.423  -2.494   0.301  0.00  0.00    -0.015 C 
ATOM     27  H   UNL     1       7.481  -0.754   1.947  0.00  0.00    -0.082 HD
BRANCH  21  28
ATOM     28  C   UNL     1       5.045  -1.531  -1.550  0.00  0.00    +0.038 C 
BRANCH  28  32
ATOM     29  C   UNL     1       1.363   0.417  -2.497  0.00  0.00    +0.000 A 
ATOM     30  C   UNL     1       2.505   1.165  -2.277  0.00  0.00    +0.000 A 
ATOM     31  C   UNL     1       3.696   0.535  -1.970  0.00  0.00    +0.003 A 
ATOM     32  C   UNL     1       3.746  -0.844  -1.883  0.00  0.00    -0.047 A 
ATOM     33  C   UNL     1       2.605  -1.592  -2.103  0.00  0.00    +0.003 A 
ATOM     34  C   UNL     1       1.414  -0.962  -2.411  0.00  0.00    +0.000 A 
ENDBRANCH  28  32
ENDBRANCH  21  28
ENDBRANCH  20  24
ENDBRANCH   1  20
TORSDOF 6
