REMARK  Name = ZINC41001082
REMARK  11 active torsions:
REMARK  status: ('A' for Active; 'I' for Inactive)
REMARK    1  A    between atoms: C_1  and  C_2
REMARK    2  A    between atoms: C_2  and  C_3
REMARK    3  A    between atoms: C_3  and  C_4
REMARK    4  A    between atoms: C_4  and  S_5
REMARK    5  A    between atoms: S_5  and  C_6
REMARK    6  A    between atoms: C_11  and  C_27
REMARK    7  A    between atoms: C_13  and  C_17
REMARK    8  A    between atoms: C_14  and  C_16
REMARK    9  A    between atoms: C_17  and  O_19
REMARK   10  A    between atoms: O_19  and  C_20
REMARK   11  A    between atoms: C_20  and  C_21
REMARK                            x       y       z     vdW  Elec       q    Type
REMARK                         _______ _______ _______ _____ _____    ______ ____
ROOT
ATOM      1  C   UNL     1       1.054  -4.383  -2.650  0.00  0.00    +0.210 A 
ATOM      2  N   UNL     1       0.574  -5.138  -1.651  0.00  0.00    -0.187 NA
ATOM      3  C   UNL     1       0.906  -6.385  -1.849  0.00  0.00    +0.220 A 
ATOM      4  N   UNL     1       1.613  -6.455  -3.003  0.00  0.00    -0.217 N 
ATOM      5  N   UNL     1       1.694  -5.155  -3.502  0.00  0.00    -0.141 NA
ATOM      6  C   UNL     1       2.144  -7.700  -3.551  0.00  0.00    +0.215 C 
ATOM      7  C   UNL     1       2.045  -8.787  -2.514  0.00  0.00    +0.085 C 
ATOM      8  C   UNL     1       1.331  -8.658  -1.385  0.00  0.00    +0.020 C 
ATOM      9  N   UNL     1       0.639  -7.512  -1.083  0.00  0.00    -0.287 N 
ATOM     10  C   UNL     1       1.286  -9.812  -0.416  0.00  0.00    +0.061 C 
ATOM     11  H   UNL     1      -0.011  -7.490  -0.364  0.00  0.00    +0.155 HD
ENDROOT
BRANCH   6  12
ATOM     12  C   UNL     1       1.347  -8.093  -4.768  0.00  0.00    +0.136 A 
ATOM     13  C   UNL     1       1.836  -8.253  -6.011  0.00  0.00    +0.048 A 
ATOM     14  C   UNL     1       0.748  -8.621  -6.836  0.00  0.00    +0.057 A 
ATOM     15  C   UNL     1      -0.342  -8.664  -6.047  0.00  0.00    +0.170 A 
ATOM     16  O   UNL     1       0.028  -8.348  -4.795  0.00  0.00    -0.451 OA
ATOM     17 BR   UNL     1      -2.095  -9.100  -6.606  0.00  0.00    -0.008 Br
ENDBRANCH   6  12
BRANCH   7  18
ATOM     18  C   UNL     1       2.736  -9.998  -2.740  0.00  0.00    +0.339 C 
ATOM     19  O   UNL     1       3.926 -10.074  -2.497  0.00  0.00    -0.245 OA
BRANCH  18  20
ATOM     20  O   UNL     1       2.076 -11.071  -3.225  0.00  0.00    -0.457 OA
BRANCH  20  21
ATOM     21  C   UNL     1       2.837 -12.263  -3.429  0.00  0.00    +0.268 C 
BRANCH  21  22
ATOM     22  C   UNL     1       1.940 -13.346  -3.970  0.00  0.00    -0.010 A 
ATOM     23  C   UNL     1       1.274 -14.190  -3.102  0.00  0.00    +0.007 A 
ATOM     24  C   UNL     1       0.450 -15.183  -3.598  0.00  0.00    +0.000 A 
ATOM     25  C   UNL     1       0.293 -15.332  -4.963  0.00  0.00    +0.000 A 
ATOM     26  C   UNL     1       0.959 -14.487  -5.832  0.00  0.00    +0.000 A 
ATOM     27  C   UNL     1       1.779 -13.491  -5.335  0.00  0.00    +0.007 A 
ENDBRANCH  21  22
ENDBRANCH  20  21
ENDBRANCH  18  20
ENDBRANCH   7  18
BRANCH   1  28
ATOM     28  S   UNL     1       0.852  -2.639  -2.803  0.00  0.00    -0.084 S 
BRANCH  28  29
ATOM     29  C   UNL     1      -0.106  -2.178  -1.333  0.00  0.00    +0.077 C 
BRANCH  29  30
ATOM     30  C   UNL     1      -0.355  -0.668  -1.340  0.00  0.00    +0.011 C 
BRANCH  30  32
ATOM     31  C   UNL     1      -1.413   1.230  -0.108  0.00  0.00    +0.004 C 
ATOM     32  C   UNL     1      -1.164  -0.279  -0.101  0.00  0.00    -0.003 C 
ENDBRANCH  30  32
ENDBRANCH  29  30
ENDBRANCH  28  29
ENDBRANCH   1  28
TORSDOF 9
