REMARK  Name = ZINC23027338
REMARK  2 active torsions:
REMARK  status: ('A' for Active; 'I' for Inactive)
REMARK    1  A    between atoms: C_8  and  C_13
REMARK    2  A    between atoms: N_15  and  C_16
REMARK                            x       y       z     vdW  Elec       q    Type
REMARK                         _______ _______ _______ _____ _____    ______ ____
ROOT
ATOM      1  C   UNL     1       3.640  -0.753  -0.037  0.00  0.00    +0.261 C 
ATOM      2  O   UNL     1       4.712  -0.178  -0.045  0.00  0.00    -0.269 OA
ATOM      3  N   UNL     1       3.598  -2.100  -0.043  0.00  0.00    -0.305 N 
ATOM      4  H   UNL     1       2.629  -2.620  -0.037  0.00  0.00    +0.150 HD
ENDROOT
BRANCH   1  12
ATOM      5  C   UNL     1       0.032   4.242   0.025  0.00  0.00    +0.001 A 
ATOM      6  C   UNL     1      -1.178   3.561   0.033  0.00  0.00    +0.001 A 
ATOM      7  C   UNL     1      -1.212   2.183   0.031  0.00  0.00    +0.014 A 
ATOM      8  C   UNL     1      -0.018   1.466   0.010  0.00  0.00    +0.046 A 
ATOM      9  C   UNL     1       1.215   2.158   0.002  0.00  0.00    -0.011 A 
ATOM     10  C   UNL     1       1.226   3.554   0.010  0.00  0.00    +0.009 A 
ATOM     11  C   UNL     1       2.453   1.378  -0.014  0.00  0.00    +0.039 A 
ATOM     12  C   UNL     1       2.387   0.023  -0.021  0.00  0.00    +0.105 A 
ATOM     13  N   UNL     1       1.184  -0.650  -0.013  0.00  0.00    -0.318 N 
ATOM     14  H   UNL     1       1.170  -1.750  -0.018  0.00  0.00    +0.169 HD
ATOM     15  C   UNL     1       0.002  -0.004   0.002  0.00  0.00    +0.257 A 
ATOM     16  O   UNL     1      -1.041  -0.632   0.008  0.00  0.00    -0.267 OA
ENDBRANCH   1  12
BRANCH   3  17
ATOM     17  C   UNL     1       4.844  -2.872  -0.059  0.00  0.00    +0.036 C 
ATOM     18  C   UNL     1       5.669  -2.533   1.183  0.00  0.00    +0.029 C 
ATOM     19  C   UNL     1       6.970  -3.339   1.167  0.00  0.00    -0.008 C 
ATOM     20  C   UNL     1       6.644  -4.834   1.163  0.00  0.00    +0.007 C 
ATOM     21  C   UNL     1       5.818  -5.172  -0.081  0.00  0.00    -0.008 C 
ATOM     22  C   UNL     1       4.518  -4.367  -0.064  0.00  0.00    +0.029 C 
ATOM     23  C   UNL     1       6.620  -4.821  -1.336  0.00  0.00    +0.007 C 
ATOM     24  C   UNL     1       6.946  -3.326  -1.331  0.00  0.00    -0.008 C 
ATOM     25  C   UNL     1       7.771  -2.988  -0.088  0.00  0.00    +0.007 C 
ATOM     26  C   UNL     1       5.645  -2.521  -1.315  0.00  0.00    +0.029 C 
ENDBRANCH   3  17
TORSDOF 2
