REMARK  Name = ZINC63537986
REMARK  11 active torsions:
REMARK  status: ('A' for Active; 'I' for Inactive)
REMARK    1  A    between atoms: C_1  and  O_2
REMARK    2  A    between atoms: O_2  and  C_3
REMARK    3  A    between atoms: C_6  and  N_9
REMARK    4  A    between atoms: N_11  and  C_27
REMARK    5  A    between atoms: C_15  and  C_16
REMARK    6  A    between atoms: C_20  and  O_24
REMARK    7  A    between atoms: C_21  and  O_22
REMARK    8  A    between atoms: O_22  and  C_23
REMARK    9  A    between atoms: O_24  and  C_25
REMARK   10  A    between atoms: C_27  and  C_28
REMARK   11  A    between atoms: C_28  and  C_29
REMARK                            x       y       z     vdW  Elec       q    Type
REMARK                         _______ _______ _______ _____ _____    ______ ____
ROOT
ATOM      1  N   UNL     1       2.634  -2.666   4.010  0.00  0.00    -0.225 NA
ATOM      2  C   UNL     1       2.067  -3.695   4.598  0.00  0.00    +0.168 C 
ATOM      3  N   UNL     1       2.644  -4.633   5.428  0.00  0.00    -0.246 N 
ATOM      4  C   UNL     1       1.920  -5.615   5.939  0.00  0.00    +0.259 C 
ATOM      5  O   UNL     1       2.413  -6.451   6.674  0.00  0.00    -0.269 OA
ATOM      6  C   UNL     1       0.490  -5.650   5.580  0.00  0.00    +0.078 C 
ATOM      7  C   UNL     1      -0.471  -6.532   5.956  0.00  0.00    +0.032 C 
ATOM      8  S   UNL     1       0.361  -4.215   4.523  0.00  0.00    -0.049 S 
ENDROOT
BRANCH   1  12
ATOM      9  C   UNL     1       0.381  -0.148   1.617  0.00  0.00    +0.120 A 
ATOM     10  C   UNL     1       1.271   0.387   2.538  0.00  0.00    +0.048 A 
ATOM     11  C   UNL     1       2.024  -0.448   3.337  0.00  0.00    +0.031 A 
ATOM     12  C   UNL     1       1.889  -1.833   3.219  0.00  0.00    +0.067 A 
ATOM     13  C   UNL     1       0.992  -2.366   2.291  0.00  0.00    +0.031 A 
ATOM     14  C   UNL     1       0.240  -1.523   1.499  0.00  0.00    +0.048 A 
BRANCH   9  16
ATOM     15  C   UNL     1      -0.163   2.084   1.002  0.00  0.00    +0.277 C 
ATOM     16  O   UNL     1      -0.358   0.679   0.830  0.00  0.00    -0.495 OA
ENDBRANCH   9  16
ENDBRANCH   1  12
BRANCH   7  17
ATOM     17  C   UNL     1      -0.178  -7.545   6.978  0.00  0.00    +0.022 A 
ATOM     18  C   UNL     1       0.560  -7.203   8.117  0.00  0.00    +0.012 A 
ATOM     19  C   UNL     1       0.832  -8.157   9.073  0.00  0.00    +0.004 A 
ATOM     20  C   UNL     1       0.378  -9.457   8.914  0.00  0.00    +0.049 A 
ATOM     21  C   UNL     1      -0.354  -9.811   7.792  0.00  0.00    +0.162 A 
ATOM     22  C   UNL     1      -0.642  -8.859   6.820  0.00  0.00    +0.169 A 
BRANCH  22  23
ATOM     23  O   UNL     1      -1.365  -9.202   5.722  0.00  0.00    -0.491 OA
ATOM     24  C   UNL     1      -0.636  -9.672   4.587  0.00  0.00    +0.277 C 
ENDBRANCH  22  23
BRANCH  21  25
ATOM     25  O   UNL     1      -0.795 -11.089   7.644  0.00  0.00    -0.491 OA
ATOM     26  C   UNL     1      -0.467 -12.013   8.683  0.00  0.00    +0.277 C 
ENDBRANCH  21  25
ENDBRANCH   7  17
BRANCH   3  27
ATOM     27  C   UNL     1       4.071  -4.542   5.745  0.00  0.00    +0.120 C 
BRANCH  27  28
ATOM     28  C   UNL     1       4.261  -3.687   6.999  0.00  0.00    +0.052 C 
BRANCH  28  29
ATOM     29  C   UNL     1       5.729  -3.593   7.326  0.00  0.00    -0.040 C 
ATOM     30  C   UNL     1       6.580  -2.604   6.968  0.00  0.00    -0.001 A 
ATOM     31  C   UNL     1       6.400  -1.368   6.197  0.00  0.00    +0.010 A 
ATOM     32  C   UNL     1       7.465  -0.558   5.999  0.00  0.00    +0.001 A 
ATOM     33  C   UNL     1       8.733  -0.869   6.510  0.00  0.00    +0.002 A 
ATOM     34  C   UNL     1       8.976  -1.986   7.228  0.00  0.00    +0.026 A 
ATOM     35  C   UNL     1       7.928  -2.909   7.497  0.00  0.00    +0.043 A 
ATOM     36  N   UNL     1       7.912  -4.043   8.156  0.00  0.00    -0.380 N 
ATOM     37  C   UNL     1       6.548  -4.582   8.125  0.00  0.00    +0.144 C 
ATOM     38  H   UNL     1       8.673  -4.454   8.595  0.00  0.00    +0.160 HD
ENDBRANCH  28  29
ENDBRANCH  27  28
ENDBRANCH   3  27
TORSDOF 8
