REMARK  Name = ZINC17090580
REMARK  3 active torsions:
REMARK  status: ('A' for Active; 'I' for Inactive)
REMARK    1  A    between atoms: C_8  and  C_12
REMARK    2  A    between atoms: N_14  and  C_15
REMARK    3  A    between atoms: C_16  and  C_28
REMARK                            x       y       z     vdW  Elec       q    Type
REMARK                         _______ _______ _______ _____ _____    ______ ____
ROOT
ATOM      1  C   UNL     1      -1.219   1.641   0.017  0.00  0.00    +0.085 A 
ATOM      2  C   UNL     1      -2.509   1.114   0.020  0.00  0.00    +0.069 A 
ATOM      3  C   UNL     1      -3.592   2.000   0.025  0.00  0.00    -0.018 A 
ATOM      4  C   UNL     1      -3.263   3.333   0.043  0.00  0.00    +0.025 A 
ATOM      5  S   UNL     1      -1.500   3.354   0.035  0.00  0.00    -0.072 S 
ATOM      6  C   UNL     1      -4.247   4.412   0.076  0.00  0.00    -0.008 A 
ATOM      7  C   UNL     1      -3.934   5.731  -0.227  0.00  0.00    +0.009 A 
ATOM      8  C   UNL     1      -4.935   6.683  -0.249  0.00  0.00    +0.001 A 
ATOM      9  C   UNL     1      -6.241   6.321   0.031  0.00  0.00    +0.000 A 
ATOM     10  C   UNL     1      -6.555   5.012   0.349  0.00  0.00    +0.004 A 
ATOM     11  C   UNL     1      -5.567   4.051   0.388  0.00  0.00    -0.039 A 
ATOM     12  C   UNL     1      -5.890   2.632   0.765  0.00  0.00    +0.040 C 
ATOM     13  C   UNL     1      -5.063   1.610  -0.007  0.00  0.00    +0.042 C 
ENDROOT
BRANCH   2  14
ATOM     14  C   UNL     1      -2.726  -0.337   0.018  0.00  0.00    +0.244 C 
ATOM     15  O   UNL     1      -2.813  -0.941   1.071  0.00  0.00    -0.270 OA
ATOM     16  N   UNL     1      -2.829  -1.001  -1.150  0.00  0.00    -0.325 N 
ATOM     17  H   UNL     1      -2.760  -0.520  -1.990  0.00  0.00    +0.145 HD
ATOM     18  H   UNL     1      -2.973  -1.961  -1.151  0.00  0.00    +0.145 HD
ENDBRANCH   2  14
BRANCH   1  21
ATOM     19  C   UNL     1       1.147   1.655   0.000  0.00  0.00    +0.256 C 
ATOM     20  O   UNL     1       1.130   2.872   0.007  0.00  0.00    -0.270 OA
ATOM     21  N   UNL     1      -0.011   0.966   0.007  0.00  0.00    -0.275 N 
ATOM     22  H   UNL     1       0.002  -0.004   0.002  0.00  0.00    +0.156 HD
BRANCH  19  30
ATOM     23  C   UNL     1       5.010  -3.119  -0.064  0.00  0.00    +0.001 A 
ATOM     24  C   UNL     1       6.181  -2.373  -0.072  0.00  0.00    +0.004 A 
ATOM     25  C   UNL     1       6.135  -0.995  -0.064  0.00  0.00    +0.047 A 
ATOM     26  C   UNL     1       4.909  -0.340  -0.048  0.00  0.00    +0.139 A 
ATOM     27  C   UNL     1       3.724  -1.098  -0.040  0.00  0.00    +0.018 A 
ATOM     28  C   UNL     1       3.794  -2.499  -0.049  0.00  0.00    +0.011 A 
ATOM     29  C   UNL     1       2.465  -0.447  -0.024  0.00  0.00    +0.031 A 
ATOM     30  C   UNL     1       2.431   0.937  -0.016  0.00  0.00    +0.122 A 
ATOM     31  C   UNL     1       3.700   1.675  -0.030  0.00  0.00    +0.350 A 
ATOM     32  O   UNL     1       3.695   2.891  -0.029  0.00  0.00    -0.244 OA
ATOM     33  O   UNL     1       4.867   1.010  -0.040  0.00  0.00    -0.422 OA
ENDBRANCH  19  30
ENDBRANCH   1  21
TORSDOF 3
