REMARK  Name = ZINC44928362
REMARK  7 active torsions:
REMARK  status: ('A' for Active; 'I' for Inactive)
REMARK    1  A    between atoms: C_1  and  C_2
REMARK    2  A    between atoms: C_2  and  C_4
REMARK    3  A    between atoms: C_2  and  N_9
REMARK    4  A    between atoms: C_10  and  C_12
REMARK    5  A    between atoms: C_12  and  C_13
REMARK    6  A    between atoms: C_13  and  C_19
REMARK    7  A    between atoms: C_19  and  C_20
REMARK                            x       y       z     vdW  Elec       q    Type
REMARK                         _______ _______ _______ _____ _____    ______ ____
ROOT
ATOM      1  N   UNL     1       2.240  -2.841   2.369  0.00  0.00    -0.306 N 
ATOM      2  C   UNL     1       1.367  -2.602   3.367  0.00  0.00    +0.214 C 
ATOM      3  O   UNL     1       1.022  -3.504   4.101  0.00  0.00    -0.276 OA
ATOM      4  H   UNL     1       2.516  -2.120   1.782  0.00  0.00    +0.149 HD
ENDROOT
BRANCH   1   6
ATOM      5  C   UNL     1       1.798  -5.003   1.315  0.00  0.00    +0.036 C 
ATOM      6  C   UNL     1       2.773  -4.191   2.170  0.00  0.00    +0.142 C 
BRANCH   6   7
ATOM      7  C   UNL     1       4.105  -4.108   1.471  0.00  0.00    +0.196 A 
ATOM      8  N   UNL     1       5.206  -4.775   1.786  0.00  0.00    -0.109 NA
ATOM      9  N   UNL     1       6.125  -4.427   0.951  0.00  0.00    -0.021 NA
ATOM     10  N   UNL     1       5.638  -3.566   0.126  0.00  0.00    -0.021 NA
ATOM     11  N   UNL     1       4.400  -3.357   0.420  0.00  0.00    -0.109 NA
ENDBRANCH   6   7
ENDBRANCH   1   6
BRANCH   2  12
ATOM     12  C   UNL     1       0.819  -1.213   3.571  0.00  0.00    +0.103 C 
BRANCH  12  13
ATOM     13  C   UNL     1      -0.259  -1.244   4.657  0.00  0.00    -0.011 C 
ATOM     14  C   UNL     1      -0.876   0.148   4.804  0.00  0.00    +0.008 C 
ATOM     15  C   UNL     1       0.213   1.150   5.194  0.00  0.00    +0.001 C 
ATOM     16  C   UNL     1       0.842   0.728   6.524  0.00  0.00    +0.000 C 
ATOM     17  C   UNL     1       1.459  -0.664   6.377  0.00  0.00    +0.001 C 
ATOM     18  C   UNL     1       0.370  -1.666   5.987  0.00  0.00    +0.008 C 
BRANCH  13  19
ATOM     19  C   UNL     1      -1.347  -2.246   4.268  0.00  0.00    +0.132 C 
BRANCH  19  20
ATOM     20  C   UNL     1      -1.907  -1.879   2.917  0.00  0.00    +0.357 C 
ATOM     21  O   UNL     1      -1.560  -0.844   2.374  0.00  0.00    -0.246 OA
ATOM     22  O   UNL     1      -2.707  -2.618   2.368  0.00  0.00    -0.246 OA
ENDBRANCH  19  20
ENDBRANCH  13  19
ENDBRANCH  12  13
ENDBRANCH   2  12
TORSDOF 6
