REMARK  Name = ZINC09668938
REMARK  5 active torsions:
REMARK  status: ('A' for Active; 'I' for Inactive)
REMARK    1  A    between atoms: C_4  and  C_7
REMARK    2  A    between atoms: C_7  and  C_8
REMARK    3  A    between atoms: C_8  and  N_9
REMARK    4  A    between atoms: C_10  and  C_12
REMARK    5  A    between atoms: C_12  and  C_13
REMARK                            x       y       z     vdW  Elec       q    Type
REMARK                         _______ _______ _______ _____ _____    ______ ____
ROOT
ATOM      1  C   UNL     1       1.847   2.171   1.420  0.00  0.00    +0.129 C 
ENDROOT
BRANCH   1   2
ATOM      2  C   UNL     1       1.279   2.102   0.001  0.00  0.00    +0.189 C 
ATOM      3  C   UNL     1       2.204   1.295  -0.890  0.00  0.00    +0.333 C 
ATOM      4  O   UNL     1       2.816   1.811  -1.795  0.00  0.00    -0.248 OA
ATOM      5  O   UNL     1       2.315  -0.024  -0.631  0.00  0.00    -0.423 OA
ATOM      6  C   UNL     1       1.167  -0.690  -0.330  0.00  0.00    +0.152 A 
ATOM      7  C   UNL     1       1.164  -2.078  -0.343  0.00  0.00    +0.048 A 
ATOM      8  C   UNL     1       0.013  -2.772  -0.022  0.00  0.00    +0.004 A 
ATOM      9  C   UNL     1      -1.141  -2.089   0.314  0.00  0.00    +0.002 A 
ATOM     10  C   UNL     1      -1.149  -0.707   0.326  0.00  0.00    +0.026 A 
ATOM     11  C   UNL     1       0.002  -0.004   0.002  0.00  0.00    +0.071 A 
ATOM     12  N   UNL     1      -0.017   1.399   0.010  0.00  0.00    -0.328 N 
ATOM     13  H   UNL     1      -0.854   1.890   0.016  0.00  0.00    +0.147 HD
ENDBRANCH   1   2
BRANCH   1  15
ATOM     14  N   UNL     1       1.250   3.222   3.578  0.00  0.00    -0.315 N 
ATOM     15  C   UNL     1       0.947   3.019   2.281  0.00  0.00    +0.215 C 
ATOM     16  O   UNL     1      -0.051   3.519   1.806  0.00  0.00    -0.276 OA
ATOM     17  H   UNL     1       2.048   2.823   3.958  0.00  0.00    +0.149 HD
BRANCH  14  18
ATOM     18  C   UNL     1       0.375   4.047   4.415  0.00  0.00    +0.109 C 
BRANCH  18  19
ATOM     19  C   UNL     1       0.943   4.116   5.834  0.00  0.00    +0.054 C 
BRANCH  19  23
ATOM     20  C   UNL     1      -1.609   6.520   8.274  0.00  0.00    +0.000 A 
ATOM     21  C   UNL     1      -1.826   5.158   8.179  0.00  0.00    +0.000 A 
ATOM     22  C   UNL     1      -1.000   4.380   7.389  0.00  0.00    +0.004 A 
ATOM     23  C   UNL     1       0.043   4.964   6.695  0.00  0.00    -0.046 A 
ATOM     24  C   UNL     1       0.263   6.325   6.795  0.00  0.00    +0.004 A 
ATOM     25  C   UNL     1      -0.566   7.104   7.581  0.00  0.00    +0.000 A 
ENDBRANCH  19  23
ENDBRANCH  18  19
ENDBRANCH  14  18
ENDBRANCH   1  15
TORSDOF 5
