REMARK  Name = ZINC38965506
REMARK  4 active torsions:
REMARK  status: ('A' for Active; 'I' for Inactive)
REMARK    1  A    between atoms: N_7  and  S_8
REMARK    2  A    between atoms: S_8  and  C_11
REMARK    3  A    between atoms: C_20  and  N_25
REMARK    4  A    between atoms: N_25  and  C_26
REMARK                            x       y       z     vdW  Elec       q    Type
REMARK                         _______ _______ _______ _____ _____    ______ ____
ROOT
ATOM      1  C   UNL     1       0.522   1.436  -0.625  0.00  0.00    +0.002 A 
ATOM      2  C   UNL     1       1.744   2.116  -0.486  0.00  0.00    +0.002 A 
ATOM      3  C   UNL     1       2.917   1.477  -0.288  0.00  0.00    +0.030 A 
ATOM      4  C   UNL     1       2.959   0.061  -0.210  0.00  0.00    +0.089 A 
ATOM      5  N   UNL     1       4.105  -0.556  -0.016  0.00  0.00    -0.226 NA
ATOM      6  C   UNL     1       4.180  -1.894   0.062  0.00  0.00    +0.192 C 
ATOM      7  N   UNL     1       5.324  -2.481   0.255  0.00  0.00    -0.110 NA
ATOM      8  C   UNL     1       2.913  -2.709  -0.076  0.00  0.00    +0.237 C 
ATOM      9  N   UNL     1       1.651  -1.985  -0.292  0.00  0.00    -0.359 N 
ATOM     10  C   UNL     1       1.683  -0.683  -0.353  0.00  0.00    +0.063 A 
ATOM     11  C   UNL     1       0.449   0.088  -0.567  0.00  0.00    +0.027 A 
ATOM     12  H   UNL     1       0.814  -2.465  -0.387  0.00  0.00    +0.162 HD
ENDROOT
BRANCH   7  13
ATOM     13  S   UNL     1       6.703  -1.577   0.406  0.00  0.00    +0.103 S 
ATOM     14  O   UNL     1       6.922  -0.957  -0.854  0.00  0.00    -0.146 OA
ATOM     15  O   UNL     1       6.571  -0.833   1.609  0.00  0.00    -0.146 OA
BRANCH  13  16
ATOM     16  C   UNL     1       8.038  -2.701   0.653  0.00  0.00    +0.141 A 
ATOM     17  C   UNL     1       9.018  -2.800  -0.275  0.00  0.00    +0.031 A 
ATOM     18  C   UNL     1      10.090  -3.677  -0.113  0.00  0.00    +0.004 A 
ATOM     19  C   UNL     1      10.196  -4.469   0.980  0.00  0.00    +0.031 A 
ATOM     20  C   UNL     1       9.204  -4.419   1.996  0.00  0.00    +0.102 A 
ATOM     21  C   UNL     1       8.086  -3.497   1.829  0.00  0.00    +0.127 A 
ATOM     22  N   UNL     1       7.222  -3.532   2.844  0.00  0.00    -0.189 NA
ATOM     23  S   UNL     1       7.805  -4.620   3.875  0.00  0.00    +0.117 S 
ATOM     24  N   UNL     1       9.142  -5.118   3.131  0.00  0.00    -0.191 NA
ENDBRANCH  13  16
ENDBRANCH   7  13
BRANCH   8  25
ATOM     25  N   UNL     1       2.764  -3.514   1.139  0.00  0.00    -0.317 N 
ATOM     26  H   UNL     1       2.927  -3.115   2.008  0.00  0.00    +0.148 HD
BRANCH  25  27
ATOM     27  C   UNL     1       2.387  -4.857   1.046  0.00  0.00    +0.048 A 
ATOM     28  C   UNL     1       2.029  -5.395  -0.183  0.00  0.00    +0.026 A 
ATOM     29  C   UNL     1       1.657  -6.722  -0.272  0.00  0.00    +0.022 A 
ATOM     30  C   UNL     1       1.640  -7.516   0.862  0.00  0.00    +0.042 A 
ATOM     31  C   UNL     1       1.996  -6.983   2.088  0.00  0.00    +0.041 A 
ATOM     32  C   UNL     1       2.375  -5.657   2.182  0.00  0.00    +0.063 A 
ATOM     33 CL   UNL     1       2.829  -4.990   3.719  0.00  0.00    -0.082 Cl
ATOM     34 CL   UNL     1       1.171  -9.183   0.745  0.00  0.00    -0.083 Cl
ENDBRANCH  25  27
ENDBRANCH   8  25
TORSDOF 4
