REMARK  Name = ZINC09495530
REMARK  12 active torsions:
REMARK  status: ('A' for Active; 'I' for Inactive)
REMARK    1  A    between atoms: C_1  and  C_2
REMARK    2  A    between atoms: C_4  and  C_15
REMARK    3  A    between atoms: C_5  and  C_14
REMARK    4  A    between atoms: N_6  and  C_7
REMARK    5  A    between atoms: C_7  and  C_8
REMARK    6  A    between atoms: C_15  and  C_17
REMARK    7  A    between atoms: C_17  and  N_18
REMARK    8  A    between atoms: C_21  and  C_25
REMARK    9  A    between atoms: C_21  and  C_26
REMARK   10  A    between atoms: C_26  and  C_27
REMARK   11  A    between atoms: C_32  and  O_33
REMARK   12  A    between atoms: O_33  and  C_34
REMARK                            x       y       z     vdW  Elec       q    Type
REMARK                         _______ _______ _______ _____ _____    ______ ____
ROOT
ATOM      1  N   UNL     1       5.811  -0.109  -0.052  0.00  0.00    -0.217 N 
ATOM      2  C   UNL     1       6.540   0.059  -1.173  0.00  0.00    +0.247 C 
ATOM      3  O   UNL     1       6.153  -0.027  -2.319  0.00  0.00    -0.273 OA
ATOM      4  C   UNL     1       7.945   0.381  -0.704  0.00  0.00    +0.114 C 
ATOM      5  N   UNL     1       7.836   0.346   0.765  0.00  0.00    -0.285 N 
ATOM      6  C   UNL     1       6.554   0.052   1.048  0.00  0.00    +0.310 C 
ATOM      7  O   UNL     1       6.120  -0.054   2.179  0.00  0.00    -0.252 OA
ATOM      8  C   UNL     1       8.375   1.771  -1.179  0.00  0.00    +0.042 C 
ATOM      9  H   UNL     1       8.549   0.504   1.403  0.00  0.00    +0.151 HD
ENDROOT
BRANCH   1  10
ATOM     10  C   UNL     1       4.383  -0.435  -0.041  0.00  0.00    +0.197 C 
BRANCH  10  11
ATOM     11  C   UNL     1       3.577   0.839  -0.027  0.00  0.00    +0.183 C 
ATOM     12  O   UNL     1       4.141   1.913  -0.027  0.00  0.00    -0.290 OA
BRANCH  11  16
ATOM     13  C   UNL     1      -1.214  -0.894   0.008  0.00  0.00    +0.063 C 
ATOM     14  C   UNL     1       0.002  -0.004   0.002  0.00  0.00    +0.017 A 
ATOM     15  C   UNL     1       1.277  -0.428  -0.012  0.00  0.00    +0.034 A 
ATOM     16  C   UNL     1       2.114   0.779  -0.014  0.00  0.00    +0.040 A 
ATOM     17  C   UNL     1       1.237   1.848   0.000  0.00  0.00    +0.027 A 
ATOM     18  N   UNL     1      -0.016   1.361   0.009  0.00  0.00    -0.343 N 
ATOM     19  C   UNL     1       1.619   3.305   0.004  0.00  0.00    +0.064 C 
BRANCH  18  20
ATOM     20  C   UNL     1      -1.231   2.180   0.020  0.00  0.00    +0.156 C 
BRANCH  20  21
ATOM     21  C   UNL     1      -1.640   2.454   1.444  0.00  0.00    -0.028 A 
ATOM     22  C   UNL     1      -2.502   1.590   2.094  0.00  0.00    +0.005 A 
ATOM     23  C   UNL     1      -2.873   1.838   3.402  0.00  0.00    +0.000 A 
ATOM     24  C   UNL     1      -2.391   2.956   4.057  0.00  0.00    +0.000 A 
ATOM     25  C   UNL     1      -1.534   3.823   3.406  0.00  0.00    +0.000 A 
ATOM     26  C   UNL     1      -1.158   3.571   2.099  0.00  0.00    +0.005 A 
ENDBRANCH  20  21
ENDBRANCH  18  20
ENDBRANCH  11  16
ENDBRANCH  10  11
ENDBRANCH   1  10
BRANCH   4  27
ATOM     27  C   UNL     1       8.929  -0.682  -1.196  0.00  0.00    +0.073 C 
BRANCH  27  28
ATOM     28  C   UNL     1      10.266  -0.475  -0.532  0.00  0.00    -0.003 A 
ATOM     29  C   UNL     1      11.249   0.257  -1.170  0.00  0.00    +0.007 A 
ATOM     30  C   UNL     1      12.476   0.447  -0.561  0.00  0.00    +0.000 A 
ATOM     31  C   UNL     1      12.722  -0.094   0.688  0.00  0.00    +0.004 A 
ATOM     32  C   UNL     1      11.742  -0.826   1.330  0.00  0.00    +0.046 A 
ATOM     33  C   UNL     1      10.509  -1.014   0.723  0.00  0.00    +0.123 A 
BRANCH  33  34
ATOM     34  O   UNL     1       9.541  -1.730   1.355  0.00  0.00    -0.495 OA
ATOM     35  C   UNL     1       9.861  -2.256   2.644  0.00  0.00    +0.277 C 
ENDBRANCH  33  34
ENDBRANCH  27  28
ENDBRANCH   4  27
TORSDOF 8
