REMARK  Name = ZINC40935704
REMARK  13 active torsions:
REMARK  status: ('A' for Active; 'I' for Inactive)
REMARK    1  A    between atoms: C_1  and  C_2
REMARK    2  A    between atoms: C_2  and  O_3
REMARK    3  A    between atoms: O_3  and  C_4
REMARK    4  A    between atoms: C_4  and  C_6
REMARK    5  A    between atoms: C_10  and  N_11
REMARK    6  A    between atoms: C_12  and  C_14
REMARK    7  A    between atoms: C_14  and  C_15
REMARK    8  A    between atoms: C_15  and  C_16
REMARK    9  A    between atoms: C_16  and  C_17
REMARK   10  A    between atoms: C_17  and  C_18
REMARK   11  A    between atoms: C_18  and  N_19
REMARK   12  A    between atoms: C_26  and  N_30
REMARK   13  A    between atoms: C_36  and  C_38
REMARK                            x       y       z     vdW  Elec       q    Type
REMARK                         _______ _______ _______ _____ _____    ______ ____
ROOT
ATOM      1  N   UNL     1      -3.034  -2.523   2.498  0.00  0.00    -0.279 N 
ATOM      2  C   UNL     1      -3.809  -2.866   3.546  0.00  0.00    +0.218 C 
ATOM      3  O   UNL     1      -4.910  -3.338   3.357  0.00  0.00    -0.275 OA
ATOM      4  H   UNL     1      -2.153  -2.146   2.650  0.00  0.00    +0.155 HD
ENDROOT
BRANCH   1   9
ATOM      5  C   UNL     1      -2.842  -2.416   0.016  0.00  0.00    +0.091 A 
ATOM      6  C   UNL     1      -3.548  -2.714  -1.219  0.00  0.00    -0.019 A 
ATOM      7  C   UNL     1      -4.777  -3.243  -1.039  0.00  0.00    -0.004 A 
ATOM      8  S   UNL     1      -4.974  -3.336   0.716  0.00  0.00    -0.077 S 
ATOM      9  C   UNL     1      -3.495  -2.708   1.205  0.00  0.00    +0.086 A 
ATOM     10  C   UNL     1      -5.743  -3.656  -2.106  0.00  0.00    +0.043 C 
ATOM     11  C   UNL     1      -4.984  -3.738  -3.439  0.00  0.00    +0.006 C 
ATOM     12  C   UNL     1      -4.148  -2.467  -3.612  0.00  0.00    +0.008 C 
ATOM     13  C   UNL     1      -2.989  -2.466  -2.612  0.00  0.00    +0.018 C 
ATOM     14  C   UNL     1      -2.283  -1.110  -2.648  0.00  0.00    +0.012 C 
BRANCH   5  15
ATOM     15  C   UNL     1      -1.497  -1.838   0.006  0.00  0.00    +0.342 C 
ATOM     16  O   UNL     1      -0.523  -2.566  -0.007  0.00  0.00    -0.245 OA
BRANCH  15  17
ATOM     17  O   UNL     1      -1.339  -0.499   0.012  0.00  0.00    -0.461 OA
BRANCH  17  19
ATOM     18  C   UNL     1      -0.019   1.526   0.010  0.00  0.00    +0.048 C 
ATOM     19  C   UNL     1       0.002  -0.004   0.002  0.00  0.00    +0.229 C 
ENDBRANCH  17  19
ENDBRANCH  15  17
ENDBRANCH   5  15
ENDBRANCH   1   9
BRANCH   2  20
ATOM     20  C   UNL     1      -3.307  -2.665   4.953  0.00  0.00    +0.096 C 
BRANCH  20  21
ATOM     21  C   UNL     1      -4.372  -3.132   5.946  0.00  0.00    +0.009 C 
BRANCH  21  22
ATOM     22  C   UNL     1      -3.863  -2.928   7.374  0.00  0.00    +0.002 C 
BRANCH  22  23
ATOM     23  C   UNL     1      -4.928  -3.395   8.368  0.00  0.00    +0.019 C 
BRANCH  23  24
ATOM     24  C   UNL     1      -4.419  -3.191   9.796  0.00  0.00    +0.117 C 
BRANCH  24  25
ATOM     25  N   UNL     1      -5.439  -3.638  10.747  0.00  0.00    -0.234 N 
ATOM     26  C   UNL     1      -6.410  -2.853  11.247  0.00  0.00    +0.254 C 
ATOM     27  O   UNL     1      -6.578  -1.679  10.986  0.00  0.00    -0.270 OA
ATOM     28  C   UNL     1      -7.239  -3.659  12.168  0.00  0.00    +0.052 A 
ATOM     29  C   UNL     1      -8.351  -3.394  12.953  0.00  0.00    +0.014 A 
ATOM     30  C   UNL     1      -8.903  -4.404  13.725  0.00  0.00    +0.003 A 
ATOM     31  C   UNL     1      -8.353  -5.672  13.718  0.00  0.00    +0.033 A 
ATOM     32  C   UNL     1      -7.242  -5.952  12.938  0.00  0.00    +0.139 A 
ATOM     33  C   UNL     1      -6.679  -4.952  12.161  0.00  0.00    +0.080 A 
ATOM     34  C   UNL     1      -5.531  -4.890  11.232  0.00  0.00    +0.256 C 
ATOM     35  O   UNL     1      -4.793  -5.814  10.954  0.00  0.00    -0.269 OA
BRANCH  32  36
ATOM     36  N   UNL     1      -6.659  -7.312  12.936  0.00  0.00    +0.057 N 
ATOM     37  O   UNL     1      -7.152  -8.182  13.615  0.00  0.00    -0.126 OA
ATOM     38  O   UNL     1      -5.689  -7.553  12.255  0.00  0.00    -0.126 OA
ENDBRANCH  32  36
ENDBRANCH  24  25
ENDBRANCH  23  24
ENDBRANCH  22  23
ENDBRANCH  21  22
ENDBRANCH  20  21
ENDBRANCH   2  20
TORSDOF 11
