REMARK  Name = ZINC12525814
REMARK  11 active torsions:
REMARK  status: ('A' for Active; 'I' for Inactive)
REMARK    1  A    between atoms: C_1  and  C_2
REMARK    2  A    between atoms: C_5  and  C_24
REMARK    3  A    between atoms: C_7  and  S_8
REMARK    4  A    between atoms: S_8  and  N_11
REMARK    5  A    between atoms: N_11  and  C_12
REMARK    6  A    between atoms: C_15  and  N_19
REMARK    7  A    between atoms: C_16  and  C_18
REMARK    8  A    between atoms: N_19  and  S_20
REMARK    9  A    between atoms: S_20  and  C_23
REMARK   10  A    between atoms: C_24  and  O_26
REMARK   11  A    between atoms: O_26  and  C_27
REMARK                            x       y       z     vdW  Elec       q    Type
REMARK                         _______ _______ _______ _____ _____    ______ ____
ROOT
ATOM      1  N   UNL     1      -0.524   1.374   1.333  0.00  0.00    -0.216 N 
ATOM      2  H   UNL     1      -1.240   1.474   0.687  0.00  0.00    +0.174 HD
ENDROOT
BRANCH   1   3
ATOM      3  C   UNL     1       0.590   0.582   1.028  0.00  0.00    +0.048 A 
ATOM      4  C   UNL     1       1.870   1.053   1.290  0.00  0.00    +0.026 A 
ATOM      5  C   UNL     1       2.968   0.275   0.983  0.00  0.00    +0.026 A 
ATOM      6  C   UNL     1       2.793  -0.979   0.412  0.00  0.00    +0.051 A 
ATOM      7  C   UNL     1       1.514  -1.450   0.150  0.00  0.00    -0.026 A 
ATOM      8  C   UNL     1       0.415  -0.671   0.457  0.00  0.00    +0.029 A 
ATOM      9  C   UNL     1       1.323  -2.811  -0.469  0.00  0.00    +0.046 C 
BRANCH   6  10
ATOM     10  N   UNL     1       3.907  -1.768   0.102  0.00  0.00    -0.221 N 
ATOM     11  H   UNL     1       3.869  -2.388  -0.644  0.00  0.00    +0.173 HD
BRANCH  10  12
ATOM     12  S   UNL     1       5.288  -1.645   1.007  0.00  0.00    +0.040 S 
ATOM     13  O   UNL     1       6.151  -2.648   0.490  0.00  0.00    -0.155 OA
ATOM     14  O   UNL     1       5.647  -0.272   0.935  0.00  0.00    -0.155 OA
ATOM     15  C   UNL     1       4.777  -2.069   2.695  0.00  0.00    +0.218 C 
ENDBRANCH  10  12
ENDBRANCH   6  10
ENDBRANCH   1   3
BRANCH   1  16
ATOM     16  S   UNL     1      -0.619   2.138   2.800  0.00  0.00    +0.073 S 
ATOM     17  O   UNL     1       0.585   2.877   2.951  0.00  0.00    -0.150 OA
ATOM     18  O   UNL     1      -1.900   2.749   2.856  0.00  0.00    -0.150 OA
BRANCH  16  25
ATOM     19  C   UNL     1      -2.745   0.013   3.091  0.00  0.00    +0.046 C 
ATOM     20  C   UNL     1      -1.623  -0.045   4.095  0.00  0.00    -0.024 A 
ATOM     21  C   UNL     1      -1.617  -1.031   5.067  0.00  0.00    +0.006 A 
ATOM     22  C   UNL     1      -0.592  -1.089   5.988  0.00  0.00    +0.015 A 
ATOM     23  C   UNL     1       0.441  -0.151   5.940  0.00  0.00    +0.061 A 
ATOM     24  C   UNL     1       0.432   0.837   4.953  0.00  0.00    +0.044 A 
ATOM     25  C   UNL     1      -0.602   0.888   4.041  0.00  0.00    +0.112 A 
BRANCH  23  26
ATOM     26  C   UNL     1       1.541  -0.207   6.923  0.00  0.00    +0.339 C 
ATOM     27  O   UNL     1       2.438   0.611   6.879  0.00  0.00    -0.245 OA
BRANCH  26  28
ATOM     28  O   UNL     1       1.550  -1.165   7.870  0.00  0.00    -0.464 OA
ATOM     29  C   UNL     1       2.662  -1.160   8.803  0.00  0.00    +0.280 C 
ENDBRANCH  26  28
ENDBRANCH  23  26
ENDBRANCH  16  25
ENDBRANCH   1  16
TORSDOF 7
