REMARK  Name = ZINC35777566
REMARK  17 active torsions:
REMARK  status: ('A' for Active; 'I' for Inactive)
REMARK    1  A    between atoms: C_1  and  C_2
REMARK    2  A    between atoms: C_2  and  C_3
REMARK    3  A    between atoms: C_4  and  C_22
REMARK    4  A    between atoms: C_5  and  O_14
REMARK    5  A    between atoms: N_6  and  C_8
REMARK    6  A    between atoms: O_14  and  C_15
REMARK    7  A    between atoms: C_22  and  N_23
REMARK    8  A    between atoms: N_23  and  C_24
REMARK    9  A    between atoms: N_23  and  C_34
REMARK   10  A    between atoms: C_24  and  C_25
REMARK   11  A    between atoms: C_25  and  C_27
REMARK   12  A    between atoms: C_25  and  O_33
REMARK   13  A    between atoms: C_27  and  O_28
REMARK   14  A    between atoms: O_28  and  C_29
REMARK   15  A    between atoms: C_29  and  C_30
REMARK   16  A    between atoms: C_30  and  C_31
REMARK   17  A    between atoms: C_30  and  C_32
REMARK                            x       y       z     vdW  Elec       q    Type
REMARK                         _______ _______ _______ _____ _____    ______ ____
ROOT
ATOM      1  C   UNL     1       0.612  -0.453  -1.081  0.00  0.00    +0.068 A 
ATOM      2  C   UNL     1      -0.292  -0.655  -2.129  0.00  0.00    +0.021 A 
ATOM      3  C   UNL     1       0.395  -1.180  -3.178  0.00  0.00    +0.225 A 
ATOM      4  N   UNL     1       1.694  -1.302  -2.795  0.00  0.00    -0.200 N 
ATOM      5  N   UNL     1       1.799  -0.833  -1.479  0.00  0.00    -0.168 NA
ENDROOT
BRANCH   4   6
ATOM      6  C   UNL     1       2.743  -1.803  -3.579  0.00  0.00    +0.069 A 
ATOM      7  C   UNL     1       2.542  -2.921  -4.377  0.00  0.00    +0.028 A 
ATOM      8  C   UNL     1       3.577  -3.412  -5.149  0.00  0.00    +0.002 A 
ATOM      9  C   UNL     1       4.812  -2.791  -5.127  0.00  0.00    +0.000 A 
ATOM     10  C   UNL     1       5.016  -1.677  -4.333  0.00  0.00    +0.002 A 
ATOM     11  C   UNL     1       3.983  -1.178  -3.563  0.00  0.00    +0.028 A 
ENDBRANCH   4   6
BRANCH   1  13
ATOM     12  C   UNL     1       0.388   1.639   0.232  0.00  0.00    +0.010 C 
ATOM     13  C   UNL     1       0.277   0.114   0.274  0.00  0.00    +0.054 C 
ENDBRANCH   1  13
BRANCH   3  14
ATOM     14  O   UNL     1      -0.122  -1.521  -4.386  0.00  0.00    -0.438 OA
BRANCH  14  15
ATOM     15  C   UNL     1      -0.695  -2.747  -4.512  0.00  0.00    +0.133 A 
ATOM     16  C   UNL     1      -0.831  -3.567  -3.401  0.00  0.00    +0.046 A 
ATOM     17  C   UNL     1      -1.415  -4.813  -3.530  0.00  0.00    +0.006 A 
ATOM     18  C   UNL     1      -1.863  -5.243  -4.765  0.00  0.00    +0.038 A 
ATOM     19  C   UNL     1      -1.729  -4.427  -5.876  0.00  0.00    +0.127 A 
ATOM     20  C   UNL     1      -1.150  -3.176  -5.750  0.00  0.00    +0.084 A 
ATOM     21  F   UNL     1      -2.167  -4.850  -7.082  0.00  0.00    -0.205 F 
ENDBRANCH  14  15
ENDBRANCH   3  14
BRANCH   2  22
ATOM     22  C   UNL     1      -1.767  -0.347  -2.099  0.00  0.00    -0.035 C 
BRANCH  22  23
ATOM     23  N   UNL     1      -1.984   1.048  -2.507  0.00  0.00    +0.386 N 
ATOM     24  H   UNL     1      -1.431   1.658  -1.924  0.00  0.00    -0.081 HD
BRANCH  23  25
ATOM     25  C   UNL     1      -3.406   1.386  -2.359  0.00  0.00    -0.068 C 
ATOM     26  C   UNL     1      -3.756   2.619  -1.524  0.00  0.00    -0.017 C 
ATOM     27  C   UNL     1      -4.031   1.219  -0.973  0.00  0.00    -0.017 C 
ENDBRANCH  23  25
BRANCH  23  28
ATOM     28  C   UNL     1      -1.584   1.216  -3.910  0.00  0.00    -0.044 C 
BRANCH  28  29
ATOM     29  C   UNL     1      -1.691   2.693  -4.297  0.00  0.00    +0.124 C 
BRANCH  29  30
ATOM     30  O   UNL     1      -3.041   3.132  -4.131  0.00  0.00    -0.391 OA
ATOM     31  H   UNL     1      -3.681   2.648  -4.670  0.00  0.00    +0.210 HD
ENDBRANCH  29  30
BRANCH  29  32
ATOM     32  C   UNL     1      -1.274   2.868  -5.759  0.00  0.00    +0.189 C 
BRANCH  32  33
ATOM     33  O   UNL     1      -1.262   4.258  -6.088  0.00  0.00    -0.377 OA
BRANCH  33  34
ATOM     34  C   UNL     1      -0.884   4.534  -7.438  0.00  0.00    +0.163 C 
BRANCH  34  35
ATOM     35  C   UNL     1      -0.906   6.045  -7.676  0.00  0.00    +0.009 C 
ATOM     36  C   UNL     1       0.165   6.713  -6.811  0.00  0.00    +0.009 C 
ATOM     37  C   UNL     1      -0.624   6.333  -9.152  0.00  0.00    +0.009 C 
ENDBRANCH  34  35
ENDBRANCH  33  34
ENDBRANCH  32  33
ENDBRANCH  29  32
ENDBRANCH  28  29
ENDBRANCH  23  28
ENDBRANCH  22  23
ENDBRANCH   2  22
TORSDOF 14
