REMARK  Name = ZINC39356210
REMARK  7 active torsions:
REMARK  status: ('A' for Active; 'I' for Inactive)
REMARK    1  A    between atoms: C_1  and  N_2
REMARK    2  A    between atoms: C_3  and  C_23
REMARK    3  A    between atoms: C_7  and  S_9
REMARK    4  A    between atoms: S_9  and  C_10
REMARK    5  A    between atoms: C_10  and  C_11
REMARK    6  A    between atoms: C_26  and  O_29
REMARK    7  A    between atoms: O_29  and  C_30
REMARK                            x       y       z     vdW  Elec       q    Type
REMARK                         _______ _______ _______ _____ _____    ______ ____
ROOT
ATOM      1  C   UNL     1       0.254   1.671  -0.239  0.00  0.00    -0.090 C 
ATOM      2  N   UNL     1       0.073   0.222  -0.077  0.00  0.00    +0.409 N 
ATOM      3  C   UNL     1       0.672  -0.509  -1.226  0.00  0.00    +0.049 C 
ATOM      4  N   UNL     1       0.949  -1.853  -0.653  0.00  0.00    -0.267 NA
ATOM      5  N   UNL     1       1.388  -1.584   0.719  0.00  0.00    -0.262 NA
ATOM      6  C   UNL     1       0.833  -0.268   1.096  0.00  0.00    +0.077 C 
ATOM      7  H   UNL     1       1.669  -2.328  -1.177  0.00  0.00    +0.139 HD
ATOM      8  H   UNL     1       2.395  -1.583   0.782  0.00  0.00    +0.140 HD
ATOM      9  H   UNL     1      -0.906  -0.004   0.016  0.00  0.00    -0.076 HD
ENDROOT
BRANCH   3  10
ATOM     10  C   UNL     1      -0.306  -0.603  -2.368  0.00  0.00    -0.046 A 
ATOM     11  C   UNL     1      -0.035   0.037  -3.563  0.00  0.00    +0.007 A 
ATOM     12  C   UNL     1      -0.931  -0.046  -4.612  0.00  0.00    +0.046 A 
ATOM     13  C   UNL     1      -2.103  -0.774  -4.465  0.00  0.00    +0.120 A 
ATOM     14  C   UNL     1      -2.372  -1.416  -3.264  0.00  0.00    +0.046 A 
ATOM     15  C   UNL     1      -1.471  -1.333  -2.221  0.00  0.00    +0.007 A 
BRANCH  13  16
ATOM     16  O   UNL     1      -2.986  -0.858  -5.494  0.00  0.00    -0.495 OA
ATOM     17  C   UNL     1      -4.171  -1.623  -5.272  0.00  0.00    +0.277 C 
ENDBRANCH  13  16
ENDBRANCH   3  10
BRANCH   6  18
ATOM     18  S   UNL     1      -0.273  -0.446   2.523  0.00  0.00    -0.152 S 
BRANCH  18  19
ATOM     19  C   UNL     1      -1.512  -1.649   1.970  0.00  0.00    +0.143 C 
BRANCH  19  20
ATOM     20  C   UNL     1      -2.506  -1.891   3.076  0.00  0.00    +0.120 A 
ATOM     21  N   UNL     1      -3.517  -2.772   2.854  0.00  0.00    -0.310 N 
ATOM     22  H   UNL     1      -3.580  -3.224   1.999  0.00  0.00    +0.170 HD
ATOM     23  C   UNL     1      -4.435  -3.024   3.816  0.00  0.00    +0.259 A 
ATOM     24  O   UNL     1      -5.344  -3.812   3.631  0.00  0.00    -0.267 OA
ATOM     25  C   UNL     1      -4.290  -2.311   5.094  0.00  0.00    +0.065 A 
ATOM     26  C   UNL     1      -5.182  -2.499   6.148  0.00  0.00    +0.015 A 
ATOM     27  C   UNL     1      -5.000  -1.803   7.323  0.00  0.00    +0.001 A 
ATOM     28  C   UNL     1      -3.937  -0.920   7.463  0.00  0.00    +0.002 A 
ATOM     29  C   UNL     1      -3.046  -0.720   6.434  0.00  0.00    +0.028 A 
ATOM     30  C   UNL     1      -3.209  -1.413   5.233  0.00  0.00    +0.078 A 
ATOM     31  N   UNL     1      -2.351  -1.250   4.195  0.00  0.00    -0.233 NA
ENDBRANCH  19  20
ENDBRANCH  18  19
ENDBRANCH   6  18
TORSDOF 5
