REMARK  Name = ZINC29466283
REMARK  18 active torsions:
REMARK  status: ('A' for Active; 'I' for Inactive)
REMARK    1  A    between atoms: C_1  and  C_2
REMARK    2  A    between atoms: C_4  and  C_40
REMARK    3  A    between atoms: C_6  and  C_8
REMARK    4  A    between atoms: C_9  and  C_27
REMARK    5  A    between atoms: C_12  and  C_18
REMARK    6  A    between atoms: N_20  and  C_21
REMARK    7  A    between atoms: N_20  and  C_24
REMARK    8  A    between atoms: C_21  and  C_22
REMARK    9  A    between atoms: C_21  and  C_23
REMARK   10  A    between atoms: C_24  and  C_25
REMARK   11  A    between atoms: C_24  and  C_26
REMARK   12  A    between atoms: C_27  and  C_28
REMARK   13  A    between atoms: C_28  and  N_29
REMARK   14  A    between atoms: N_29  and  C_30
REMARK   15  A    between atoms: C_30  and  C_31
REMARK   16  A    between atoms: C_31  and  C_32
REMARK   17  A    between atoms: C_32  and  C_33
REMARK   18  A    between atoms: C_33  and  C_34
REMARK                            x       y       z     vdW  Elec       q    Type
REMARK                         _______ _______ _______ _____ _____    ______ ____
ROOT
ATOM      1  C   UNL     1       6.068   4.378  -2.434  0.00  0.00    +0.051 A 
ATOM      2  C   UNL     1       4.797   3.909  -2.488  0.00  0.00    -0.016 A 
ATOM      3  C   UNL     1       3.964   4.854  -1.745  0.00  0.00    +0.004 A 
ATOM      4  C   UNL     1       2.603   4.915  -1.450  0.00  0.00    +0.023 A 
ATOM      5  C   UNL     1       2.112   5.981  -0.704  0.00  0.00    +0.038 A 
ATOM      6  C   UNL     1       2.984   6.983  -0.254  0.00  0.00    +0.015 A 
ATOM      7  C   UNL     1       4.316   6.927  -0.540  0.00  0.00    +0.027 A 
ATOM      8  C   UNL     1       4.830   5.868  -1.286  0.00  0.00    +0.047 A 
ATOM      9  N   UNL     1       6.096   5.553  -1.719  0.00  0.00    -0.354 N 
ATOM     10  H   UNL     1       7.048   6.085  -1.572  0.00  0.00    +0.166 HD
ENDROOT
BRANCH   1  16
ATOM     11  C   UNL     1       8.181   2.095  -6.336  0.00  0.00    +0.044 C 
ATOM     12  C   UNL     1       8.265   2.630  -4.930  0.00  0.00    -0.050 A 
ATOM     13  C   UNL     1       9.444   2.514  -4.216  0.00  0.00    +0.006 A 
ATOM     14  C   UNL     1       9.529   3.002  -2.924  0.00  0.00    -0.050 A 
ATOM     15  C   UNL     1       8.436   3.609  -2.340  0.00  0.00    +0.013 A 
ATOM     16  C   UNL     1       7.244   3.729  -3.054  0.00  0.00    -0.001 A 
ATOM     17  C   UNL     1       7.163   3.229  -4.355  0.00  0.00    +0.013 A 
ATOM     18  C   UNL     1      10.818   2.872  -2.154  0.00  0.00    +0.044 C 
ENDBRANCH   1  16
BRANCH   5  19
ATOM     19  C   UNL     1       0.673   6.058  -0.384  0.00  0.00    +0.247 C 
ATOM     20  O   UNL     1      -0.066   5.141  -0.684  0.00  0.00    -0.270 OA
ATOM     21  N   UNL     1       0.178   7.146   0.239  0.00  0.00    -0.292 N 
BRANCH  21  22
ATOM     22  C   UNL     1      -1.038   7.036   1.049  0.00  0.00    +0.070 C 
ATOM     23  C   UNL     1      -0.760   7.558   2.460  0.00  0.00    +0.028 C 
ATOM     24  C   UNL     1      -2.153   7.866   0.409  0.00  0.00    +0.028 C 
ENDBRANCH  21  22
BRANCH  21  25
ATOM     25  C   UNL     1       0.857   8.438   0.108  0.00  0.00    +0.070 C 
ATOM     26  C   UNL     1       1.718   8.690   1.347  0.00  0.00    +0.028 C 
ATOM     27  C   UNL     1       1.746   8.422  -1.137  0.00  0.00    +0.028 C 
ENDBRANCH  21  25
ENDBRANCH   5  19
BRANCH   2  28
ATOM     28  C   UNL     1       4.332   2.653  -3.179  0.00  0.00    +0.019 C 
BRANCH  28  29
ATOM     29  C   UNL     1       4.401   1.478  -2.201  0.00  0.00    -0.078 C 
BRANCH  29  30
ATOM     30  N   UNL     1       3.947   0.253  -2.875  0.00  0.00    +0.379 N 
ATOM     31  H   UNL     1       2.911   0.386  -3.217  0.00  0.00    -0.086 HD
ATOM     32  H   UNL     1       4.596   0.049  -3.740  0.00  0.00    -0.086 HD
BRANCH  30  33
ATOM     33  C   UNL     1       3.999  -0.898  -1.965  0.00  0.00    -0.083 C 
BRANCH  33  34
ATOM     34  C   UNL     1       3.521  -2.152  -2.700  0.00  0.00    -0.019 C 
BRANCH  34  35
ATOM     35  C   UNL     1       3.575  -3.352  -1.752  0.00  0.00    +0.003 C 
BRANCH  35  36
ATOM     36  C   UNL     1       3.097  -4.605  -2.488  0.00  0.00    +0.035 C 
BRANCH  36  37
ATOM     37  C   UNL     1       3.151  -5.787  -1.554  0.00  0.00    -0.045 A 
ATOM     38  C   UNL     1       4.291  -6.570  -1.465  0.00  0.00    +0.023 A 
ATOM     39  C   UNL     1       4.305  -7.643  -0.594  0.00  0.00    +0.111 A 
ATOM     40  N   UNL     1       3.247  -7.930   0.139  0.00  0.00    -0.263 NA
ATOM     41  C   UNL     1       2.144  -7.211   0.076  0.00  0.00    +0.111 A 
ATOM     42  C   UNL     1       2.058  -6.120  -0.768  0.00  0.00    +0.023 A 
ENDBRANCH  36  37
ENDBRANCH  35  36
ENDBRANCH  34  35
ENDBRANCH  33  34
ENDBRANCH  30  33
ENDBRANCH  29  30
ENDBRANCH  28  29
ENDBRANCH   2  28
TORSDOF 12
