REMARK  Name = ZINC39725830
REMARK  10 active torsions:
REMARK  status: ('A' for Active; 'I' for Inactive)
REMARK    1  A    between atoms: C_1  and  C_2
REMARK    2  A    between atoms: C_6  and  N_9
REMARK    3  A    between atoms: C_7  and  C_8
REMARK    4  A    between atoms: C_10  and  S_24
REMARK    5  A    between atoms: S_24  and  C_25
REMARK    6  A    between atoms: C_25  and  C_26
REMARK    7  A    between atoms: N_28  and  C_29
REMARK    8  A    between atoms: C_30  and  C_37
REMARK    9  A    between atoms: C_32  and  C_36
REMARK   10  A    between atoms: C_34  and  C_35
REMARK                            x       y       z     vdW  Elec       q    Type
REMARK                         _______ _______ _______ _____ _____    ______ ____
ROOT
ATOM      1  N   UNL     1      -0.856  -3.274   3.964  0.00  0.00    -0.234 N 
ATOM      2  C   UNL     1      -1.169  -3.216   5.394  0.00  0.00    +0.259 C 
ATOM      3  N   UNL     1      -0.092  -3.220   6.387  0.00  0.00    -0.248 NA
ATOM      4  C   UNL     1       1.143  -3.275   6.016  0.00  0.00    +0.101 C 
ATOM      5  C   UNL     1       2.446  -3.296   6.721  0.00  0.00    +0.028 A 
ATOM      6  C   UNL     1       2.825  -3.265   8.050  0.00  0.00    +0.012 A 
ATOM      7  C   UNL     1       4.170  -3.300   8.385  0.00  0.00    +0.001 A 
ATOM      8  C   UNL     1       5.133  -3.367   7.394  0.00  0.00    +0.002 A 
ATOM      9  C   UNL     1       4.771  -3.399   6.061  0.00  0.00    +0.028 A 
ATOM     10  C   UNL     1       3.419  -3.364   5.700  0.00  0.00    +0.074 A 
ATOM     11  N   UNL     1       2.807  -3.384   4.491  0.00  0.00    -0.240 NA
ATOM     12  C   UNL     1       1.506  -3.336   4.575  0.00  0.00    +0.152 C 
ATOM     13  C   UNL     1       0.431  -3.338   3.561  0.00  0.00    +0.274 C 
ATOM     14  O   UNL     1       0.702  -3.393   2.377  0.00  0.00    -0.268 OA
ENDROOT
BRANCH   1  20
ATOM     15  C   UNL     1      -4.218  -5.739   1.361  0.00  0.00    +0.044 C 
ATOM     16  C   UNL     1      -3.534  -4.451   1.739  0.00  0.00    -0.046 A 
ATOM     17  C   UNL     1      -3.927  -3.262   1.151  0.00  0.00    +0.004 A 
ATOM     18  C   UNL     1      -3.302  -2.077   1.495  0.00  0.00    +0.002 A 
ATOM     19  C   UNL     1      -2.283  -2.078   2.428  0.00  0.00    +0.024 A 
ATOM     20  C   UNL     1      -1.886  -3.270   3.020  0.00  0.00    +0.043 A 
ATOM     21  C   UNL     1      -2.520  -4.457   2.676  0.00  0.00    -0.026 A 
ATOM     22  C   UNL     1      -2.097  -5.753   3.320  0.00  0.00    +0.046 C 
ENDBRANCH   1  20
BRANCH   2  23
ATOM     23  S   UNL     1      -2.148  -1.713   5.670  0.00  0.00    -0.106 S 
BRANCH  23  24
ATOM     24  C   UNL     1      -1.014  -0.365   5.235  0.00  0.00    +0.168 C 
BRANCH  24  25
ATOM     25  C   UNL     1      -1.715   0.957   5.409  0.00  0.00    +0.227 C 
ATOM     26  O   UNL     1      -2.867   0.987   5.788  0.00  0.00    -0.275 OA
ATOM     27  N   UNL     1      -1.063   2.106   5.143  0.00  0.00    -0.284 N 
ATOM     28  H   UNL     1      -0.156   2.081   4.801  0.00  0.00    +0.155 HD
BRANCH  27  29
ATOM     29  C   UNL     1      -1.695   3.336   5.359  0.00  0.00    +0.039 A 
ATOM     30  C   UNL     1      -2.896   3.622   4.722  0.00  0.00    -0.029 A 
ATOM     31  C   UNL     1      -3.517   4.837   4.937  0.00  0.00    +0.008 A 
ATOM     32  C   UNL     1      -2.945   5.767   5.786  0.00  0.00    -0.050 A 
ATOM     33  C   UNL     1      -1.750   5.485   6.421  0.00  0.00    +0.008 A 
ATOM     34  C   UNL     1      -1.127   4.269   6.215  0.00  0.00    -0.029 A 
ATOM     35  C   UNL     1       0.172   3.960   6.913  0.00  0.00    +0.045 C 
ATOM     36  C   UNL     1      -3.626   7.091   6.018  0.00  0.00    +0.044 C 
ATOM     37  C   UNL     1      -3.519   2.610   3.796  0.00  0.00    +0.045 C 
ENDBRANCH  27  29
ENDBRANCH  24  25
ENDBRANCH  23  24
ENDBRANCH   2  23
TORSDOF 5
