REMARK  Name = ZINC39767928
REMARK  8 active torsions:
REMARK  status: ('A' for Active; 'I' for Inactive)
REMARK    1  A    between atoms: C_1  and  C_2
REMARK    2  A    between atoms: C_8  and  C_10
REMARK    3  A    between atoms: C_10  and  C_12
REMARK    4  A    between atoms: C_10  and  S_13
REMARK    5  A    between atoms: S_13  and  C_14
REMARK    6  A    between atoms: C_17  and  C_25
REMARK    7  A    between atoms: N_18  and  C_19
REMARK    8  A    between atoms: C_26  and  C_34
REMARK                            x       y       z     vdW  Elec       q    Type
REMARK                         _______ _______ _______ _____ _____    ______ ____
ROOT
ATOM      1  C   UNL     1       0.917  -7.682   4.122  0.00  0.00    +0.197 A 
ATOM      2  N   UNL     1       0.516  -7.291   5.312  0.00  0.00    -0.122 NA
ATOM      3  N   UNL     1       0.723  -8.219   6.177  0.00  0.00    -0.125 NA
ATOM      4  C   UNL     1       1.271  -9.263   5.594  0.00  0.00    +0.205 A 
ATOM      5  N   UNL     1       1.407  -8.952   4.256  0.00  0.00    -0.268 N 
ENDROOT
BRANCH   4   6
ATOM      6  C   UNL     1       1.660 -10.524   6.243  0.00  0.00    +0.176 A 
ATOM      7  C   UNL     1       1.503 -10.804   7.562  0.00  0.00    +0.006 A 
ATOM      8  C   UNL     1       2.024 -12.159   7.754  0.00  0.00    +0.024 A 
ATOM      9  C   UNL     1       2.147 -13.007   8.856  0.00  0.00    +0.012 A 
ATOM     10  C   UNL     1       2.695 -14.250   8.697  0.00  0.00    +0.001 A 
ATOM     11  C   UNL     1       3.129 -14.671   7.448  0.00  0.00    +0.004 A 
ATOM     12  C   UNL     1       3.016 -13.847   6.348  0.00  0.00    +0.047 A 
ATOM     13  C   UNL     1       2.462 -12.581   6.486  0.00  0.00    +0.136 A 
ATOM     14  O   UNL     1       2.221 -11.578   5.617  0.00  0.00    -0.451 OA
ATOM     15  C   UNL     1       0.911  -9.904   8.616  0.00  0.00    +0.048 C 
ENDBRANCH   4   6
BRANCH   5  16
ATOM     16  C   UNL     1       1.940  -9.766   3.247  0.00  0.00    +0.051 A 
ATOM     17  C   UNL     1       1.291 -10.939   2.885  0.00  0.00    +0.026 A 
ATOM     18  C   UNL     1       1.817 -11.739   1.889  0.00  0.00    +0.002 A 
ATOM     19  C   UNL     1       2.990 -11.373   1.255  0.00  0.00    +0.000 A 
ATOM     20  C   UNL     1       3.639 -10.206   1.614  0.00  0.00    +0.002 A 
ATOM     21  C   UNL     1       3.114  -9.398   2.603  0.00  0.00    +0.026 A 
ENDBRANCH   5  16
BRANCH   1  22
ATOM     22  S   UNL     1       0.832  -6.746   2.632  0.00  0.00    -0.073 S 
BRANCH  22  23
ATOM     23  C   UNL     1       0.089  -5.172   3.144  0.00  0.00    +0.137 C 
ATOM     24  C   UNL     1      -1.342  -5.416   3.626  0.00  0.00    +0.029 C 
BRANCH  23  32
ATOM     25  C   UNL     1      -0.018   1.503   0.010  0.00  0.00    +0.066 C 
ATOM     26  C   UNL     1       0.002  -0.004   0.002  0.00  0.00    +0.047 A 
ATOM     27  C   UNL     1       0.006  -0.706  -1.158  0.00  0.00    +0.071 A 
ATOM     28  S   UNL     1       0.032  -2.379  -0.535  0.00  0.00    -0.060 S 
ATOM     29  C   UNL     1       0.036  -2.015   1.108  0.00  0.00    +0.165 A 
ATOM     30  N   UNL     1       0.023  -0.700   1.124  0.00  0.00    -0.230 NA
ATOM     31  N   UNL     1       0.053  -2.891   2.187  0.00  0.00    -0.264 N 
ATOM     32  C   UNL     1       0.071  -4.222   1.974  0.00  0.00    +0.232 C 
ATOM     33  O   UNL     1       0.071  -4.655   0.841  0.00  0.00    -0.274 OA
ATOM     34  H   UNL     1       0.053  -2.545   3.093  0.00  0.00    +0.157 HD
ENDBRANCH  23  32
ENDBRANCH  22  23
ENDBRANCH   1  22
TORSDOF 5
