REMARK  Name = ZINC22507300
REMARK  12 active torsions:
REMARK  status: ('A' for Active; 'I' for Inactive)
REMARK    1  A    between atoms: C_1  and  C_2
REMARK    2  A    between atoms: C_2  and  C_25
REMARK    3  A    between atoms: N_3  and  N_4
REMARK    4  A    between atoms: N_4  and  C_5
REMARK    5  A    between atoms: C_9  and  C_12
REMARK    6  A    between atoms: C_12  and  C_13
REMARK    7  A    between atoms: N_15  and  C_16
REMARK    8  A    between atoms: C_20  and  N_22
REMARK    9  A    between atoms: C_25  and  C_26
REMARK   10  A    between atoms: C_26  and  C_27
REMARK   11  A    between atoms: C_26  and  C_28
REMARK   12  A    between atoms: C_26  and  C_29
REMARK                            x       y       z     vdW  Elec       q    Type
REMARK                         _______ _______ _______ _____ _____    ______ ____
ROOT
ATOM      1  C   UNL     1      -0.037  -1.302   3.735  0.00  0.00    +0.191 C 
ATOM      2  N   UNL     1      -0.210  -2.570   4.085  0.00  0.00    -0.155 NA
ATOM      3  C   UNL     1      -0.286  -2.993   5.317  0.00  0.00    +0.252 C 
ATOM      4  O   UNL     1      -0.445  -4.166   5.593  0.00  0.00    -0.272 OA
ATOM      5  C   UNL     1      -0.163  -1.913   6.385  0.00  0.00    +0.150 C 
ATOM      6  S   UNL     1       0.056  -0.441   5.299  0.00  0.00    -0.076 S 
ENDROOT
BRANCH   1   7
ATOM      7  N   UNL     1       0.054  -0.778   2.478  0.00  0.00    -0.094 NA
BRANCH   7  10
ATOM      8  C   UNL     1       0.247   0.354  -0.005  0.00  0.00    +0.062 C 
ATOM      9  C   UNL     1       0.042  -1.127   0.181  0.00  0.00    +0.036 C 
ATOM     10  N   UNL     1      -0.043  -1.618   1.360  0.00  0.00    -0.167 NA
BRANCH   9  11
ATOM     11  C   UNL     1      -0.062  -2.030  -1.020  0.00  0.00    +0.059 C 
BRANCH  11  12
ATOM     12  C   UNL     1       1.308  -2.641  -1.321  0.00  0.00    -0.027 C 
ATOM     13  C   UNL     1       2.341  -1.523  -1.478  0.00  0.00    +0.011 C 
ATOM     14  C   UNL     1       1.721  -3.558  -0.168  0.00  0.00    +0.011 C 
BRANCH  12  15
ATOM     15  C   UNL     1       1.233  -3.452  -2.616  0.00  0.00    -0.005 C 
ATOM     16  C   UNL     1       0.200  -4.570  -2.458  0.00  0.00    +0.004 C 
ATOM     17  C   UNL     1       0.125  -5.381  -3.753  0.00  0.00    +0.000 C 
ATOM     18  C   UNL     1       1.495  -5.991  -4.053  0.00  0.00    +0.000 C 
ATOM     19  C   UNL     1       2.528  -4.873  -4.211  0.00  0.00    +0.000 C 
ATOM     20  C   UNL     1       2.603  -4.062  -2.916  0.00  0.00    +0.004 C 
ENDBRANCH  12  15
ENDBRANCH  11  12
ENDBRANCH   9  11
ENDBRANCH   7  10
ENDBRANCH   1   7
BRANCH   5  21
ATOM     21  C   UNL     1      -1.437  -1.810   7.226  0.00  0.00    +0.120 C 
BRANCH  21  22
ATOM     22  C   UNL     1      -1.224  -0.821   8.342  0.00  0.00    +0.219 C 
ATOM     23  O   UNL     1      -0.158  -0.253   8.454  0.00  0.00    -0.275 OA
ATOM     24  N   UNL     1      -2.219  -0.566   9.216  0.00  0.00    -0.285 N 
ATOM     25  H   UNL     1      -3.044  -1.073   9.172  0.00  0.00    +0.155 HD
BRANCH  24  26
ATOM     26  C   UNL     1      -2.059   0.430  10.186  0.00  0.00    +0.036 A 
ATOM     27  C   UNL     1      -2.644   0.282  11.437  0.00  0.00    +0.023 A 
ATOM     28  C   UNL     1      -2.485   1.267  12.392  0.00  0.00    +0.004 A 
ATOM     29  C   UNL     1      -1.745   2.399  12.104  0.00  0.00    +0.033 A 
ATOM     30  C   UNL     1      -1.163   2.549  10.859  0.00  0.00    +0.128 A 
ATOM     31  C   UNL     1      -1.312   1.565   9.901  0.00  0.00    +0.056 A 
BRANCH  30  32
ATOM     32  N   UNL     1      -0.372   3.763  10.554  0.00  0.00    +0.056 N 
ATOM     33  O   UNL     1      -0.236   4.623  11.394  0.00  0.00    -0.126 OA
ATOM     34  O   UNL     1       0.138   3.895   9.466  0.00  0.00    -0.126 OA
ENDBRANCH  30  32
ENDBRANCH  24  26
ENDBRANCH  21  22
ENDBRANCH   5  21
TORSDOF 9
