REMARK  Name = ZINC34788077
REMARK  5 active torsions:
REMARK  status: ('A' for Active; 'I' for Inactive)
REMARK    1  A    between atoms: C_1  and  C_2
REMARK    2  A    between atoms: C_7  and  C_8
REMARK    3  A    between atoms: N_17  and  C_18
REMARK    4  A    between atoms: C_18  and  C_19
REMARK    5  A    between atoms: C_28  and  C_30
REMARK                            x       y       z     vdW  Elec       q    Type
REMARK                         _______ _______ _______ _____ _____    ______ ____
ROOT
ATOM      1  C   UNL     1      -1.741  -2.401   5.088  0.00  0.00    +0.199 C 
ATOM      2  O   UNL     1      -0.841  -2.742   5.827  0.00  0.00    -0.278 OA
ATOM      3  N   UNL     1      -2.920  -3.053   5.118  0.00  0.00    -0.301 N 
ATOM      4  C   UNL     1      -3.146  -4.139   6.005  0.00  0.00    +0.109 C 
ATOM      5  C   UNL     1      -2.636  -5.523   5.485  0.00  0.00    +0.038 C 
ATOM      6  C   UNL     1      -2.919  -5.573   3.948  0.00  0.00    +0.109 C 
ATOM      7  N   UNL     1      -4.145  -4.975   3.551  0.00  0.00    -0.299 N 
ATOM      8  C   UNL     1      -4.089  -3.568   3.078  0.00  0.00    +0.126 C 
ATOM      9  C   UNL     1      -4.044  -2.663   4.228  0.00  0.00    +0.126 C 
ATOM     10  C   UNL     1      -5.308  -5.654   3.602  0.00  0.00    +0.222 C 
ATOM     11  O   UNL     1      -5.342  -6.762   4.095  0.00  0.00    -0.275 OA
ENDROOT
BRANCH  10  12
ATOM     12  C   UNL     1      -6.566  -5.038   3.046  0.00  0.00    +0.048 C 
ATOM     13  C   UNL     1      -6.384  -4.767   1.551  0.00  0.00    +0.019 C 
ATOM     14  C   UNL     1      -7.661  -4.141   0.987  0.00  0.00    -0.009 C 
ATOM     15  C   UNL     1      -8.834  -5.102   1.192  0.00  0.00    +0.007 C 
ATOM     16  C   UNL     1      -9.016  -5.373   2.687  0.00  0.00    -0.009 C 
ATOM     17  C   UNL     1      -7.739  -5.999   3.251  0.00  0.00    +0.019 C 
ATOM     18  C   UNL     1      -9.302  -4.056   3.412  0.00  0.00    +0.007 C 
ATOM     19  C   UNL     1      -8.129  -3.095   3.207  0.00  0.00    -0.009 C 
ATOM     20  C   UNL     1      -7.947  -2.825   1.712  0.00  0.00    +0.007 C 
ATOM     21  C   UNL     1      -6.852  -3.721   3.771  0.00  0.00    +0.019 C 
ENDBRANCH  10  12
BRANCH   1  22
ATOM     22  C   UNL     1      -1.540  -1.249   4.138  0.00  0.00    +0.020 C 
BRANCH  22  31
ATOM     23  C   UNL     1       0.048   0.329   3.290  0.00  0.00    -0.005 C 
ATOM     24  C   UNL     1       1.420   0.951   3.528  0.00  0.00    -0.047 A 
ATOM     25  C   UNL     1       2.126   1.672   2.569  0.00  0.00    +0.010 A 
ATOM     26  C   UNL     1       3.342   2.188   2.868  0.00  0.00    +0.045 A 
ATOM     27  S   UNL     1       3.555   1.668   4.565  0.00  0.00    -0.101 S 
ATOM     28  C   UNL     1       2.018   0.810   4.745  0.00  0.00    -0.010 A 
ATOM     29  C   UNL     1       1.461   0.089   5.928  0.00  0.00    +0.024 C 
ATOM     30  C   UNL     1      -0.031  -0.167   5.655  0.00  0.00    -0.072 C 
ATOM     31  N   UNL     1      -0.182  -0.713   4.298  0.00  0.00    +0.393 N 
ATOM     32  H   UNL     1       0.486  -1.457   4.165  0.00  0.00    -0.080 HD
BRANCH  23  39
ATOM     33  C   UNL     1      -0.542   1.980   0.994  0.00  0.00    +0.044 C 
ATOM     34  C   UNL     1      -0.279   0.507   0.815  0.00  0.00    -0.049 A 
ATOM     35  C   UNL     1      -0.315  -0.052  -0.449  0.00  0.00    +0.003 A 
ATOM     36  C   UNL     1      -0.074  -1.403  -0.613  0.00  0.00    +0.000 A 
ATOM     37  C   UNL     1       0.203  -2.195   0.486  0.00  0.00    +0.000 A 
ATOM     38  C   UNL     1       0.240  -1.635   1.749  0.00  0.00    +0.002 A 
ATOM     39  C   UNL     1       0.003  -0.283   1.913  0.00  0.00    -0.054 A 
ENDBRANCH  23  39
ENDBRANCH  22  31
ENDBRANCH   1  22
TORSDOF 4
