REMARK  Name = ZINC35674425
REMARK  12 active torsions:
REMARK  status: ('A' for Active; 'I' for Inactive)
REMARK    1  A    between atoms: C_1  and  C_2
REMARK    2  A    between atoms: C_2  and  C_3
REMARK    3  A    between atoms: C_3  and  C_5
REMARK    4  A    between atoms: C_3  and  N_28
REMARK    5  A    between atoms: C_9  and  O_26
REMARK    6  A    between atoms: C_10  and  O_24
REMARK    7  A    between atoms: N_15  and  C_16
REMARK    8  A    between atoms: C_16  and  C_17
REMARK    9  A    between atoms: C_22  and  C_23
REMARK   10  A    between atoms: O_24  and  C_25
REMARK   11  A    between atoms: O_26  and  C_27
REMARK   12  A    between atoms: C_29  and  C_31
REMARK                            x       y       z     vdW  Elec       q    Type
REMARK                         _______ _______ _______ _____ _____    ______ ____
ROOT
ATOM      1  C   UNL     1       1.308  -2.782  -0.837  0.00  0.00    -0.016 C 
ATOM      2  C   UNL     1       2.087  -3.639  -1.801  0.00  0.00    -0.052 A 
ATOM      3  C   UNL     1       3.255  -3.126  -2.347  0.00  0.00    +0.051 A 
ATOM      4  C   UNL     1       4.002  -3.879  -3.234  0.00  0.00    +0.162 A 
ATOM      5  C   UNL     1       3.579  -5.160  -3.580  0.00  0.00    +0.162 A 
ATOM      6  C   UNL     1       2.414  -5.667  -3.034  0.00  0.00    +0.053 A 
ATOM      7  C   UNL     1       1.668  -4.906  -2.146  0.00  0.00    -0.044 A 
ATOM      8  C   UNL     1       0.400  -5.495  -1.580  0.00  0.00    +0.017 C 
ATOM      9  C   UNL     1      -0.042  -4.694  -0.355  0.00  0.00    -0.073 C 
ATOM     10  N   UNL     1      -0.068  -3.268  -0.712  0.00  0.00    +0.388 N 
ATOM     11  H   UNL     1      -0.550  -3.149  -1.591  0.00  0.00    -0.080 HD
ENDROOT
BRANCH   5  12
ATOM     12  O   UNL     1       4.308  -5.908  -4.450  0.00  0.00    -0.491 OA
ATOM     13  C   UNL     1       3.812  -7.213  -4.757  0.00  0.00    +0.277 C 
ENDBRANCH   5  12
BRANCH   4  14
ATOM     14  O   UNL     1       5.146  -3.371  -3.766  0.00  0.00    -0.491 OA
ATOM     15  C   UNL     1       5.462  -2.014  -3.450  0.00  0.00    +0.277 C 
ENDBRANCH   4  14
BRANCH   1  16
ATOM     16  C   UNL     1       1.290  -1.339  -1.347  0.00  0.00    +0.064 C 
BRANCH  16  17
ATOM     17  N   UNL     1       0.721  -0.466  -0.318  0.00  0.00    -0.309 N 
ATOM     18  C   UNL     1       1.426  -0.189   0.797  0.00  0.00    +0.251 C 
ATOM     19  O   UNL     1       2.570  -0.589   0.908  0.00  0.00    -0.270 OA
ATOM     20  H   UNL     1      -0.164  -0.086  -0.439  0.00  0.00    +0.149 HD
BRANCH  18  21
ATOM     21  C   UNL     1       0.815   0.593   1.876  0.00  0.00    +0.074 A 
ATOM     22  C   UNL     1       1.388   1.064   3.047  0.00  0.00    +0.021 A 
ATOM     23  C   UNL     1       0.555   1.776   3.876  0.00  0.00    +0.008 A 
ATOM     24  C   UNL     1      -0.736   1.967   3.506  0.00  0.00    +0.046 A 
ATOM     25  S   UNL     1      -0.858   1.194   2.020  0.00  0.00    -0.092 S 
ENDBRANCH  18  21
ENDBRANCH  16  17
BRANCH  16  27
ATOM     26  C   UNL     1       0.513   0.159  -3.189  0.00  0.00    +0.005 C 
ATOM     27  C   UNL     1       0.437  -1.257  -2.614  0.00  0.00    +0.017 C 
ENDBRANCH  16  27
ENDBRANCH   1  16
BRANCH  10  28
ATOM     28  C   UNL     1      -0.763  -2.512   0.338  0.00  0.00    -0.042 C 
BRANCH  28  29
ATOM     29  C   UNL     1      -2.172  -3.028   0.480  0.00  0.00    -0.061 A 
ATOM     30  C   UNL     1      -2.491  -3.894   1.510  0.00  0.00    +0.002 A 
ATOM     31  C   UNL     1      -3.783  -4.367   1.639  0.00  0.00    +0.000 A 
ATOM     32  C   UNL     1      -4.757  -3.974   0.740  0.00  0.00    +0.000 A 
ATOM     33  C   UNL     1      -4.438  -3.107  -0.288  0.00  0.00    +0.003 A 
ATOM     34  C   UNL     1      -3.147  -2.631  -0.416  0.00  0.00    -0.049 A 
ATOM     35  C   UNL     1      -2.801  -1.682  -1.534  0.00  0.00    +0.044 C 
ENDBRANCH  28  29
ENDBRANCH  10  28
TORSDOF 8
