REMARK  Name = ZINC28182728
REMARK  9 active torsions:
REMARK  status: ('A' for Active; 'I' for Inactive)
REMARK    1  A    between atoms: C_1  and  C_2
REMARK    2  A    between atoms: C_2  and  N_3
REMARK    3  A    between atoms: C_5  and  C_14
REMARK    4  A    between atoms: C_10  and  O_12
REMARK    5  A    between atoms: O_12  and  C_13
REMARK    6  A    between atoms: C_21  and  O_25
REMARK    7  A    between atoms: O_25  and  C_26
REMARK    8  A    between atoms: C_26  and  C_27
REMARK    9  A    between atoms: C_27  and  C_29
REMARK                            x       y       z     vdW  Elec       q    Type
REMARK                         _______ _______ _______ _____ _____    ______ ____
ROOT
ATOM      1  C   UNL     1       3.433  10.114   0.041  0.00  0.00    +0.060 C 
ATOM      2  C   UNL     1       2.548   9.078   0.039  0.00  0.00    +0.176 C 
ATOM      3  C   UNL     1       1.133   9.195   0.047  0.00  0.00    +0.231 C 
ATOM      4  O   UNL     1       0.474  10.222   0.055  0.00  0.00    -0.283 OA
ATOM      5  C   UNL     1       0.631   7.809   0.042  0.00  0.00    +0.068 A 
ATOM      6  C   UNL     1      -0.647   7.251   0.044  0.00  0.00    +0.019 A 
ATOM      7  C   UNL     1      -0.796   5.893   0.038  0.00  0.00    +0.046 A 
ATOM      8  C   UNL     1       0.324   5.065   0.028  0.00  0.00    +0.124 A 
ATOM      9  C   UNL     1       1.599   5.606   0.031  0.00  0.00    +0.092 A 
ATOM     10  C   UNL     1       1.767   6.984   0.032  0.00  0.00    +0.143 A 
ATOM     11  O   UNL     1       2.870   7.762   0.031  0.00  0.00    -0.451 OA
ENDROOT
BRANCH   1  14
ATOM     12  N   UNL     1       6.828   8.775   0.019  0.00  0.00    -0.346 N 
ATOM     13  C   UNL     1       5.482   8.613   0.030  0.00  0.00    +0.094 A 
ATOM     14  C   UNL     1       4.870   9.848   0.033  0.00  0.00    +0.004 A 
ATOM     15  C   UNL     1       5.955  10.848   0.033  0.00  0.00    +0.011 A 
ATOM     16  C   UNL     1       7.154  10.118   0.024  0.00  0.00    +0.050 A 
ATOM     17  C   UNL     1       8.368  10.798   0.022  0.00  0.00    +0.030 A 
ATOM     18  C   UNL     1       8.386  12.175   0.029  0.00  0.00    +0.047 A 
ATOM     19  C   UNL     1       7.199  12.899   0.038  0.00  0.00    +0.121 A 
ATOM     20  C   UNL     1       5.983  12.240   0.041  0.00  0.00    +0.056 A 
BRANCH  12  22
ATOM     21  C   UNL     1       8.241   7.375   1.441  0.00  0.00    +0.027 C 
ATOM     22  C   UNL     1       7.801   7.680   0.008  0.00  0.00    +0.118 C 
ENDBRANCH  12  22
BRANCH  19  23
ATOM     23  O   UNL     1       7.233  14.259   0.045  0.00  0.00    -0.495 OA
ATOM     24  C   UNL     1       8.522  14.875   0.042  0.00  0.00    +0.277 C 
ENDBRANCH  19  23
ENDBRANCH   1  14
BRANCH   8  25
ATOM     25  O   UNL     1       0.164   3.717   0.021  0.00  0.00    -0.488 OA
BRANCH  25  26
ATOM     26  C   UNL     1      -1.176   3.222   0.025  0.00  0.00    +0.259 C 
BRANCH  26  27
ATOM     27  C   UNL     1      -1.156   1.715   0.017  0.00  0.00    -0.043 C 
ATOM     28  C   UNL     1      -0.013   1.076   0.008  0.00  0.00    +0.011 C 
ATOM     29  C   UNL     1      -2.451   0.944   0.019  0.00  0.00    +0.042 C 
ENDBRANCH  26  27
ENDBRANCH  25  26
ENDBRANCH   8  25
TORSDOF 6
