REMARK  Name = ZINC13563530
REMARK  3 active torsions:
REMARK  status: ('A' for Active; 'I' for Inactive)
REMARK    1  A    between atoms: C_10  and  C_15
REMARK    2  A    between atoms: C_19  and  C_21
REMARK    3  A    between atoms: C_21  and  N_51
REMARK                            x       y       z     vdW  Elec       q    Type
REMARK                         _______ _______ _______ _____ _____    ______ ____
ROOT
ATOM      1  C   UNL     1      -0.340   3.949   8.129  0.00  0.00    +0.002 A 
ATOM      2  C   UNL     1      -1.498   4.705   8.139  0.00  0.00    +0.001 A 
ATOM      3  C   UNL     1      -2.138   5.002   6.951  0.00  0.00    +0.017 A 
ATOM      4  C   UNL     1      -1.621   4.544   5.747  0.00  0.00    +0.035 A 
ATOM      5  C   UNL     1      -0.453   3.788   5.732  0.00  0.00    +0.055 A 
ATOM      6  C   UNL     1       0.181   3.492   6.934  0.00  0.00    +0.025 A 
ATOM      7  N   UNL     1       0.108   3.322   4.543  0.00  0.00    -0.240 N 
ATOM      8  C   UNL     1      -0.597   3.114   3.358  0.00  0.00    +0.055 A 
ATOM      9  C   UNL     1      -0.093   2.211   2.427  0.00  0.00    +0.037 A 
ATOM     10  C   UNL     1      -0.763   1.987   1.240  0.00  0.00    +0.057 A 
ATOM     11  C   UNL     1      -1.938   2.661   0.966  0.00  0.00    +0.013 A 
ATOM     12  C   UNL     1      -2.452   3.555   1.886  0.00  0.00    +0.017 A 
ATOM     13  C   UNL     1      -1.784   3.786   3.082  0.00  0.00    +0.035 A 
ATOM     14  S   UNL     1      -2.453   4.929   4.243  0.00  0.00    -0.086 S 
ATOM     15  C   UNL     1       1.428   3.053   4.540  0.00  0.00    +0.208 C 
ATOM     16  O   UNL     1       1.935   2.514   3.578  0.00  0.00    -0.277 OA
ENDROOT
BRANCH  10  17
ATOM     17  C   UNL     1      -0.207   1.007   0.239  0.00  0.00    +0.417 C 
ATOM     18  F   UNL     1      -0.721  -0.268   0.499  0.00  0.00    -0.166 F 
ATOM     19  F   UNL     1       1.188   0.978   0.339  0.00  0.00    -0.166 F 
ATOM     20  F   UNL     1      -0.574   1.402  -1.052  0.00  0.00    -0.166 F 
ENDBRANCH  10  17
BRANCH  15  21
ATOM     21  C   UNL     1       2.276   3.421   5.730  0.00  0.00    +0.020 C 
BRANCH  21  32
ATOM     22  C   UNL     1       4.381   2.561   4.880  0.00  0.00    -0.059 C 
ATOM     23  C   UNL     1       4.924   1.972   6.200  0.00  0.00    -0.016 C 
ATOM     24  C   UNL     1       4.953   3.159   7.185  0.00  0.00    -0.015 C 
ATOM     25  C   UNL     1       4.419   4.362   6.379  0.00  0.00    -0.050 C 
ATOM     26  C   UNL     1       5.606   5.125   5.789  0.00  0.00    +0.089 C 
ATOM     27  N   UNL     1       6.779   4.253   5.731  0.00  0.00    -0.317 N 
ATOM     28  C   UNL     1       6.778   3.202   4.871  0.00  0.00    +0.211 C 
ATOM     29  O   UNL     1       7.736   2.462   4.801  0.00  0.00    -0.276 OA
ATOM     30  C   UNL     1       5.567   2.970   4.007  0.00  0.00    +0.080 C 
ATOM     31  H   UNL     1       7.547   4.423   6.298  0.00  0.00    +0.149 HD
ATOM     32  N   UNL     1       3.659   3.766   5.285  0.00  0.00    +0.390 N 
ATOM     33  H   UNL     1       3.605   4.423   4.498  0.00  0.00    -0.080 HD
ENDBRANCH  21  32
ENDBRANCH  15  21
TORSDOF 3
