REMARK  Name = ZINC41012449
REMARK  11 active torsions:
REMARK  status: ('A' for Active; 'I' for Inactive)
REMARK    1  A    between atoms: C_1  and  C_2
REMARK    2  A    between atoms: C_2  and  C_3
REMARK    3  A    between atoms: C_6  and  C_9
REMARK    4  A    between atoms: C_12  and  N_18
REMARK    5  A    between atoms: C_13  and  C_14
REMARK    6  A    between atoms: C_14  and  O_16
REMARK    7  A    between atoms: O_16  and  C_17
REMARK    8  A    between atoms: C_19  and  C_21
REMARK    9  A    between atoms: C_22  and  C_23
REMARK   10  A    between atoms: C_26  and  O_30
REMARK   11  A    between atoms: O_30  and  C_31
REMARK                            x       y       z     vdW  Elec       q    Type
REMARK                         _______ _______ _______ _____ _____    ______ ____
ROOT
ATOM      1  C   UNL     1       2.787  -1.912   4.667  0.00  0.00    +0.005 A 
ATOM      2  C   UNL     1       3.644  -2.965   4.620  0.00  0.00    +0.056 A 
ATOM      3  S   UNL     1       4.202  -3.113   6.303  0.00  0.00    -0.080 S 
ATOM      4  C   UNL     1       3.349  -1.857   7.014  0.00  0.00    +0.087 A 
ATOM      5  C   UNL     1       2.626  -1.297   5.973  0.00  0.00    +0.095 A 
ENDROOT
BRANCH   1   9
ATOM      6  C   UNL     1       0.731  -0.503   1.223  0.00  0.00    -0.048 A 
ATOM      7  C   UNL     1       2.098  -0.709   1.173  0.00  0.00    +0.004 A 
ATOM      8  C   UNL     1       2.771  -1.166   2.288  0.00  0.00    +0.009 A 
ATOM      9  C   UNL     1       2.070  -1.421   3.466  0.00  0.00    -0.017 A 
ATOM     10  C   UNL     1       0.692  -1.212   3.510  0.00  0.00    +0.009 A 
ATOM     11  C   UNL     1       0.031  -0.749   2.391  0.00  0.00    +0.004 A 
BRANCH   6  13
ATOM     12  C   UNL     1      -0.019   1.526   0.010  0.00  0.00    +0.009 C 
ATOM     13  C   UNL     1       0.002  -0.004   0.002  0.00  0.00    +0.032 C 
ENDBRANCH   6  13
ENDBRANCH   1   9
BRANCH   4  14
ATOM     14  N   UNL     1       3.368  -1.464   8.341  0.00  0.00    -0.276 N 
ATOM     15  C   UNL     1       4.141  -2.121   9.228  0.00  0.00    +0.241 C 
ATOM     16  O   UNL     1       4.823  -3.061   8.862  0.00  0.00    -0.270 OA
ATOM     17  H   UNL     1       2.825  -0.715   8.633  0.00  0.00    +0.156 HD
BRANCH  15  18
ATOM     18  C   UNL     1       4.161  -1.706  10.629  0.00  0.00    +0.068 C 
ATOM     19  C   UNL     1       4.935  -2.365  11.518  0.00  0.00    +0.013 C 
BRANCH  19  20
ATOM     20  C   UNL     1       4.955  -1.948  12.927  0.00  0.00    -0.024 A 
ATOM     21  C   UNL     1       4.168  -0.871  13.352  0.00  0.00    +0.011 A 
ATOM     22  C   UNL     1       4.190  -0.484  14.673  0.00  0.00    +0.047 A 
ATOM     23  C   UNL     1       4.991  -1.160  15.585  0.00  0.00    +0.134 A 
ATOM     24  C   UNL     1       5.776  -2.231  15.169  0.00  0.00    +0.060 A 
ATOM     25  C   UNL     1       5.757  -2.629  13.850  0.00  0.00    +0.026 A 
ATOM     26 BR   UNL     1       6.863  -3.146  16.416  0.00  0.00    -0.047 Br
BRANCH  23  27
ATOM     27  O   UNL     1       5.009  -0.774  16.886  0.00  0.00    -0.494 OA
ATOM     28  C   UNL     1       4.181   0.333  17.246  0.00  0.00    +0.277 C 
ENDBRANCH  23  27
ENDBRANCH  19  20
ENDBRANCH  15  18
ENDBRANCH   4  14
BRANCH   5  29
ATOM     29  C   UNL     1       1.742  -0.150   6.179  0.00  0.00    +0.342 C 
ATOM     30  O   UNL     1       0.575  -0.327   6.474  0.00  0.00    -0.245 OA
BRANCH  29  31
ATOM     31  O   UNL     1       2.221   1.104   6.042  0.00  0.00    -0.464 OA
ATOM     32  C   UNL     1       1.302   2.176   6.258  0.00  0.00    +0.280 C 
ENDBRANCH  29  31
ENDBRANCH   5  29
TORSDOF 8
