REMARK  Name = ZINC21168172
REMARK  9 active torsions:
REMARK  status: ('A' for Active; 'I' for Inactive)
REMARK    1  A    between atoms: C_1  and  C_2
REMARK    2  A    between atoms: C_2  and  C_4
REMARK    3  A    between atoms: C_2  and  N_12
REMARK    4  A    between atoms: C_9  and  O_10
REMARK    5  A    between atoms: O_10  and  C_11
REMARK    6  A    between atoms: C_13  and  C_15
REMARK    7  A    between atoms: C_15  and  O_16
REMARK    8  A    between atoms: O_16  and  C_17
REMARK    9  A    between atoms: C_17  and  C_19
REMARK                            x       y       z     vdW  Elec       q    Type
REMARK                         _______ _______ _______ _____ _____    ______ ____
ROOT
ATOM      1  C   UNL     1       6.272   1.683   1.088  0.00  0.00    +0.341 C 
ATOM      2  O   UNL     1       6.175   2.890   1.185  0.00  0.00    -0.245 OA
ENDROOT
BRANCH   1   3
ATOM      3  C   UNL     1       5.079   0.829   1.265  0.00  0.00    +0.078 A 
ATOM      4  C   UNL     1       5.191  -0.558   1.154  0.00  0.00    +0.017 A 
ATOM      5  C   UNL     1       4.080  -1.363   1.317  0.00  0.00    +0.013 A 
ATOM      6  C   UNL     1       2.839  -0.795   1.594  0.00  0.00    +0.035 A 
ATOM      7  C   UNL     1       2.716   0.602   1.708  0.00  0.00    +0.052 A 
ATOM      8  C   UNL     1       3.838   1.411   1.542  0.00  0.00    +0.066 A 
ATOM      9 CL   UNL     1       3.696   3.135   1.679  0.00  0.00    -0.082 Cl
ATOM     10  C   UNL     1       1.402   1.207   2.002  0.00  0.00    +0.196 C 
ATOM     11  O   UNL     1       1.296   2.414   2.100  0.00  0.00    -0.287 OA
ATOM     12  C   UNL     1       0.214   0.345   2.177  0.00  0.00    +0.033 A 
ATOM     13  C   UNL     1      -1.026   0.908   2.461  0.00  0.00    +0.012 A 
ATOM     14  C   UNL     1      -2.134   0.093   2.618  0.00  0.00    +0.001 A 
ATOM     15  C   UNL     1      -2.015  -1.280   2.507  0.00  0.00    +0.001 A 
ATOM     16  C   UNL     1      -0.788  -1.857   2.230  0.00  0.00    +0.012 A 
ATOM     17  C   UNL     1       0.336  -1.052   2.064  0.00  0.00    +0.033 A 
ATOM     18  C   UNL     1       1.650  -1.659   1.769  0.00  0.00    +0.195 C 
ATOM     19  O   UNL     1       1.754  -2.865   1.670  0.00  0.00    -0.287 OA
ENDBRANCH   1   3
BRANCH   1  20
ATOM     20  O   UNL     1       7.468   1.123   0.821  0.00  0.00    -0.452 OA
BRANCH  20  21
ATOM     21  C   UNL     1       8.596   2.022   0.660  0.00  0.00    +0.328 C 
BRANCH  21  23
ATOM     22  N   UNL     1      11.016   1.851   0.180  0.00  0.00    -0.306 N 
ATOM     23  C   UNL     1       9.839   1.222   0.367  0.00  0.00    +0.251 C 
ATOM     24  O   UNL     1       9.780   0.013   0.301  0.00  0.00    -0.272 OA
ATOM     25  H   UNL     1      11.070   2.948   0.240  0.00  0.00    +0.149 HD
BRANCH  22  27
ATOM     26  C   UNL     1      12.335   0.835  -1.612  0.00  0.00    +0.033 C 
ATOM     27  C   UNL     1      12.225   1.073  -0.104  0.00  0.00    +0.104 C 
BRANCH  27  28
ATOM     28  C   UNL     1      13.435   1.832   0.374  0.00  0.00    +0.014 A 
ATOM     29  C   UNL     1      13.402   3.212   0.445  0.00  0.00    +0.009 A 
ATOM     30  C   UNL     1      14.511   3.909   0.888  0.00  0.00    +0.001 A 
ATOM     31  C   UNL     1      15.658   3.228   1.253  0.00  0.00    +0.004 A 
ATOM     32  C   UNL     1      15.698   1.849   1.179  0.00  0.00    +0.046 A 
ATOM     33  C   UNL     1      14.585   1.147   0.739  0.00  0.00    +0.125 A 
BRANCH  33  34
ATOM     34  O   UNL     1      14.621  -0.209   0.665  0.00  0.00    -0.495 OA
ATOM     35  C   UNL     1      15.838  -0.848   1.056  0.00  0.00    +0.277 C 
ENDBRANCH  33  34
ENDBRANCH  27  28
ENDBRANCH  22  27
ENDBRANCH  21  23
ENDBRANCH  20  21
ENDBRANCH   1  20
TORSDOF 7
