REMARK  Name = ZINC09298505
REMARK  7 active torsions:
REMARK  status: ('A' for Active; 'I' for Inactive)
REMARK    1  A    between atoms: C_1  and  C_2
REMARK    2  A    between atoms: C_2  and  O_3
REMARK    3  A    between atoms: O_3  and  C_4
REMARK    4  A    between atoms: C_7  and  C_9
REMARK    5  A    between atoms: C_13  and  N_14
REMARK    6  A    between atoms: C_15  and  C_17
REMARK    7  A    between atoms: C_17  and  C_18
REMARK                            x       y       z     vdW  Elec       q    Type
REMARK                         _______ _______ _______ _____ _____    ______ ____
ROOT
ATOM      1  C   UNL     1      -5.697   5.771  -3.326  0.00  0.00    +0.069 A 
ATOM      2  C   UNL     1      -5.844   6.000  -4.758  0.00  0.00    -0.023 A 
ATOM      3  C   UNL     1      -4.829   5.531  -5.516  0.00  0.00    -0.004 A 
ATOM      4  S   UNL     1      -3.691   4.814  -4.362  0.00  0.00    -0.077 S 
ATOM      5  C   UNL     1      -4.550   5.126  -2.891  0.00  0.00    +0.084 A 
ATOM      6  C   UNL     1      -4.699   5.588  -7.006  0.00  0.00    +0.043 C 
ATOM      7  C   UNL     1      -4.991   7.016  -7.486  0.00  0.00    +0.005 C 
ATOM      8  C   UNL     1      -6.487   7.136  -7.760  0.00  0.00    +0.001 C 
ATOM      9  C   UNL     1      -7.271   6.253  -6.790  0.00  0.00    +0.005 C 
ATOM     10  C   UNL     1      -7.050   6.715  -5.354  0.00  0.00    +0.037 C 
ENDROOT
BRANCH   1  14
ATOM     11  C   UNL     1      -8.681   5.790  -1.179  0.00  0.00    +0.407 C 
ATOM     12  O   UNL     1      -8.621   6.901  -0.691  0.00  0.00    -0.226 OA
ATOM     13  N   UNL     1      -7.736   5.385  -2.050  0.00  0.00    -0.217 N 
ATOM     14  C   UNL     1      -6.724   6.212  -2.380  0.00  0.00    +0.255 C 
ATOM     15  O   UNL     1      -6.664   7.325  -1.891  0.00  0.00    -0.270 OA
ATOM     16  H   UNL     1      -7.784   4.498  -2.439  0.00  0.00    +0.161 HD
BRANCH  11  17
ATOM     17  O   UNL     1      -9.691   4.964  -0.849  0.00  0.00    -0.450 OA
BRANCH  17  19
ATOM     18  C   UNL     1     -11.736   4.396   0.345  0.00  0.00    +0.048 C 
ATOM     19  C   UNL     1     -10.673   5.467   0.095  0.00  0.00    +0.230 C 
ENDBRANCH  17  19
ENDBRANCH  11  17
ENDBRANCH   1  14
BRANCH   5  20
ATOM     20  N   UNL     1      -4.182   4.803  -1.594  0.00  0.00    -0.279 N 
ATOM     21  C   UNL     1      -3.019   4.162  -1.363  0.00  0.00    +0.222 C 
ATOM     22  O   UNL     1      -2.294   3.869  -2.289  0.00  0.00    -0.275 OA
ATOM     23  H   UNL     1      -4.762   5.037  -0.853  0.00  0.00    +0.155 HD
BRANCH  21  24
ATOM     24  C   UNL     1      -2.620   3.811   0.048  0.00  0.00    +0.131 C 
BRANCH  24  25
ATOM     25  C   UNL     1      -1.288   3.106   0.032  0.00  0.00    -0.031 A 
ATOM     26  C   UNL     1      -1.234   1.746   0.017  0.00  0.00    +0.005 A 
ATOM     27  C   UNL     1      -0.013   1.076   0.008  0.00  0.00    +0.001 A 
ATOM     28  C   UNL     1       1.163   1.762   0.000  0.00  0.00    +0.008 A 
ATOM     29  C   UNL     1       1.147   3.167   0.008  0.00  0.00    -0.018 A 
ATOM     30  C   UNL     1      -0.095   3.848   0.024  0.00  0.00    -0.014 A 
ATOM     31  C   UNL     1      -0.111   5.254   0.031  0.00  0.00    +0.009 A 
ATOM     32  C   UNL     1       1.064   5.940   0.023  0.00  0.00    +0.001 A 
ATOM     33  C   UNL     1       2.287   5.270   0.008  0.00  0.00    +0.001 A 
ATOM     34  C   UNL     1       2.340   3.910   0.000  0.00  0.00    +0.008 A 
ENDBRANCH  24  25
ENDBRANCH  21  24
ENDBRANCH   5  20
TORSDOF 6
