REMARK  Name = ZINC13216242
REMARK  10 active torsions:
REMARK  status: ('A' for Active; 'I' for Inactive)
REMARK    1  A    between atoms: C_1  and  C_2
REMARK    2  A    between atoms: C_5  and  C_35
REMARK    3  A    between atoms: C_7  and  N_8
REMARK    4  A    between atoms: C_9  and  C_23
REMARK    5  A    between atoms: C_11  and  C_16
REMARK    6  A    between atoms: C_16  and  C_18
REMARK    7  A    between atoms: C_25  and  C_34
REMARK    8  A    between atoms: C_26  and  O_30
REMARK    9  A    between atoms: C_27  and  C_29
REMARK   10  A    between atoms: O_30  and  C_31
REMARK                            x       y       z     vdW  Elec       q    Type
REMARK                         _______ _______ _______ _____ _____    ______ ____
ROOT
ATOM      1  N   UNL     1      -0.149  -0.115   2.272  0.00  0.00    -0.253 N 
ATOM      2  C   UNL     1      -1.159   0.203   3.289  0.00  0.00    +0.150 C 
ATOM      3  C   UNL     1      -0.434   0.958   4.380  0.00  0.00    +0.080 C 
ATOM      4  C   UNL     1       0.861   1.048   3.997  0.00  0.00    +0.250 C 
ATOM      5  C   UNL     1       1.030   0.377   2.693  0.00  0.00    +0.292 C 
ATOM      6  O   UNL     1       2.080   0.284   2.088  0.00  0.00    -0.266 OA
ATOM      7  O   UNL     1       1.846   1.653   4.701  0.00  0.00    -0.282 OA
ENDROOT
BRANCH   2   8
ATOM      8  C   UNL     1      -1.754  -1.065   3.843  0.00  0.00    -0.021 A 
ATOM      9  C   UNL     1      -0.929  -2.115   4.204  0.00  0.00    +0.012 A 
ATOM     10  C   UNL     1      -1.472  -3.279   4.712  0.00  0.00    -0.008 A 
ATOM     11  C   UNL     1      -2.847  -3.395   4.859  0.00  0.00    +0.133 A 
ATOM     12  C   UNL     1      -3.673  -2.341   4.496  0.00  0.00    -0.008 A 
ATOM     13  C   UNL     1      -3.124  -1.177   3.994  0.00  0.00    +0.012 A 
ATOM     14  C   UNL     1      -5.166  -2.463   4.654  0.00  0.00    +0.047 C 
ATOM     15  C   UNL     1      -0.573  -4.422   5.104  0.00  0.00    +0.047 C 
BRANCH  11  16
ATOM     16  O   UNL     1      -3.384  -4.540   5.357  0.00  0.00    -0.434 OA
BRANCH  16  17
ATOM     17  C   UNL     1      -3.554  -4.613   6.774  0.00  0.00    +0.541 C 
ATOM     18  F   UNL     1      -2.311  -4.477   7.401  0.00  0.00    -0.166 F 
ATOM     19  F   UNL     1      -4.404  -3.585   7.196  0.00  0.00    -0.166 F 
ENDBRANCH  16  17
ENDBRANCH  11  16
ENDBRANCH   2   8
BRANCH   1  26
ATOM     20  C   UNL     1      -0.847   1.384  -0.039  0.00  0.00    +0.045 C 
ATOM     21  C   UNL     1      -0.716  -0.117  -0.075  0.00  0.00    -0.029 A 
ATOM     22  C   UNL     1      -0.932  -0.799  -1.258  0.00  0.00    +0.006 A 
ATOM     23  C   UNL     1      -0.814  -2.172  -1.300  0.00  0.00    +0.015 A 
ATOM     24  C   UNL     1      -0.475  -2.880  -0.143  0.00  0.00    +0.065 A 
ATOM     25  C   UNL     1      -0.257  -2.191   1.051  0.00  0.00    +0.039 A 
ATOM     26  C   UNL     1      -0.372  -0.810   1.080  0.00  0.00    +0.041 A 
BRANCH  24  27
ATOM     27  C   UNL     1      -0.348  -4.349  -0.184  0.00  0.00    +0.387 C 
ATOM     28  O   UNL     1      -0.540  -4.951  -1.232  0.00  0.00    -0.241 OA
ATOM     29  O   UNL     1      -0.051  -4.966   0.829  0.00  0.00    -0.241 OA
ENDBRANCH  24  27
ENDBRANCH   1  26
BRANCH   3  30
ATOM     30  C   UNL     1      -1.021   1.490   5.614  0.00  0.00    +0.230 C 
ATOM     31  O   UNL     1      -0.671   1.049   6.695  0.00  0.00    -0.283 OA
BRANCH  30  32
ATOM     32  C   UNL     1      -2.028   2.554   5.548  0.00  0.00    +0.175 A 
ATOM     33  C   UNL     1      -2.594   3.204   6.623  0.00  0.00    +0.053 A 
ATOM     34  C   UNL     1      -3.498   4.136   6.095  0.00  0.00    +0.042 A 
ATOM     35  C   UNL     1      -3.450   4.021   4.748  0.00  0.00    +0.196 A 
ATOM     36  O   UNL     1      -2.562   3.074   4.423  0.00  0.00    -0.460 OA
ENDBRANCH  30  32
ENDBRANCH   3  30
TORSDOF 7
