REMARK  Name = ZINC02203283
REMARK  10 active torsions:
REMARK  status: ('A' for Active; 'I' for Inactive)
REMARK    1  A    between atoms: C_1  and  C_2
REMARK    2  A    between atoms: C_2  and  O_3
REMARK    3  A    between atoms: O_3  and  C_4
REMARK    4  A    between atoms: C_6  and  C_19
REMARK    5  A    between atoms: C_9  and  O_10
REMARK    6  A    between atoms: O_10  and  C_11
REMARK    7  A    between atoms: C_11  and  C_12
REMARK    8  A    between atoms: C_20  and  C_21
REMARK    9  A    between atoms: C_22  and  C_35
REMARK   10  A    between atoms: C_22  and  C_36
REMARK                            x       y       z     vdW  Elec       q    Type
REMARK                         _______ _______ _______ _____ _____    ______ ____
ROOT
ATOM      1  C   UNL     1      -0.202  -4.959  -0.507  0.00  0.00    +0.007 C 
ATOM      2  C   UNL     1      -0.094  -6.273  -0.361  0.00  0.00    +0.020 C 
ENDROOT
BRANCH   2   3
ATOM      3  C   UNL     1      -0.682  -7.197  -1.395  0.00  0.00    +0.130 C 
ATOM      4  C   UNL     1      -1.788  -8.062  -0.774  0.00  0.00    +0.034 C 
ATOM      5  C   UNL     1      -3.054  -7.538  -1.391  0.00  0.00    -0.017 A 
ATOM      6  C   UNL     1      -4.367  -7.888  -1.130  0.00  0.00    +0.006 A 
ATOM      7  C   UNL     1      -5.354  -7.224  -1.848  0.00  0.00    +0.000 A 
ATOM      8  C   UNL     1      -5.039  -6.258  -2.780  0.00  0.00    +0.002 A 
ATOM      9  C   UNL     1      -3.728  -5.905  -3.053  0.00  0.00    +0.023 A 
ATOM     10  C   UNL     1      -2.721  -6.568  -2.342  0.00  0.00    +0.035 A 
ATOM     11  N   UNL     1      -1.356  -6.424  -2.456  0.00  0.00    -0.304 N 
ATOM     12  C   UNL     1      -0.589  -5.700  -3.483  0.00  0.00    +0.117 C 
ATOM     13  C   UNL     1       0.271  -6.745  -4.207  0.00  0.00    +0.115 C 
ATOM     14  C   UNL     1       0.824  -7.753  -3.247  0.00  0.00    +0.216 C 
ATOM     15  O   UNL     1       1.785  -8.394  -3.614  0.00  0.00    -0.276 OA
ATOM     16  N   UNL     1       0.367  -7.994  -2.021  0.00  0.00    -0.290 N 
ATOM     17  C   UNL     1      -1.585  -9.534  -1.138  0.00  0.00    +0.020 C 
ATOM     18  C   UNL     1      -1.819  -7.883   0.745  0.00  0.00    +0.020 C 
ATOM     19  H   UNL     1       0.733  -8.748  -1.534  0.00  0.00    +0.151 HD
ENDBRANCH   2   3
BRANCH   1  22
ATOM     20  C   UNL     1       0.802  -1.825   1.306  0.00  0.00    +0.162 A 
ATOM     21  C   UNL     1       0.261  -2.670   0.354  0.00  0.00    +0.057 A 
ATOM     22  C   UNL     1       0.374  -4.052   0.507  0.00  0.00    -0.022 A 
ATOM     23  C   UNL     1       1.033  -4.577   1.620  0.00  0.00    +0.012 A 
ATOM     24  C   UNL     1       1.571  -3.729   2.566  0.00  0.00    +0.050 A 
ATOM     25  C   UNL     1       1.463  -2.355   2.411  0.00  0.00    +0.162 A 
BRANCH  20  26
ATOM     26  O   UNL     1       0.693  -0.477   1.160  0.00  0.00    -0.489 OA
BRANCH  26  28
ATOM     27  C   UNL     1      -0.019   1.526   0.010  0.00  0.00    +0.048 C 
ATOM     28  C   UNL     1       0.002  -0.004   0.002  0.00  0.00    +0.226 C 
ENDBRANCH  26  28
ENDBRANCH  20  26
BRANCH  25  29
ATOM     29  O   UNL     1       2.000  -1.523   3.344  0.00  0.00    -0.484 OA
BRANCH  29  30
ATOM     30  C   UNL     1       2.664  -2.133   4.452  0.00  0.00    +0.264 C 
BRANCH  30  31
ATOM     31  C   UNL     1       3.190  -1.063   5.373  0.00  0.00    -0.010 A 
ATOM     32  C   UNL     1       4.460  -0.551   5.184  0.00  0.00    +0.008 A 
ATOM     33  C   UNL     1       4.943   0.430   6.029  0.00  0.00    +0.020 A 
ATOM     34  C   UNL     1       4.155   0.900   7.064  0.00  0.00    +0.041 A 
ATOM     35  C   UNL     1       2.884   0.388   7.254  0.00  0.00    +0.020 A 
ATOM     36  C   UNL     1       2.400  -0.590   6.404  0.00  0.00    +0.008 A 
ATOM     37 CL   UNL     1       4.761   2.132   8.127  0.00  0.00    -0.084 Cl
ENDBRANCH  30  31
ENDBRANCH  29  30
ENDBRANCH  25  29
ENDBRANCH   1  22
TORSDOF 7
