REMARK  Name = ZINC09284888
REMARK  12 active torsions:
REMARK  status: ('A' for Active; 'I' for Inactive)
REMARK    1  A    between atoms: C_1  and  C_2
REMARK    2  A    between atoms: C_2  and  O_3
REMARK    3  A    between atoms: O_3  and  C_4
REMARK    4  A    between atoms: C_4  and  C_6
REMARK    5  A    between atoms: C_7  and  N_17
REMARK    6  A    between atoms: C_9  and  C_11
REMARK    7  A    between atoms: C_18  and  C_20
REMARK    8  A    between atoms: C_20  and  O_21
REMARK    9  A    between atoms: O_21  and  C_22
REMARK   10  A    between atoms: C_22  and  C_24
REMARK   11  A    between atoms: N_29  and  C_31
REMARK   12  A    between atoms: C_31  and  C_32
REMARK                            x       y       z     vdW  Elec       q    Type
REMARK                         _______ _______ _______ _____ _____    ______ ____
ROOT
ATOM      1  N   UNL     1       0.002  -0.004   0.002  0.00  0.00    -0.282 N 
ATOM      2  C   UNL     1      -0.015   1.343   0.020  0.00  0.00    +0.255 C 
ATOM      3  O   UNL     1       1.027   1.963   0.012  0.00  0.00    -0.272 OA
ATOM      4  H   UNL     1      -0.828  -0.501   0.073  0.00  0.00    +0.155 HD
ENDROOT
BRANCH   1   6
ATOM      5  C   UNL     1       1.291  -1.891  -0.817  0.00  0.00    +0.118 A 
ATOM      6  C   UNL     1       1.214  -0.685  -0.118  0.00  0.00    +0.055 A 
ATOM      7  C   UNL     1       2.360  -0.188   0.452  0.00  0.00    +0.040 A 
ATOM      8  C   UNL     1       3.538  -0.897   0.306  0.00  0.00    +0.022 A 
ATOM      9  S   UNL     1       3.021  -2.305  -0.662  0.00  0.00    -0.080 S 
BRANCH   8  10
ATOM     10  C   UNL     1       4.885  -0.573   0.821  0.00  0.00    -0.011 A 
ATOM     11  C   UNL     1       5.090   0.592   1.563  0.00  0.00    +0.009 A 
ATOM     12  C   UNL     1       6.348   0.887   2.045  0.00  0.00    +0.001 A 
ATOM     13  C   UNL     1       7.409   0.037   1.786  0.00  0.00    +0.000 A 
ATOM     14  C   UNL     1       7.213  -1.117   1.047  0.00  0.00    +0.001 A 
ATOM     15  C   UNL     1       5.959  -1.426   0.564  0.00  0.00    +0.009 A 
ENDBRANCH   8  10
BRANCH   5  16
ATOM     16  C   UNL     1       0.263  -2.601  -1.479  0.00  0.00    +0.348 C 
ATOM     17  O   UNL     1      -0.872  -2.163  -1.485  0.00  0.00    -0.244 OA
BRANCH  16  18
ATOM     18  O   UNL     1       0.542  -3.764  -2.105  0.00  0.00    -0.461 OA
BRANCH  18  20
ATOM     19  C   UNL     1      -0.039  -5.719  -3.402  0.00  0.00    +0.048 C 
ATOM     20  C   UNL     1      -0.544  -4.428  -2.754  0.00  0.00    +0.229 C 
ENDBRANCH  18  20
ENDBRANCH  16  18
ENDBRANCH   5  16
ENDBRANCH   1   6
BRANCH   2  21
ATOM     21  C   UNL     1      -1.330   2.080   0.044  0.00  0.00    +0.328 C 
BRANCH  21  22
ATOM     22  O   UNL     1      -1.083   3.511   0.060  0.00  0.00    -0.455 OA
BRANCH  22  23
ATOM     23  C   UNL     1      -2.158   4.314   0.083  0.00  0.00    +0.313 C 
ATOM     24  O   UNL     1      -3.268   3.838   0.088  0.00  0.00    -0.250 OA
BRANCH  23  25
ATOM     25  C   UNL     1      -1.979   5.811   0.101  0.00  0.00    +0.124 C 
ATOM     26  C   UNL     1      -1.242   6.295  -1.169  0.00  0.00    +0.112 C 
ATOM     27  C   UNL     1      -1.907   7.613  -1.504  0.00  0.00    +0.217 C 
ATOM     28  O   UNL     1      -1.452   8.450  -2.254  0.00  0.00    -0.276 OA
ATOM     29  N   UNL     1      -3.076   7.721  -0.848  0.00  0.00    -0.293 N 
ATOM     30  C   UNL     1      -3.340   6.531  -0.030  0.00  0.00    +0.123 C 
BRANCH  29  31
ATOM     31  C   UNL     1      -3.971   8.876  -0.940  0.00  0.00    +0.182 C 
BRANCH  31  32
ATOM     32  C   UNL     1      -4.949   8.666  -2.067  0.00  0.00    +0.122 A 
ATOM     33  C   UNL     1      -6.152   8.074  -1.964  0.00  0.00    +0.046 A 
ATOM     34  C   UNL     1      -6.729   8.091  -3.255  0.00  0.00    +0.041 A 
ATOM     35  C   UNL     1      -5.843   8.691  -4.070  0.00  0.00    +0.195 A 
ATOM     36  O   UNL     1      -4.769   9.043  -3.344  0.00  0.00    -0.466 OA
ENDBRANCH  31  32
ENDBRANCH  29  31
ENDBRANCH  23  25
ENDBRANCH  22  23
ENDBRANCH  21  22
ENDBRANCH   2  21
TORSDOF 11
