REMARK  Name = ZINC21233652
REMARK  11 active torsions:
REMARK  status: ('A' for Active; 'I' for Inactive)
REMARK    1  A    between atoms: C_1  and  C_2
REMARK    2  A    between atoms: C_2  and  C_3
REMARK    3  A    between atoms: C_3  and  O_4
REMARK    4  A    between atoms: O_4  and  C_5
REMARK    5  A    between atoms: C_8  and  C_11
REMARK    6  A    between atoms: C_16  and  C_22
REMARK    7  A    between atoms: C_26  and  O_31
REMARK    8  A    between atoms: C_27  and  O_28
REMARK    9  A    between atoms: O_28  and  C_29
REMARK   10  A    between atoms: C_29  and  C_30
REMARK   11  A    between atoms: O_31  and  C_32
REMARK                            x       y       z     vdW  Elec       q    Type
REMARK                         _______ _______ _______ _____ _____    ______ ____
ROOT
ATOM      1  C   UNL     1      -0.817   5.855  -0.736  0.00  0.00    +0.032 C 
ATOM      2  C   UNL     1      -1.589   5.054   0.316  0.00  0.00    +0.059 C 
ATOM      3  C   UNL     1      -1.305   3.583   0.141  0.00  0.00    +0.018 C 
ATOM      4  C   UNL     1      -1.029   3.072  -1.077  0.00  0.00    +0.020 C 
ATOM      5  C   UNL     1      -0.755   1.594  -1.229  0.00  0.00    +0.066 C 
ATOM      6  C   UNL     1      -0.013   1.086   0.008  0.00  0.00    +0.109 C 
ATOM      7  C   UNL     1      -0.721   1.573   1.246  0.00  0.00    +0.218 C 
ATOM      8  O   UNL     1      -0.740   0.883   2.243  0.00  0.00    -0.275 OA
ATOM      9  N   UNL     1      -1.333   2.771   1.246  0.00  0.00    -0.289 N 
ATOM     10  C   UNL     1      -0.989   3.887  -2.221  0.00  0.00    +0.162 C 
ATOM     11  O   UNL     1      -0.749   3.388  -3.303  0.00  0.00    -0.292 OA
ATOM     12  C   UNL     1      -1.237   5.369  -2.126  0.00  0.00    +0.088 C 
ATOM     13  H   UNL     1      -1.862   3.095   2.154  0.00  0.00    +0.155 HD
ENDROOT
BRANCH   1  17
ATOM     14  C   UNL     1      -1.734  10.010  -0.333  0.00  0.00    +0.121 A 
ATOM     15  C   UNL     1      -0.423   9.572  -0.209  0.00  0.00    +0.046 A 
ATOM     16  C   UNL     1      -0.129   8.229  -0.340  0.00  0.00    +0.007 A 
ATOM     17  C   UNL     1      -1.140   7.320  -0.593  0.00  0.00    -0.043 A 
ATOM     18  C   UNL     1      -2.447   7.754  -0.722  0.00  0.00    +0.007 A 
ATOM     19  C   UNL     1      -2.746   9.096  -0.586  0.00  0.00    +0.046 A 
BRANCH  14  20
ATOM     20  O   UNL     1      -2.025  11.331  -0.205  0.00  0.00    -0.492 OA
BRANCH  20  21
ATOM     21  C   UNL     1      -3.396  11.709  -0.344  0.00  0.00    +0.229 C 
BRANCH  21  23
ATOM     22  C   UNL     1      -4.995  13.629  -0.319  0.00  0.00    +0.007 C 
ATOM     23  C   UNL     1      -3.527  13.224  -0.170  0.00  0.00    +0.038 C 
ENDBRANCH  21  23
ENDBRANCH  20  21
ENDBRANCH  14  20
ENDBRANCH   1  17
BRANCH   5  24
ATOM     24  C   UNL     1      -2.060   0.853  -1.372  0.00  0.00    +0.006 A 
ATOM     25  C   UNL     1      -3.003   0.912  -0.363  0.00  0.00    +0.008 A 
ATOM     26  C   UNL     1      -4.202   0.238  -0.493  0.00  0.00    +0.004 A 
ATOM     27  C   UNL     1      -4.460  -0.508  -1.629  0.00  0.00    +0.049 A 
ATOM     28  C   UNL     1      -3.517  -0.576  -2.641  0.00  0.00    +0.162 A 
ATOM     29  C   UNL     1      -2.311   0.107  -2.512  0.00  0.00    +0.166 A 
BRANCH  28  30
ATOM     30  O   UNL     1      -3.769  -1.309  -3.759  0.00  0.00    -0.491 OA
ATOM     31  C   UNL     1      -5.027  -1.984  -3.822  0.00  0.00    +0.277 C 
ENDBRANCH  28  30
BRANCH  29  32
ATOM     32  O   UNL     1      -1.382   0.044  -3.503  0.00  0.00    -0.488 OA
BRANCH  32  33
ATOM     33  C   UNL     1      -0.419  -1.008  -3.423  0.00  0.00    +0.226 C 
ATOM     34  C   UNL     1       0.535  -0.918  -4.616  0.00  0.00    +0.048 C 
ENDBRANCH  32  33
ENDBRANCH  29  32
ENDBRANCH   5  24
TORSDOF 8
