REMARK  Name = ZINC01865271
REMARK  7 active torsions:
REMARK  status: ('A' for Active; 'I' for Inactive)
REMARK    1  A    between atoms: C_7  and  N_15
REMARK    2  A    between atoms: C_16  and  C_18
REMARK    3  A    between atoms: C_18  and  C_19
REMARK    4  A    between atoms: C_19  and  C_20
REMARK    5  A    between atoms: C_20  and  C_21
REMARK    6  A    between atoms: C_21  and  C_22
REMARK    7  A    between atoms: N_24  and  C_25
REMARK                            x       y       z     vdW  Elec       q    Type
REMARK                         _______ _______ _______ _____ _____    ______ ____
ROOT
ATOM      1  C   UNL     1      -0.608  -5.765  -2.857  0.00  0.00    +0.010 C 
ENDROOT
BRANCH   1   2
ATOM      2  C   UNL     1      -0.000  -4.363  -2.938  0.00  0.00    +0.096 C 
BRANCH   2   4
ATOM      3  N   UNL     1       0.881  -2.660  -1.376  0.00  0.00    -0.304 N 
ATOM      4  C   UNL     1       0.332  -3.879  -1.551  0.00  0.00    +0.214 C 
ATOM      5  O   UNL     1       0.104  -4.585  -0.591  0.00  0.00    -0.276 OA
ATOM      6  H   UNL     1       1.063  -2.096  -2.143  0.00  0.00    +0.150 HD
BRANCH   3  13
ATOM      7  C   UNL     1      -0.017   1.377   0.010  0.00  0.00    +0.001 A 
ATOM      8  C   UNL     1       1.171   2.086   0.002  0.00  0.00    +0.004 A 
ATOM      9  C   UNL     1       2.376   1.412  -0.012  0.00  0.00    +0.046 A 
ATOM     10  C   UNL     1       2.398   0.022  -0.021  0.00  0.00    +0.134 A 
ATOM     11  C   UNL     1       1.207  -0.685  -0.015  0.00  0.00    +0.020 A 
ATOM     12  C   UNL     1       0.002  -0.004   0.002  0.00  0.00    +0.009 A 
ATOM     13  C   UNL     1       1.204  -2.189  -0.027  0.00  0.00    +0.141 C 
ATOM     14  C   UNL     1       2.550  -2.725   0.377  0.00  0.00    +0.020 A 
ATOM     15  C   UNL     1       2.662  -4.045   0.776  0.00  0.00    +0.009 A 
ATOM     16  C   UNL     1       3.890  -4.558   1.149  0.00  0.00    +0.001 A 
ATOM     17  C   UNL     1       5.013  -3.751   1.125  0.00  0.00    +0.004 A 
ATOM     18  C   UNL     1       4.907  -2.433   0.729  0.00  0.00    +0.046 A 
ATOM     19  C   UNL     1       3.673  -1.914   0.352  0.00  0.00    +0.134 A 
ATOM     20  O   UNL     1       3.591  -0.620  -0.037  0.00  0.00    -0.455 OA
ENDBRANCH   3  13
ENDBRANCH   2   4
ENDBRANCH   1   2
BRANCH   1  21
ATOM     21  C   UNL     1      -0.945  -6.257  -4.266  0.00  0.00    +0.010 C 
BRANCH  21  22
ATOM     22  C   UNL     1      -1.553  -7.659  -4.185  0.00  0.00    +0.096 C 
BRANCH  22  23
ATOM     23  C   UNL     1      -1.885  -8.144  -5.573  0.00  0.00    +0.214 C 
ATOM     24  O   UNL     1      -1.658  -7.438  -6.532  0.00  0.00    -0.276 OA
ATOM     25  N   UNL     1      -2.434  -9.362  -5.747  0.00  0.00    -0.304 N 
ATOM     26  H   UNL     1      -2.616  -9.927  -4.980  0.00  0.00    +0.150 HD
BRANCH  25  27
ATOM     27  C   UNL     1      -2.757  -9.834  -7.096  0.00  0.00    +0.141 C 
ATOM     28  C   UNL     1      -4.104  -9.300  -7.501  0.00  0.00    +0.020 A 
ATOM     29  C   UNL     1      -4.435  -7.991  -7.196  0.00  0.00    +0.009 A 
ATOM     30  C   UNL     1      -5.668  -7.483  -7.559  0.00  0.00    +0.001 A 
ATOM     31  C   UNL     1      -6.577  -8.283  -8.228  0.00  0.00    +0.004 A 
ATOM     32  C   UNL     1      -6.252  -9.589  -8.534  0.00  0.00    +0.046 A 
ATOM     33  C   UNL     1      -5.012 -10.103  -8.171  0.00  0.00    +0.134 A 
ATOM     34  O   UNL     1      -4.713 -11.388  -8.478  0.00  0.00    -0.455 OA
ATOM     35  C   UNL     1      -3.737 -12.038  -7.799  0.00  0.00    +0.134 A 
ATOM     36  C   UNL     1      -2.760 -11.338  -7.110  0.00  0.00    +0.020 A 
ATOM     37  C   UNL     1      -1.775 -12.025  -6.424  0.00  0.00    +0.009 A 
ATOM     38  C   UNL     1      -1.762 -13.407  -6.424  0.00  0.00    +0.001 A 
ATOM     39  C   UNL     1      -2.735 -14.108  -7.111  0.00  0.00    +0.004 A 
ATOM     40  C   UNL     1      -3.721 -13.428  -7.797  0.00  0.00    +0.046 A 
ENDBRANCH  25  27
ENDBRANCH  22  23
ENDBRANCH  21  22
ENDBRANCH   1  21
TORSDOF 7
