REMARK  Name = ZINC35427029
REMARK  7 active torsions:
REMARK  status: ('A' for Active; 'I' for Inactive)
REMARK    1  A    between atoms: C_1  and  C_2
REMARK    2  A    between atoms: C_2  and  C_3
REMARK    3  A    between atoms: C_2  and  C_4
REMARK    4  A    between atoms: C_4  and  C_5
REMARK    5  A    between atoms: C_5  and  N_6
REMARK    6  A    between atoms: C_21  and  C_23
REMARK    7  A    between atoms: N_31  and  C_34
REMARK                            x       y       z     vdW  Elec       q    Type
REMARK                         _______ _______ _______ _____ _____    ______ ____
ROOT
ATOM      1  N   UNL     1      -2.354  -2.844  -0.165  0.00  0.00    -0.299 N 
ATOM      2  C   UNL     1      -2.768  -4.125  -0.232  0.00  0.00    +0.303 C 
ATOM      3  O   UNL     1      -1.952  -5.025  -0.278  0.00  0.00    -0.253 OA
ATOM      4  N   UNL     1      -4.086  -4.407  -0.249  0.00  0.00    -0.269 N 
ATOM      5  C   UNL     1      -5.105  -3.344  -0.201  0.00  0.00    +0.148 C 
ATOM      6  C   UNL     1      -6.283  -3.620  -1.108  0.00  0.00    +0.004 A 
ATOM      7  C   UNL     1      -6.548  -2.879  -2.274  0.00  0.00    -0.034 A 
ATOM      8  C   UNL     1      -7.653  -3.208  -2.998  0.00  0.00    -0.021 A 
ATOM      9  S   UNL     1      -8.361  -4.561  -2.098  0.00  0.00    -0.077 S 
ATOM     10  C   UNL     1      -7.150  -4.628  -0.814  0.00  0.00    +0.090 A 
ATOM     11  N   UNL     1      -7.011  -5.483   0.272  0.00  0.00    -0.312 N 
ATOM     12  C   UNL     1      -7.905  -5.920   1.189  0.00  0.00    +0.092 A 
ATOM     13  C   UNL     1      -7.244  -6.688   2.085  0.00  0.00    +0.020 A 
ATOM     14  C   UNL     1      -5.890  -6.738   1.686  0.00  0.00    +0.025 A 
ATOM     15  C   UNL     1      -5.776  -6.016   0.562  0.00  0.00    +0.049 A 
ATOM     16  C   UNL     1      -4.580  -5.803  -0.323  0.00  0.00    +0.155 C 
ATOM     17  C   UNL     1      -8.129  -2.555  -4.254  0.00  0.00    -0.036 C 
ATOM     18  N   UNL     1      -7.426  -1.266  -4.401  0.00  0.00    +0.381 N 
ATOM     19  C   UNL     1      -5.983  -1.474  -4.229  0.00  0.00    -0.074 C 
ATOM     20  C   UNL     1      -5.656  -1.738  -2.756  0.00  0.00    +0.018 C 
ATOM     21  C   UNL     1      -7.686  -0.717  -5.739  0.00  0.00    -0.096 C 
ATOM     22  H   UNL     1      -3.005  -2.125  -0.128  0.00  0.00    +0.150 HD
ATOM     23  H   UNL     1      -7.759  -0.620  -3.702  0.00  0.00    -0.082 HD
ENDROOT
BRANCH  16  24
ATOM     24  C   UNL     1      -4.956  -6.116  -1.748  0.00  0.00    -0.021 A 
ATOM     25  C   UNL     1      -4.421  -5.372  -2.783  0.00  0.00    +0.007 A 
ATOM     26  C   UNL     1      -4.765  -5.659  -4.091  0.00  0.00    +0.020 A 
ATOM     27  C   UNL     1      -5.647  -6.690  -4.364  0.00  0.00    +0.041 A 
ATOM     28  C   UNL     1      -6.182  -7.434  -3.327  0.00  0.00    +0.020 A 
ATOM     29  C   UNL     1      -5.832  -7.150  -2.021  0.00  0.00    +0.007 A 
ATOM     30 CL   UNL     1      -6.080  -7.050  -6.006  0.00  0.00    -0.084 Cl
ENDBRANCH  16  24
BRANCH   1  31
ATOM     31  C   UNL     1      -0.922  -2.536  -0.146  0.00  0.00    +0.106 C 
BRANCH  31  32
ATOM     32  C   UNL     1      -0.727  -1.021  -0.067  0.00  0.00    +0.022 C 
BRANCH  32  34
ATOM     33  C   UNL     1       0.966   0.817  -0.094  0.00  0.00    +0.007 C 
ATOM     34  C   UNL     1       0.769  -0.700  -0.048  0.00  0.00    -0.016 C 
ATOM     35  C   UNL     1       1.394  -1.257   1.233  0.00  0.00    +0.007 C 
ENDBRANCH  32  34
ENDBRANCH  31  32
ENDBRANCH   1  31
TORSDOF 4
