REMARK  Name = ZINC09968532
REMARK  13 active torsions:
REMARK  status: ('A' for Active; 'I' for Inactive)
REMARK    1  A    between atoms: C_1  and  C_2
REMARK    2  A    between atoms: C_2  and  C_3
REMARK    3  A    between atoms: C_6  and  N_9
REMARK    4  A    between atoms: C_11  and  C_15
REMARK    5  A    between atoms: C_12  and  C_14
REMARK    6  A    between atoms: C_15  and  C_16
REMARK    7  A    between atoms: C_15  and  C_23
REMARK    8  A    between atoms: C_21  and  O_22
REMARK    9  A    between atoms: C_24  and  C_37
REMARK   10  A    between atoms: N_26  and  C_29
REMARK   11  A    between atoms: C_27  and  O_28
REMARK   12  A    between atoms: C_32  and  C_35
REMARK   13  A    between atoms: C_35  and  C_36
REMARK                            x       y       z     vdW  Elec       q    Type
REMARK                         _______ _______ _______ _____ _____    ______ ____
ROOT
ATOM      1  C   UNL     1       5.545  -2.911  -6.684  0.00  0.00    +0.096 C 
ENDROOT
BRANCH   1   4
ATOM      2  N   UNL     1       2.289  -2.625  -4.973  0.00  0.00    -0.219 N 
ATOM      3  C   UNL     1       3.636  -2.566  -4.948  0.00  0.00    +0.276 A 
ATOM      4  C   UNL     1       4.102  -2.863  -6.250  0.00  0.00    +0.051 A 
ATOM      5  C   UNL     1       3.031  -3.094  -7.035  0.00  0.00    +0.039 A 
ATOM      6  N   UNL     1       1.902  -2.961  -6.277  0.00  0.00    -0.294 N 
ATOM      7  C   UNL     1       3.072  -3.446  -8.500  0.00  0.00    +0.065 C 
ATOM      8  O   UNL     1       4.326  -2.305  -3.979  0.00  0.00    -0.266 OA
ATOM      9  H   UNL     1       0.991  -3.076  -6.589  0.00  0.00    +0.187 HD
BRANCH   2  13
ATOM     10  C   UNL     1      -0.262  -1.949  -1.750  0.00  0.00    -0.047 A 
ATOM     11  C   UNL     1      -0.786  -2.267  -2.990  0.00  0.00    +0.006 A 
ATOM     12  C   UNL     1       0.057  -2.492  -4.061  0.00  0.00    +0.028 A 
ATOM     13  C   UNL     1       1.432  -2.397  -3.891  0.00  0.00    +0.067 A 
ATOM     14  C   UNL     1       1.955  -2.077  -2.645  0.00  0.00    +0.028 A 
ATOM     15  C   UNL     1       1.107  -1.849  -1.580  0.00  0.00    +0.006 A 
BRANCH  10  17
ATOM     16  C   UNL     1      -1.558  -0.222  -0.530  0.00  0.00    +0.009 C 
ATOM     17  C   UNL     1      -1.185  -1.705  -0.584  0.00  0.00    +0.032 C 
ENDBRANCH  10  17
ENDBRANCH   2  13
ENDBRANCH   1   4
BRANCH   1  18
ATOM     18  C   UNL     1       6.133  -1.525  -6.626  0.00  0.00    +0.006 A 
ATOM     19  C   UNL     1       6.299  -0.894  -5.408  0.00  0.00    +0.008 A 
ATOM     20  C   UNL     1       6.838   0.378  -5.354  0.00  0.00    +0.001 A 
ATOM     21  C   UNL     1       7.214   1.022  -6.519  0.00  0.00    +0.004 A 
ATOM     22  C   UNL     1       7.051   0.395  -7.739  0.00  0.00    +0.046 A 
ATOM     23  C   UNL     1       6.514  -0.883  -7.795  0.00  0.00    +0.121 A 
BRANCH  23  24
ATOM     24  O   UNL     1       6.358  -1.504  -8.994  0.00  0.00    -0.506 OA
ATOM     25  H   UNL     1       5.504  -1.337  -9.415  0.00  0.00    +0.292 HD
ENDBRANCH  23  24
ENDBRANCH   1  18
BRANCH   1  26
ATOM     26  C   UNL     1       6.316  -3.823  -5.764  0.00  0.00    +0.049 A 
ATOM     27  C   UNL     1       7.692  -3.774  -5.520  0.00  0.00    +0.068 A 
ATOM     28  N   UNL     1       7.995  -4.720  -4.669  0.00  0.00    -0.168 NA
ATOM     29  N   UNL     1       6.822  -5.409  -4.337  0.00  0.00    -0.200 N 
ATOM     30  C   UNL     1       5.795  -4.835  -5.020  0.00  0.00    +0.220 A 
ATOM     31  C   UNL     1       8.661  -2.797  -6.134  0.00  0.00    +0.068 C 
BRANCH  29  32
ATOM     32  C   UNL     1       6.722  -6.493  -3.454  0.00  0.00    +0.069 A 
ATOM     33  C   UNL     1       5.592  -6.643  -2.662  0.00  0.00    +0.028 A 
ATOM     34  C   UNL     1       5.496  -7.712  -1.793  0.00  0.00    +0.006 A 
ATOM     35  C   UNL     1       6.524  -8.633  -1.712  0.00  0.00    -0.047 A 
ATOM     36  C   UNL     1       7.651  -8.487  -2.500  0.00  0.00    +0.006 A 
ATOM     37  C   UNL     1       7.750  -7.423  -3.375  0.00  0.00    +0.028 A 
BRANCH  35  38
ATOM     38  C   UNL     1       6.417  -9.798  -0.762  0.00  0.00    +0.032 C 
ATOM     39  C   UNL     1       5.758 -10.980  -1.477  0.00  0.00    +0.009 C 
ENDBRANCH  35  38
ENDBRANCH  29  32
BRANCH  30  40
ATOM     40  O   UNL     1       4.491  -5.206  -4.971  0.00  0.00    -0.492 OA
ATOM     41  H   UNL     1       4.229  -5.818  -5.672  0.00  0.00    +0.294 HD
ENDBRANCH  30  40
ENDBRANCH   1  26
TORSDOF 9
