REMARK  Name = ZINC05006884
REMARK  7 active torsions:
REMARK  status: ('A' for Active; 'I' for Inactive)
REMARK    1  A    between atoms: C_1  and  C_2
REMARK    2  A    between atoms: C_8  and  C_23
REMARK    3  A    between atoms: C_10  and  N_12
REMARK    4  A    between atoms: N_12  and  N_13
REMARK    5  A    between atoms: C_14  and  C_15
REMARK    6  A    between atoms: C_18  and  O_22
REMARK    7  A    between atoms: C_20  and  O_21
REMARK                            x       y       z     vdW  Elec       q    Type
REMARK                         _______ _______ _______ _____ _____    ______ ____
ROOT
ATOM      1  N   UNL     1       4.629   4.059  -0.018  0.00  0.00    -0.221 N 
ATOM      2  H   UNL     1       5.495   3.623  -0.028  0.00  0.00    +0.176 HD
ENDROOT
BRANCH   1  12
ATOM      3  C   UNL     1      -2.491   0.968   0.018  0.00  0.00    +0.044 C 
ATOM      4  C   UNL     1      -1.199   1.744   0.017  0.00  0.00    -0.050 A 
ATOM      5  C   UNL     1      -1.235   3.137   0.030  0.00  0.00    +0.005 A 
ATOM      6  C   UNL     1      -0.086   3.868   0.023  0.00  0.00    +0.028 A 
ATOM      7  C   UNL     1       1.157   3.214   0.008  0.00  0.00    +0.073 A 
ATOM      8  C   UNL     1       1.191   1.798   0.000  0.00  0.00    +0.004 A 
ATOM      9  C   UNL     1      -0.013   1.076   0.008  0.00  0.00    +0.013 A 
ATOM     10  C   UNL     1       2.438   1.140  -0.015  0.00  0.00    -0.038 A 
ATOM     11  C   UNL     1       3.569   1.900  -0.021  0.00  0.00    +0.049 A 
ATOM     12  C   UNL     1       3.470   3.299  -0.012  0.00  0.00    +0.139 A 
ATOM     13  N   UNL     1       2.301   3.908   0.002  0.00  0.00    -0.231 NA
ATOM     14  C   UNL     1       2.518  -0.365  -0.024  0.00  0.00    +0.044 C 
ENDBRANCH   1  12
BRANCH   1  15
ATOM     15  N   UNL     1       4.549   5.458  -0.010  0.00  0.00    -0.189 NA
ATOM     16  C   UNL     1       5.635   6.170  -0.016  0.00  0.00    +0.141 C 
BRANCH  16  17
ATOM     17  C   UNL     1       5.551   7.641  -0.007  0.00  0.00    +0.036 A 
ATOM     18  C   UNL     1       6.717   8.411  -0.013  0.00  0.00    +0.016 A 
ATOM     19  C   UNL     1       6.634   9.786  -0.005  0.00  0.00    +0.046 A 
ATOM     20  C   UNL     1       5.393  10.412   0.008  0.00  0.00    +0.120 A 
ATOM     21  C   UNL     1       4.229   9.657   0.014  0.00  0.00    +0.091 A 
ATOM     22  C   UNL     1       4.300   8.275   0.002  0.00  0.00    +0.129 A 
BRANCH  22  23
ATOM     23  O   UNL     1       3.161   7.535   0.002  0.00  0.00    -0.506 OA
ATOM     24  H   UNL     1       2.835   7.316   0.886  0.00  0.00    +0.292 HD
ENDBRANCH  22  23
BRANCH  20  25
ATOM     25  O   UNL     1       5.320  11.768   0.015  0.00  0.00    -0.507 OA
ATOM     26  H   UNL     1       5.291  12.165  -0.866  0.00  0.00    +0.292 HD
ENDBRANCH  20  25
ENDBRANCH  16  17
ENDBRANCH   1  15
TORSDOF 5
