REMARK  Name = ZINC03303925
REMARK  6 active torsions:
REMARK  status: ('A' for Active; 'I' for Inactive)
REMARK    1  A    between atoms: C_1  and  C_2
REMARK    2  A    between atoms: C_15  and  C_17
REMARK    3  A    between atoms: C_17  and  S_18
REMARK    4  A    between atoms: S_18  and  C_19
REMARK    5  A    between atoms: C_22  and  C_30
REMARK    6  A    between atoms: N_23  and  C_24
REMARK                            x       y       z     vdW  Elec       q    Type
REMARK                         _______ _______ _______ _____ _____    ______ ____
ROOT
ATOM      1  S   UNL     1      -4.133   2.164  -0.212  0.00  0.00    -0.078 S 
ENDROOT
BRANCH   1   2
ATOM      2  C   UNL     1      -5.310   0.861  -0.065  0.00  0.00    +0.193 A 
ATOM      3  N   UNL     1      -5.051  -0.428  -0.069  0.00  0.00    -0.122 NA
ATOM      4  N   UNL     1      -6.140  -1.097   0.058  0.00  0.00    -0.128 NA
ATOM      5  C   UNL     1      -7.162  -0.278   0.151  0.00  0.00    +0.168 A 
ATOM      6  N   UNL     1      -6.661   1.001   0.080  0.00  0.00    -0.299 N 
BRANCH   5   7
ATOM      7  C   UNL     1      -8.582  -0.658   0.308  0.00  0.00    +0.054 A 
ATOM      8  C   UNL     1      -9.367  -0.047   1.287  0.00  0.00    +0.014 A 
ATOM      9  C   UNL     1     -10.692  -0.404   1.426  0.00  0.00    +0.001 A 
ATOM     10  C   UNL     1     -11.242  -1.372   0.604  0.00  0.00    +0.003 A 
ATOM     11  C   UNL     1     -10.470  -1.986  -0.365  0.00  0.00    +0.039 A 
ATOM     12  C   UNL     1      -9.142  -1.636  -0.519  0.00  0.00    +0.134 A 
ATOM     13  F   UNL     1      -8.388  -2.236  -1.465  0.00  0.00    -0.205 F 
ENDBRANCH   5   7
BRANCH   6  14
ATOM     14  C   UNL     1      -7.419   2.253   0.144  0.00  0.00    +0.091 C 
ATOM     15  C   UNL     1      -7.203   3.047  -1.146  0.00  0.00    +0.025 C 
ATOM     16  C   UNL     1      -7.995   4.354  -1.079  0.00  0.00    +0.002 C 
ATOM     17  C   UNL     1      -7.513   5.182   0.115  0.00  0.00    +0.000 C 
ATOM     18  C   UNL     1      -7.729   4.388   1.405  0.00  0.00    +0.002 C 
ATOM     19  C   UNL     1      -6.937   3.081   1.338  0.00  0.00    +0.025 C 
ENDBRANCH   6  14
ENDBRANCH   1   2
BRANCH   1  20
ATOM     20  C   UNL     1      -2.610   1.197  -0.356  0.00  0.00    +0.151 C 
BRANCH  20  34
ATOM     21  C   UNL     1       4.479   8.192  -1.173  0.00  0.00    +0.008 C 
ATOM     22  C   UNL     1       3.581   7.024  -0.761  0.00  0.00    -0.009 C 
ATOM     23  C   UNL     1       3.908   5.798  -1.618  0.00  0.00    +0.008 C 
ATOM     24  C   UNL     1       3.201   4.565  -1.052  0.00  0.00    +0.037 C 
ATOM     25  C   UNL     1       1.716   4.880  -0.891  0.00  0.00    -0.023 A 
ATOM     26  C   UNL     1       1.281   6.157  -0.866  0.00  0.00    -0.004 A 
ATOM     27  S   UNL     1      -0.477   6.039  -0.669  0.00  0.00    -0.073 S 
ATOM     28  C   UNL     1      -0.621   4.271  -0.621  0.00  0.00    +0.116 A 
ATOM     29  C   UNL     1       0.705   3.832  -0.759  0.00  0.00    +0.075 A 
ATOM     30  C   UNL     1       0.892   2.410  -0.753  0.00  0.00    +0.260 A 
ATOM     31  O   UNL     1       2.007   1.931  -0.868  0.00  0.00    -0.267 OA
ATOM     32  N   UNL     1      -0.185   1.614  -0.619  0.00  0.00    -0.310 N 
ATOM     33  H   UNL     1      -0.066   0.651  -0.614  0.00  0.00    +0.170 HD
ATOM     34  C   UNL     1      -1.435   2.130  -0.497  0.00  0.00    +0.121 A 
ATOM     35  N   UNL     1      -1.636   3.421  -0.493  0.00  0.00    -0.226 NA
ATOM     36  C   UNL     1       2.109   7.401  -0.980  0.00  0.00    +0.046 C 
ENDBRANCH  20  34
ENDBRANCH   1  20
TORSDOF 5
