REMARK  Name = ZINC59638977
REMARK  9 active torsions:
REMARK  status: ('A' for Active; 'I' for Inactive)
REMARK    1  A    between atoms: C_1  and  C_2
REMARK    2  A    between atoms: C_3  and  C_29
REMARK    3  A    between atoms: C_4  and  C_24
REMARK    4  A    between atoms: C_10  and  C_11
REMARK    5  A    between atoms: C_14  and  O_17
REMARK    6  A    between atoms: O_17  and  C_18
REMARK    7  A    between atoms: C_18  and  C_19
REMARK    8  A    between atoms: C_18  and  C_20
REMARK    9  A    between atoms: N_31  and  C_32
REMARK                            x       y       z     vdW  Elec       q    Type
REMARK                         _______ _______ _______ _____ _____    ______ ____
ROOT
ATOM      1  C   UNL     1      -1.046   0.923   2.953  0.00  0.00    +0.066 C 
ATOM      2  C   UNL     1      -0.598  -0.237   2.101  0.00  0.00    +0.052 C 
ATOM      3  C   UNL     1      -1.522  -1.121   1.621  0.00  0.00    +0.063 C 
ATOM      4  C   UNL     1      -1.032  -2.270   0.770  0.00  0.00    +0.166 C 
ATOM      5  N   UNL     1       0.433  -2.352   0.517  0.00  0.00    -0.274 N 
ATOM      6  C   UNL     1       1.055  -3.291  -0.209  0.00  0.00    +0.268 A 
ATOM      7  O   UNL     1       0.429  -4.190  -0.739  0.00  0.00    -0.266 OA
ATOM      8  C   UNL     1       2.515  -3.202  -0.345  0.00  0.00    +0.081 A 
ATOM      9  C   UNL     1       3.370  -4.016  -1.017  0.00  0.00    +0.028 C 
ATOM     10  S   UNL     1       2.861  -1.734   0.611  0.00  0.00    -0.046 S 
ATOM     11  C   UNL     1       1.188  -1.357   1.095  0.00  0.00    +0.178 A 
ATOM     12  N   UNL     1       0.690  -0.387   1.818  0.00  0.00    -0.228 NA
ENDROOT
BRANCH   9  13
ATOM     13  C   UNL     1       2.845  -5.070  -1.893  0.00  0.00    -0.024 A 
ATOM     14  C   UNL     1       1.699  -4.837  -2.664  0.00  0.00    +0.011 A 
ATOM     15  C   UNL     1       1.210  -5.829  -3.484  0.00  0.00    +0.046 A 
ATOM     16  C   UNL     1       1.852  -7.061  -3.547  0.00  0.00    +0.121 A 
ATOM     17  C   UNL     1       2.989  -7.298  -2.784  0.00  0.00    +0.046 A 
ATOM     18  C   UNL     1       3.490  -6.311  -1.965  0.00  0.00    +0.011 A 
BRANCH  16  19
ATOM     19  O   UNL     1       1.366  -8.036  -4.357  0.00  0.00    -0.489 OA
BRANCH  19  20
ATOM     20  C   UNL     1       0.263  -7.691  -5.197  0.00  0.00    +0.167 C 
ATOM     21  C   UNL     1       0.242  -8.614  -6.417  0.00  0.00    +0.051 C 
ATOM     22  C   UNL     1      -1.043  -7.849  -4.416  0.00  0.00    +0.051 C 
ENDBRANCH  19  20
ENDBRANCH  16  19
ENDBRANCH   9  13
BRANCH   4  23
ATOM     23  C   UNL     1      -1.460  -3.553   1.435  0.00  0.00    +0.017 A 
ATOM     24  C   UNL     1      -1.026  -4.098   2.597  0.00  0.00    +0.013 A 
ATOM     25  C   UNL     1      -1.567  -5.298   3.018  0.00  0.00    +0.008 A 
ATOM     26  C   UNL     1      -2.515  -5.895   2.255  0.00  0.00    +0.045 A 
ATOM     27  S   UNL     1      -2.675  -4.747   0.898  0.00  0.00    -0.099 S 
ENDBRANCH   4  23
BRANCH   3  28
ATOM     28  C   UNL     1      -2.890  -0.966   1.911  0.00  0.00    +0.248 C 
ATOM     29  O   UNL     1      -3.254  -0.103   2.691  0.00  0.00    -0.270 OA
ATOM     30  N   UNL     1      -3.798  -1.774   1.327  0.00  0.00    -0.282 N 
ATOM     31  H   UNL     1      -3.504  -2.517   0.778  0.00  0.00    +0.155 HD
BRANCH  30  32
ATOM     32  C   UNL     1      -5.164  -1.539   1.513  0.00  0.00    +0.034 A 
ATOM     33  C   UNL     1      -5.642  -0.238   1.592  0.00  0.00    +0.023 A 
ATOM     34  C   UNL     1      -6.992  -0.010   1.775  0.00  0.00    +0.002 A 
ATOM     35  C   UNL     1      -7.867  -1.075   1.881  0.00  0.00    +0.000 A 
ATOM     36  C   UNL     1      -7.394  -2.373   1.803  0.00  0.00    +0.002 A 
ATOM     37  C   UNL     1      -6.046  -2.607   1.614  0.00  0.00    +0.023 A 
ENDBRANCH  30  32
ENDBRANCH   3  28
TORSDOF 6
