REMARK  Name = ZINC09115052
REMARK  9 active torsions:
REMARK  status: ('A' for Active; 'I' for Inactive)
REMARK    1  A    between atoms: C_1  and  C_2
REMARK    2  A    between atoms: C_2  and  N_3
REMARK    3  A    between atoms: N_3  and  C_4
REMARK    4  A    between atoms: N_3  and  C_6
REMARK    5  A    between atoms: C_4  and  C_5
REMARK    6  A    between atoms: C_9  and  N_13
REMARK    7  A    between atoms: C_10  and  C_12
REMARK    8  A    between atoms: C_14  and  C_16
REMARK    9  A    between atoms: N_31  and  C_34
REMARK                            x       y       z     vdW  Elec       q    Type
REMARK                         _______ _______ _______ _____ _____    ______ ____
ROOT
ATOM      1  C   UNL     1       0.455   2.734   2.051  0.00  0.00    +0.076 C 
ATOM      2  C   UNL     1       1.772   2.136   1.482  0.00  0.00    -0.003 C 
ATOM      3  C   UNL     1       1.390   1.897   0.002  0.00  0.00    -0.066 C 
ATOM      4  C   UNL     1       2.219   0.726  -0.551  0.00  0.00    -0.017 C 
ATOM      5  C   UNL     1       1.181  -0.366  -0.901  0.00  0.00    -0.020 C 
ATOM      6  C   UNL     1       0.004  -0.028   0.048  0.00  0.00    -0.077 C 
ATOM      7  C   UNL     1      -0.624   1.947   1.290  0.00  0.00    +0.052 C 
ATOM      8  C   UNL     1      -1.154   0.816   2.129  0.00  0.00    -0.027 A 
ATOM      9  C   UNL     1      -0.571  -0.296   2.695  0.00  0.00    +0.004 A 
ATOM     10  C   UNL     1      -1.338  -1.179   3.435  0.00  0.00    +0.000 A 
ATOM     11  C   UNL     1      -2.690  -0.942   3.605  0.00  0.00    +0.002 A 
ATOM     12  C   UNL     1      -3.278   0.170   3.039  0.00  0.00    +0.024 A 
ATOM     13  C   UNL     1      -2.514   1.064   2.292  0.00  0.00    +0.038 A 
ATOM     14  N   UNL     1      -2.873   2.240   1.631  0.00  0.00    -0.275 N 
ATOM     15  C   UNL     1      -1.823   2.818   1.018  0.00  0.00    +0.214 C 
ATOM     16  O   UNL     1      -1.840   3.844   0.370  0.00  0.00    -0.276 OA
ATOM     17  C   UNL     1      -4.234   2.781   1.607  0.00  0.00    +0.138 C 
ATOM     18  N   UNL     1       0.003   1.446   0.049  0.00  0.00    +0.394 N 
ATOM     19  H   UNL     1      -0.512   1.798  -0.766  0.00  0.00    -0.079 HD
ENDROOT
BRANCH   1  21
ATOM     20  N   UNL     1      -0.384   5.011   2.529  0.00  0.00    -0.285 N 
ATOM     21  C   UNL     1       0.359   4.206   1.744  0.00  0.00    +0.220 C 
ATOM     22  O   UNL     1       0.951   4.667   0.791  0.00  0.00    -0.275 OA
ATOM     23  H   UNL     1      -0.810   4.654   3.324  0.00  0.00    +0.155 HD
BRANCH  20  27
ATOM     24  C   UNL     1      -0.851   9.036   1.540  0.00  0.00    +0.030 A 
ATOM     25  C   UNL     1       0.267   8.338   1.100  0.00  0.00    +0.025 A 
ATOM     26  C   UNL     1       0.424   7.007   1.432  0.00  0.00    +0.025 A 
ATOM     27  C   UNL     1      -0.541   6.364   2.197  0.00  0.00    +0.036 A 
ATOM     28  C   UNL     1      -1.657   7.062   2.637  0.00  0.00    -0.028 A 
ATOM     29  C   UNL     1      -1.812   8.394   2.310  0.00  0.00    +0.028 A 
ATOM     30  C   UNL     1      -2.700   6.365   3.473  0.00  0.00    +0.046 C 
BRANCH  24  31
ATOM     31  N   UNL     1      -1.007  10.386   1.208  0.00  0.00    -0.330 N 
BRANCH  31  33
ATOM     32  C   UNL     1      -0.348  10.922  -1.085  0.00  0.00    +0.024 C 
ATOM     33  C   UNL     1       0.007  11.063   0.397  0.00  0.00    +0.102 C 
ENDBRANCH  31  33
BRANCH  31  34
ATOM     34  C   UNL     1      -2.186  11.123   1.673  0.00  0.00    +0.102 C 
ATOM     35  C   UNL     1      -1.888  11.756   3.033  0.00  0.00    +0.024 C 
ENDBRANCH  31  34
ENDBRANCH  24  31
ENDBRANCH  20  27
ENDBRANCH   1  21
TORSDOF 5
