REMARK  Name = ZINC35991856
REMARK  16 active torsions:
REMARK  status: ('A' for Active; 'I' for Inactive)
REMARK    1  A    between atoms: C_1  and  C_2
REMARK    2  A    between atoms: C_2  and  N_3
REMARK    3  A    between atoms: C_4  and  C_26
REMARK    4  A    between atoms: C_5  and  C_21
REMARK    5  A    between atoms: C_6  and  C_11
REMARK    6  A    between atoms: C_14  and  O_19
REMARK    7  A    between atoms: C_15  and  O_17
REMARK    8  A    between atoms: O_17  and  C_18
REMARK    9  A    between atoms: O_19  and  C_20
REMARK   10  A    between atoms: C_21  and  O_23
REMARK   11  A    between atoms: O_23  and  C_24
REMARK   12  A    between atoms: C_24  and  C_25
REMARK   13  A    between atoms: C_26  and  N_27
REMARK   14  A    between atoms: C_33  and  C_35
REMARK   15  A    between atoms: C_35  and  C_36
REMARK   16  A    between atoms: C_35  and  C_37
REMARK                            x       y       z     vdW  Elec       q    Type
REMARK                         _______ _______ _______ _____ _____    ______ ____
ROOT
ATOM      1  N   UNL     1       1.011  -0.647  -1.623  0.00  0.00    -0.258 N 
ATOM      2  C   UNL     1       0.045  -0.643  -2.588  0.00  0.00    +0.041 C 
ATOM      3  C   UNL     1       0.326  -1.012  -3.856  0.00  0.00    +0.080 C 
ATOM      4  C   UNL     1       1.748  -1.431  -4.171  0.00  0.00    +0.144 C 
ATOM      5  N   UNL     1       2.714  -1.399  -3.059  0.00  0.00    -0.288 N 
ATOM      6  C   UNL     1       2.283  -1.002  -1.846  0.00  0.00    +0.307 C 
ATOM      7  O   UNL     1       3.073  -0.969  -0.923  0.00  0.00    -0.252 OA
ATOM      8  H   UNL     1       3.639  -1.656  -3.198  0.00  0.00    +0.151 HD
ENDROOT
BRANCH   4   9
ATOM      9  C   UNL     1       1.710  -2.836  -4.713  0.00  0.00    -0.019 A 
ATOM     10  C   UNL     1       1.894  -3.060  -6.064  0.00  0.00    +0.009 A 
ATOM     11  C   UNL     1       1.860  -4.347  -6.566  0.00  0.00    +0.050 A 
ATOM     12  C   UNL     1       1.641  -5.418  -5.714  0.00  0.00    +0.162 A 
ATOM     13  C   UNL     1       1.456  -5.193  -4.353  0.00  0.00    +0.162 A 
ATOM     14  C   UNL     1       1.496  -3.900  -3.856  0.00  0.00    +0.055 A 
BRANCH  13  15
ATOM     15  O   UNL     1       1.241  -6.240  -3.513  0.00  0.00    -0.491 OA
ATOM     16  C   UNL     1       1.175  -5.947  -2.115  0.00  0.00    +0.277 C 
ENDBRANCH  13  15
BRANCH  12  17
ATOM     17  O   UNL     1       1.607  -6.685  -6.206  0.00  0.00    -0.491 OA
ATOM     18  C   UNL     1       1.804  -6.840  -7.613  0.00  0.00    +0.277 C 
ENDBRANCH  12  17
ENDBRANCH   4   9
BRANCH   1  20
ATOM     19  C   UNL     1       0.830   1.277  -0.123  0.00  0.00    +0.025 C 
ATOM     20  C   UNL     1       0.637  -0.234  -0.268  0.00  0.00    +0.111 C 
ENDBRANCH   1  20
BRANCH   3  21
ATOM     21  C   UNL     1      -0.674  -1.010  -4.857  0.00  0.00    +0.339 C 
ATOM     22  O   UNL     1      -1.260  -2.039  -5.134  0.00  0.00    -0.245 OA
BRANCH  21  23
ATOM     23  O   UNL     1      -0.977   0.135  -5.504  0.00  0.00    -0.462 OA
BRANCH  23  24
ATOM     24  C   UNL     1      -2.071   0.090  -6.423  0.00  0.00    +0.229 C 
ATOM     25  C   UNL     1      -2.186   1.434  -7.145  0.00  0.00    +0.048 C 
ENDBRANCH  23  24
ENDBRANCH  21  23
ENDBRANCH   3  21
BRANCH   2  26
ATOM     26  C   UNL     1      -1.356  -0.219  -2.232  0.00  0.00    +0.136 C 
BRANCH  26  27
ATOM     27  N   UNL     1      -1.937  -1.188  -1.292  0.00  0.00    -0.294 NA
ATOM     28  C   UNL     1      -2.111  -2.500  -1.929  0.00  0.00    +0.104 C 
ATOM     29  C   UNL     1      -2.545  -3.522  -0.873  0.00  0.00    +0.123 C 
ATOM     30  N   UNL     1      -3.735  -3.004  -0.182  0.00  0.00    -0.299 N 
ATOM     31  C   UNL     1      -3.683  -1.639   0.365  0.00  0.00    +0.123 C 
ATOM     32  C   UNL     1      -3.204  -0.691  -0.740  0.00  0.00    +0.104 C 
ATOM     33  C   UNL     1      -4.844  -3.759  -0.051  0.00  0.00    +0.218 C 
ATOM     34  O   UNL     1      -5.846  -3.285   0.440  0.00  0.00    -0.275 OA
BRANCH  33  35
ATOM     35  C   UNL     1      -4.838  -5.192  -0.516  0.00  0.00    +0.069 C 
ATOM     36  C   UNL     1      -3.909  -6.015   0.380  0.00  0.00    +0.017 C 
ATOM     37  C   UNL     1      -6.256  -5.760  -0.438  0.00  0.00    +0.017 C 
ENDBRANCH  33  35
ENDBRANCH  26  27
ENDBRANCH   2  26
TORSDOF 10
