REMARK  Name = ZINC20830968
REMARK  13 active torsions:
REMARK  status: ('A' for Active; 'I' for Inactive)
REMARK    1  A    between atoms: C_1  and  C_2
REMARK    2  A    between atoms: C_2  and  C_35
REMARK    3  A    between atoms: C_4  and  N_10
REMARK    4  A    between atoms: C_6  and  C_8
REMARK    5  A    between atoms: C_6  and  C_9
REMARK    6  A    between atoms: C_11  and  C_13
REMARK    7  A    between atoms: C_13  and  S_14
REMARK    8  A    between atoms: S_14  and  C_15
REMARK    9  A    between atoms: C_18  and  C_23
REMARK   10  A    between atoms: N_19  and  C_20
REMARK   11  A    between atoms: C_20  and  C_21
REMARK   12  A    between atoms: C_23  and  N_24
REMARK   13  A    between atoms: N_24  and  C_25
REMARK                            x       y       z     vdW  Elec       q    Type
REMARK                         _______ _______ _______ _____ _____    ______ ____
ROOT
ATOM      1  C   UNL     1      -6.565   5.263  -0.530  0.00  0.00    +0.192 A 
ATOM      2  N   UNL     1      -6.488   5.205   0.780  0.00  0.00    -0.122 NA
ATOM      3  N   UNL     1      -5.527   4.427   1.127  0.00  0.00    -0.132 NA
ATOM      4  C   UNL     1      -4.931   3.953   0.069  0.00  0.00    +0.152 A 
ATOM      5  N   UNL     1      -5.573   4.465  -1.024  0.00  0.00    -0.301 N 
ENDROOT
BRANCH   1   6
ATOM      6  S   UNL     1      -7.727   6.194  -1.471  0.00  0.00    -0.077 S 
BRANCH   6   7
ATOM      7  C   UNL     1      -8.675   6.959  -0.132  0.00  0.00    +0.173 C 
BRANCH   7   9
ATOM      8  N   UNL     1     -10.595   8.502   0.098  0.00  0.00    -0.312 N 
ATOM      9  C   UNL     1      -9.759   7.828  -0.717  0.00  0.00    +0.224 C 
ATOM     10  O   UNL     1      -9.879   7.921  -1.920  0.00  0.00    -0.275 OA
ATOM     11  H   UNL     1     -10.487   8.417   1.189  0.00  0.00    +0.149 HD
BRANCH   8  15
ATOM     12  C   UNL     1     -14.698   9.605  -1.069  0.00  0.00    -0.010 C 
ATOM     13  C   UNL     1     -13.893  10.378  -0.017  0.00  0.00    -0.072 C 
ATOM     14  C   UNL     1     -12.789   9.482   0.540  0.00  0.00    +0.009 C 
ATOM     15  C   UNL     1     -11.651   9.348  -0.472  0.00  0.00    +0.070 C 
ATOM     16  C   UNL     1     -11.084  10.739  -0.752  0.00  0.00    +0.009 C 
ATOM     17  C   UNL     1     -12.168  11.649  -1.327  0.00  0.00    -0.072 C 
ATOM     18  N   UNL     1     -13.392  11.626  -0.554  0.00  0.00    +0.386 N 
ATOM     19  C   UNL     1     -12.429  11.273  -2.791  0.00  0.00    -0.010 C 
ATOM     20  C   UNL     1     -11.618  13.092  -1.316  0.00  0.00    -0.010 C 
ATOM     21  C   UNL     1     -14.857  10.706   1.145  0.00  0.00    -0.010 C 
ATOM     22  H   UNL     1     -14.141  12.059  -1.234  0.00  0.00    -0.084 HD
ATOM     23  H   UNL     1     -13.197  12.328   0.270  0.00  0.00    -0.084 HD
ENDBRANCH   8  15
ENDBRANCH   7   9
ENDBRANCH   6   7
ENDBRANCH   1   6
BRANCH   5  24
ATOM     24  C   UNL     1      -5.262   4.211  -2.433  0.00  0.00    +0.152 C 
BRANCH  24  25
ATOM     25  C   UNL     1      -6.045   3.016  -2.913  0.00  0.00    -0.013 C 
ATOM     26  C   UNL     1      -6.816   3.119  -3.966  0.00  0.00    +0.005 C 
ENDBRANCH  24  25
ENDBRANCH   5  24
BRANCH   4  27
ATOM     27  C   UNL     1      -3.756   3.009   0.054  0.00  0.00    +0.178 C 
BRANCH  27  28
ATOM     28  N   UNL     1      -2.510   3.780   0.045  0.00  0.00    -0.336 N 
ATOM     29  H   UNL     1      -2.544   4.880   0.051  0.00  0.00    +0.147 HD
BRANCH  28  30
ATOM     30  C   UNL     1      -1.283   3.121   0.031  0.00  0.00    +0.035 A 
ATOM     31  C   UNL     1      -1.233   1.744   0.017  0.00  0.00    +0.023 A 
ATOM     32  C   UNL     1      -0.013   1.076   0.008  0.00  0.00    +0.002 A 
ATOM     33  C   UNL     1       1.164   1.762   0.000  0.00  0.00    +0.008 A 
ATOM     34  C   UNL     1       1.157   3.167   0.007  0.00  0.00    -0.016 A 
ATOM     35  C   UNL     1      -0.079   3.858   0.023  0.00  0.00    +0.003 A 
ATOM     36  C   UNL     1      -0.084   5.262   0.029  0.00  0.00    +0.010 A 
ATOM     37  C   UNL     1       1.097   5.940   0.021  0.00  0.00    +0.001 A 
ATOM     38  C   UNL     1       2.313   5.261   0.006  0.00  0.00    +0.001 A 
ATOM     39  C   UNL     1       2.356   3.901  -0.001  0.00  0.00    +0.008 A 
ENDBRANCH  28  30
ENDBRANCH  27  28
ENDBRANCH   4  27
TORSDOF 9
