REMARK  Name = ZINC64541170
REMARK  5 active torsions:
REMARK  status: ('A' for Active; 'I' for Inactive)
REMARK    1  A    between atoms: C_1  and  C_2
REMARK    2  A    between atoms: C_2  and  C_4
REMARK    3  A    between atoms: C_2  and  C_23
REMARK    4  A    between atoms: C_10  and  C_12
REMARK    5  A    between atoms: N_28  and  C_31
REMARK                            x       y       z     vdW  Elec       q    Type
REMARK                         _______ _______ _______ _____ _____    ______ ____
ROOT
ATOM      1  C   UNL     1       0.615  -0.532  -1.302  0.00  0.00    +0.004 C 
ATOM      2  C   UNL     1       0.625  -2.063  -1.288  0.00  0.00    +0.023 C 
ATOM      3  C   UNL     1       1.203  -2.578  -2.610  0.00  0.00    +0.108 C 
ATOM      4  N   UNL     1       2.523  -1.968  -2.818  0.00  0.00    -0.300 N 
ATOM      5  C   UNL     1       2.642  -0.504  -2.761  0.00  0.00    +0.108 C 
ATOM      6  C   UNL     1       2.048  -0.012  -1.438  0.00  0.00    +0.023 C 
ATOM      7  C   UNL     1       3.604  -2.736  -3.057  0.00  0.00    +0.242 C 
ATOM      8  O   UNL     1       3.493  -3.943  -3.101  0.00  0.00    -0.273 OA
ENDROOT
BRANCH   7   9
ATOM      9  C   UNL     1       4.952  -2.095  -3.268  0.00  0.00    +0.190 C 
ATOM     10  C   UNL     1       4.922  -1.213  -4.497  0.00  0.00    +0.016 C 
ATOM     11  C   UNL     1       5.840  -1.726  -5.348  0.00  0.00    -0.002 A 
ATOM     12  C   UNL     1       6.282  -1.329  -6.690  0.00  0.00    +0.029 A 
ATOM     13  C   UNL     1       7.244  -2.055  -7.306  0.00  0.00    +0.042 A 
ATOM     14  C   UNL     1       7.827  -3.175  -6.694  0.00  0.00    +0.022 A 
ATOM     15  C   UNL     1       7.474  -3.600  -5.463  0.00  0.00    +0.027 A 
ATOM     16  C   UNL     1       6.472  -2.911  -4.725  0.00  0.00    +0.043 A 
ATOM     17  N   UNL     1       5.965  -3.123  -3.533  0.00  0.00    -0.370 N 
ATOM     18 CL   UNL     1       7.768  -1.590  -8.894  0.00  0.00    -0.084 Cl
ATOM     19  H   UNL     1       6.216  -3.839  -2.929  0.00  0.00    +0.161 HD
ENDBRANCH   7   9
BRANCH   1  21
ATOM     20  C   UNL     1      -0.006   1.515  -0.012  0.00  0.00    +0.017 C 
ATOM     21  C   UNL     1       0.006  -0.014   0.003  0.00  0.00    +0.075 C 
BRANCH  21  22
ATOM     22  C   UNL     1      -1.405  -0.526   0.137  0.00  0.00    +0.219 C 
ATOM     23  O   UNL     1      -2.044  -0.810  -0.855  0.00  0.00    -0.275 OA
ATOM     24  N   UNL     1      -1.957  -0.669   1.358  0.00  0.00    -0.298 N 
ATOM     25  C   UNL     1      -1.244  -0.213   2.559  0.00  0.00    +0.126 C 
ATOM     26  C   UNL     1      -2.148   0.759   3.326  0.00  0.00    +0.124 C 
ATOM     27  N   UNL     1      -3.474   0.145   3.480  0.00  0.00    -0.325 N 
ATOM     28  C   UNL     1      -4.188  -0.311   2.279  0.00  0.00    +0.124 C 
ATOM     29  C   UNL     1      -3.285  -1.279   1.512  0.00  0.00    +0.126 C 
BRANCH  27  30
ATOM     30  C   UNL     1      -4.047  -0.003   4.748  0.00  0.00    +0.065 A 
ATOM     31  C   UNL     1      -4.850   1.001   5.270  0.00  0.00    +0.026 A 
ATOM     32  C   UNL     1      -5.415   0.852   6.522  0.00  0.00    +0.002 A 
ATOM     33  C   UNL     1      -5.181  -0.297   7.256  0.00  0.00    +0.003 A 
ATOM     34  C   UNL     1      -4.382  -1.300   6.740  0.00  0.00    +0.040 A 
ATOM     35  C   UNL     1      -3.818  -1.160   5.485  0.00  0.00    +0.144 A 
ATOM     36  F   UNL     1      -3.042  -2.143   4.978  0.00  0.00    -0.204 F 
ENDBRANCH  27  30
ENDBRANCH  21  22
ENDBRANCH   1  21
TORSDOF 4
