REMARK  Name = ZINC63614347
REMARK  8 active torsions:
REMARK  status: ('A' for Active; 'I' for Inactive)
REMARK    1  A    between atoms: C_1  and  C_2
REMARK    2  A    between atoms: C_6  and  N_8
REMARK    3  A    between atoms: C_9  and  C_11
REMARK    4  A    between atoms: C_11  and  N_17
REMARK    5  A    between atoms: N_17  and  C_18
REMARK    6  A    between atoms: C_18  and  C_19
REMARK    7  A    between atoms: C_24  and  C_26
REMARK    8  A    between atoms: C_26  and  C_27
REMARK                            x       y       z     vdW  Elec       q    Type
REMARK                         _______ _______ _______ _____ _____    ______ ____
ROOT
ATOM      1  N   UNL     1      -1.072  -4.017   4.843  0.00  0.00    -0.280 N 
ATOM      2  C   UNL     1      -0.844  -3.485   6.060  0.00  0.00    +0.219 C 
ATOM      3  O   UNL     1       0.258  -3.563   6.560  0.00  0.00    -0.275 OA
ENDROOT
BRANCH   1   4
ATOM      4  C   UNL     1      -0.023  -4.790   4.174  0.00  0.00    +0.114 C 
ATOM      5  C   UNL     1       1.107  -5.080   5.164  0.00  0.00    +0.035 C 
ATOM      6  C   UNL     1       0.557  -5.882   6.345  0.00  0.00    +0.003 C 
ATOM      7  C   UNL     1      -0.028  -7.201   5.838  0.00  0.00    +0.000 C 
ATOM      8  C   UNL     1      -1.158  -6.912   4.849  0.00  0.00    +0.003 C 
ATOM      9  C   UNL     1      -0.608  -6.110   3.667  0.00  0.00    +0.035 C 
BRANCH   4  11
ATOM     10  N   UNL     1       0.508  -2.654   3.047  0.00  0.00    -0.284 N 
ATOM     11  C   UNL     1       0.518  -4.001   3.010  0.00  0.00    +0.241 C 
ATOM     12  O   UNL     1       0.964  -4.578   2.041  0.00  0.00    -0.273 OA
ATOM     13  H   UNL     1       0.225  -2.192   3.851  0.00  0.00    +0.155 HD
BRANCH  10  19
ATOM     14  C   UNL     1       0.203   1.437   0.337  0.00  0.00    +0.044 C 
ATOM     15  C   UNL     1       0.774   0.065   0.585  0.00  0.00    -0.049 A 
ATOM     16  C   UNL     1       1.694  -0.471  -0.298  0.00  0.00    +0.003 A 
ATOM     17  C   UNL     1       2.221  -1.729  -0.073  0.00  0.00    +0.002 A 
ATOM     18  C   UNL     1       1.830  -2.455   1.035  0.00  0.00    +0.023 A 
ATOM     19  C   UNL     1       0.907  -1.921   1.923  0.00  0.00    +0.034 A 
ATOM     20  C   UNL     1       0.383  -0.654   1.698  0.00  0.00    +0.026 A 
ENDBRANCH  10  19
ENDBRANCH   4  11
ENDBRANCH   1   4
BRANCH   1  21
ATOM     21  C   UNL     1      -2.368  -3.821   4.189  0.00  0.00    +0.183 C 
BRANCH  21  22
ATOM     22  C   UNL     1      -3.335  -4.874   4.664  0.00  0.00    +0.122 A 
ATOM     23  C   UNL     1      -4.057  -4.826   5.798  0.00  0.00    +0.046 A 
ATOM     24  C   UNL     1      -4.824  -6.013   5.846  0.00  0.00    +0.041 A 
ATOM     25  C   UNL     1      -4.524  -6.716   4.740  0.00  0.00    +0.195 A 
ATOM     26  O   UNL     1      -3.626  -6.019   4.024  0.00  0.00    -0.466 OA
ENDBRANCH  21  22
ENDBRANCH   1  21
BRANCH   2  27
ATOM     27  C   UNL     1      -1.960  -2.793   6.801  0.00  0.00    +0.124 C 
BRANCH  27  28
ATOM     28  C   UNL     1      -1.440  -2.284   8.147  0.00  0.00    +0.112 C 
ATOM     29  C   UNL     1      -2.562  -1.643   8.931  0.00  0.00    +0.007 C 
ATOM     30  C   UNL     1      -2.196  -0.355   9.124  0.00  0.00    -0.004 A 
ATOM     31  C   UNL     1      -2.846   0.772   9.804  0.00  0.00    +0.010 A 
ATOM     32  C   UNL     1      -2.220   1.970   9.833  0.00  0.00    +0.001 A 
ATOM     33  C   UNL     1      -0.968   2.162   9.231  0.00  0.00    +0.002 A 
ATOM     34  C   UNL     1      -0.309   1.175   8.588  0.00  0.00    +0.026 A 
ATOM     35  C   UNL     1      -0.875  -0.126   8.497  0.00  0.00    +0.043 A 
ATOM     36  N   UNL     1      -0.440  -1.231   7.937  0.00  0.00    -0.377 N 
ATOM     37  H   UNL     1       0.401  -1.334   7.464  0.00  0.00    +0.160 HD
ENDBRANCH  27  28
ENDBRANCH   2  27
TORSDOF 7
