REMARK  Name = ZINC15947007
REMARK  5 active torsions:
REMARK  status: ('A' for Active; 'I' for Inactive)
REMARK    1  A    between atoms: C_1  and  C_2
REMARK    2  A    between atoms: C_6  and  C_28
REMARK    3  A    between atoms: C_7  and  N_8
REMARK    4  A    between atoms: C_9  and  C_11
REMARK    5  A    between atoms: C_19  and  C_21
REMARK                            x       y       z     vdW  Elec       q    Type
REMARK                         _______ _______ _______ _____ _____    ______ ____
ROOT
ATOM      1  N   UNL     1      -3.543   1.771   0.592  0.00  0.00    -0.285 N 
ATOM      2  C   UNL     1      -4.650   1.045   0.338  0.00  0.00    +0.222 C 
ATOM      3  O   UNL     1      -5.220   0.471   1.242  0.00  0.00    -0.275 OA
ATOM      4  H   UNL     1      -3.040   2.160  -0.140  0.00  0.00    +0.155 HD
ENDROOT
BRANCH   1  11
ATOM      5  C   UNL     1      -3.548  -0.471   2.344  0.00  0.00    +0.046 C 
ATOM      6  C   UNL     1      -3.106   0.896   2.800  0.00  0.00    -0.028 A 
ATOM      7  C   UNL     1      -2.683   1.087   4.101  0.00  0.00    +0.020 A 
ATOM      8  C   UNL     1      -2.278   2.341   4.521  0.00  0.00    +0.018 A 
ATOM      9  C   UNL     1      -2.295   3.408   3.639  0.00  0.00    +0.020 A 
ATOM     10  C   UNL     1      -2.718   3.222   2.337  0.00  0.00    -0.028 A 
ATOM     11  C   UNL     1      -3.120   1.963   1.912  0.00  0.00    +0.039 A 
ATOM     12  C   UNL     1      -2.737   4.384   1.378  0.00  0.00    +0.046 C 
ATOM     13 BR   UNL     1      -1.699   2.599   6.302  0.00  0.00    -0.050 Br
ENDBRANCH   1  11
BRANCH   2  14
ATOM     14  C   UNL     1      -5.179   0.946  -1.070  0.00  0.00    +0.097 C 
ATOM     15  C   UNL     1      -6.709   0.822  -1.025  0.00  0.00    +0.027 C 
ATOM     16  C   UNL     1      -7.023  -0.528  -0.390  0.00  0.00    -0.026 C 
ATOM     17  C   UNL     1      -6.475  -1.579  -0.988  0.00  0.00    -0.026 C 
ATOM     18  C   UNL     1      -5.622  -1.262  -2.212  0.00  0.00    +0.029 C 
ATOM     19  C   UNL     1      -4.550  -0.263  -1.757  0.00  0.00    +0.122 C 
ATOM     20  C   UNL     1      -6.554  -0.506  -3.196  0.00  0.00    +0.001 C 
ATOM     21  C   UNL     1      -7.196   0.724  -2.496  0.00  0.00    +0.001 C 
ATOM     22  C   UNL     1      -6.127   0.914  -3.574  0.00  0.00    +0.009 C 
BRANCH  19  23
ATOM     23  C   UNL     1      -3.613  -0.946  -0.795  0.00  0.00    +0.360 C 
ATOM     24  O   UNL     1      -3.922  -2.004  -0.300  0.00  0.00    -0.246 OA
ATOM     25  O   UNL     1      -2.436  -0.380  -0.488  0.00  0.00    -0.246 OA
ENDBRANCH  19  23
ENDBRANCH   2  14
TORSDOF 3
