REMARK  Name = ZINC54414013
REMARK  5 active torsions:
REMARK  status: ('A' for Active; 'I' for Inactive)
REMARK    1  A    between atoms: C_1  and  C_2
REMARK    2  A    between atoms: C_7  and  N_12
REMARK    3  A    between atoms: C_9  and  C_11
REMARK    4  A    between atoms: C_13  and  C_17
REMARK    5  A    between atoms: C_20  and  N_24
REMARK                            x       y       z     vdW  Elec       q    Type
REMARK                         _______ _______ _______ _____ _____    ______ ____
ROOT
ATOM      1  N   UNL     1       1.356  -2.697   2.442  0.00  0.00    -0.222 N 
ATOM      2  C   UNL     1       2.537  -3.365   2.458  0.00  0.00    +0.182 A 
ATOM      3  N   UNL     1       2.962  -3.367   3.704  0.00  0.00    -0.108 NA
ATOM      4  N   UNL     1       2.132  -2.749   4.464  0.00  0.00    -0.023 NA
ATOM      5  N   UNL     1       1.135  -2.308   3.775  0.00  0.00    -0.043 NA
ENDROOT
BRANCH   1  11
ATOM      6  C   UNL     1      -0.301   0.828  -0.603  0.00  0.00    +0.008 C 
ATOM      7  C   UNL     1      -0.348  -0.663  -0.264  0.00  0.00    -0.009 C 
ATOM      8  C   UNL     1      -1.787  -1.066   0.063  0.00  0.00    +0.004 C 
ATOM      9  C   UNL     1      -1.835  -2.557   0.402  0.00  0.00    +0.002 C 
ATOM     10  C   UNL     1      -0.940  -2.834   1.612  0.00  0.00    +0.027 C 
ATOM     11  C   UNL     1       0.499  -2.431   1.284  0.00  0.00    +0.114 C 
ATOM     12  C   UNL     1       0.547  -0.940   0.945  0.00  0.00    +0.013 C 
ATOM     13  C   UNL     1       0.050  -0.129   2.144  0.00  0.00    +0.010 C 
ENDBRANCH   1  11
BRANCH   2  14
ATOM     14  C   UNL     1       3.217  -3.976   1.295  0.00  0.00    +0.024 A 
ATOM     15  C   UNL     1       3.076  -3.410   0.027  0.00  0.00    +0.013 A 
ATOM     16  C   UNL     1       3.711  -3.981  -1.055  0.00  0.00    +0.026 A 
ATOM     17  C   UNL     1       4.492  -5.118  -0.885  0.00  0.00    +0.060 A 
ATOM     18  C   UNL     1       4.635  -5.685   0.379  0.00  0.00    +0.145 A 
ATOM     19  C   UNL     1       4.005  -5.115   1.466  0.00  0.00    +0.051 A 
ATOM     20  F   UNL     1       5.394  -6.791   0.541  0.00  0.00    -0.204 F 
BRANCH  17  21
ATOM     21  N   UNL     1       5.133  -5.693  -1.983  0.00  0.00    -0.356 N 
ATOM     22  H   UNL     1       5.034  -5.299  -2.864  0.00  0.00    +0.142 HD
ATOM     23  H   UNL     1       5.678  -6.487  -1.866  0.00  0.00    +0.142 HD
ENDBRANCH  17  21
ENDBRANCH   2  14
TORSDOF 3
