REMARK  Name = ZINC00888044
REMARK  11 active torsions:
REMARK  status: ('A' for Active; 'I' for Inactive)
REMARK    1  A    between atoms: C_1  and  C_2
REMARK    2  A    between atoms: C_7  and  N_8
REMARK    3  A    between atoms: N_8  and  C_9
REMARK    4  A    between atoms: C_9  and  C_11
REMARK    5  A    between atoms: C_9  and  C_18
REMARK    6  A    between atoms: C_14  and  O_17
REMARK    7  A    between atoms: N_20  and  C_21
REMARK    8  A    between atoms: C_21  and  C_22
REMARK    9  A    between atoms: C_29  and  C_31
REMARK   10  A    between atoms: C_31  and  N_32
REMARK   11  A    between atoms: C_34  and  C_37
REMARK                            x       y       z     vdW  Elec       q    Type
REMARK                         _______ _______ _______ _____ _____    ______ ____
ROOT
ATOM      1  N   UNL     1       0.190   0.373   2.309  0.00  0.00    -0.254 N 
ATOM      2  C   UNL     1      -0.879   0.594   3.100  0.00  0.00    +0.244 C 
ATOM      3  O   UNL     1      -0.720   0.869   4.270  0.00  0.00    -0.273 OA
ENDROOT
BRANCH   1  10
ATOM      4  C   UNL     1       0.319   2.483   0.404  0.00  0.00    +0.045 C 
ATOM      5  C   UNL     1       0.063   1.055  -0.004  0.00  0.00    -0.029 A 
ATOM      6  C   UNL     1      -0.112   0.738  -1.337  0.00  0.00    +0.005 A 
ATOM      7  C   UNL     1      -0.348  -0.572  -1.713  0.00  0.00    +0.000 A 
ATOM      8  C   UNL     1      -0.408  -1.569  -0.756  0.00  0.00    +0.002 A 
ATOM      9  C   UNL     1      -0.234  -1.258   0.579  0.00  0.00    +0.024 A 
ATOM     10  C   UNL     1       0.008   0.056   0.958  0.00  0.00    +0.040 A 
ENDBRANCH   1  10
BRANCH   1  11
ATOM     11  C   UNL     1       1.543   0.465   2.864  0.00  0.00    +0.197 C 
BRANCH  11  12
ATOM     12  C   UNL     1       2.552   0.304   1.756  0.00  0.00    -0.018 A 
ATOM     13  C   UNL     1       2.594  -0.868   1.024  0.00  0.00    +0.009 A 
ATOM     14  C   UNL     1       3.518  -1.018   0.009  0.00  0.00    +0.046 A 
ATOM     15  C   UNL     1       4.404   0.010  -0.278  0.00  0.00    +0.117 A 
ATOM     16  C   UNL     1       4.360   1.186   0.457  0.00  0.00    +0.046 A 
ATOM     17  C   UNL     1       3.431   1.333   1.468  0.00  0.00    +0.009 A 
BRANCH  15  18
ATOM     18  O   UNL     1       5.315  -0.135  -1.277  0.00  0.00    -0.507 OA
ATOM     19  H   UNL     1       5.000   0.161  -2.142  0.00  0.00    +0.292 HD
ENDBRANCH  15  18
ENDBRANCH  11  12
BRANCH  11  20
ATOM     20  C   UNL     1       1.742  -0.625   3.885  0.00  0.00    +0.239 C 
ATOM     21  O   UNL     1       0.842  -1.402   4.127  0.00  0.00    -0.273 OA
ATOM     22  N   UNL     1       2.920  -0.737   4.531  0.00  0.00    -0.309 N 
ATOM     23  H   UNL     1       3.639  -0.116   4.338  0.00  0.00    +0.149 HD
BRANCH  22  24
ATOM     24  C   UNL     1       3.113  -1.796   5.524  0.00  0.00    +0.139 C 
BRANCH  24  25
ATOM     25  C   UNL     1       4.505  -1.702   6.095  0.00  0.00    -0.030 A 
ATOM     26  C   UNL     1       5.545  -2.386   5.494  0.00  0.00    +0.008 A 
ATOM     27  C   UNL     1       6.822  -2.300   6.016  0.00  0.00    +0.038 A 
ATOM     28  C   UNL     1       7.059  -1.528   7.141  0.00  0.00    +0.123 A 
ATOM     29  C   UNL     1       6.016  -0.844   7.742  0.00  0.00    +0.038 A 
ATOM     30  C   UNL     1       4.741  -0.927   7.215  0.00  0.00    +0.008 A 
ATOM     31  F   UNL     1       8.306  -1.444   7.652  0.00  0.00    -0.205 F 
ENDBRANCH  24  25
ENDBRANCH  22  24
ENDBRANCH  11  20
ENDBRANCH   1  11
BRANCH   2  32
ATOM     32  C   UNL     1      -2.270   0.500   2.529  0.00  0.00    +0.264 C 
BRANCH  32  33
ATOM     33  N   UNL     1      -3.249   0.781   3.582  0.00  0.00    -0.154 N 
ATOM     34  N   UNL     1      -3.775  -0.098   4.365  0.00  0.00    -0.129 NA
ATOM     35  C   UNL     1      -4.606   0.530   5.176  0.00  0.00    +0.211 A 
ATOM     36  N   UNL     1      -4.557   1.829   4.844  0.00  0.00    -0.107 NA
ATOM     37  N   UNL     1      -3.716   1.945   3.873  0.00  0.00    -0.045 NA
BRANCH  35  38
ATOM     38  C   UNL     1      -5.431  -0.080   6.241  0.00  0.00    +0.060 A 
ATOM     39  C   UNL     1      -6.309   0.521   7.103  0.00  0.00    +0.019 A 
ATOM     40  C   UNL     1      -6.973  -0.260   8.023  0.00  0.00    +0.008 A 
ATOM     41  C   UNL     1      -6.738  -1.597   8.048  0.00  0.00    +0.046 A 
ATOM     42  S   UNL     1      -5.546  -1.792   6.733  0.00  0.00    -0.093 S 
ENDBRANCH  35  38
ENDBRANCH  32  33
ENDBRANCH   2  32
TORSDOF 10
