REMARK  Name = ZINC39490934
REMARK  10 active torsions:
REMARK  status: ('A' for Active; 'I' for Inactive)
REMARK    1  A    between atoms: C_1  and  C_2
REMARK    2  A    between atoms: C_2  and  C_3
REMARK    3  A    between atoms: C_2  and  S_4
REMARK    4  A    between atoms: S_4  and  C_7
REMARK    5  A    between atoms: C_7  and  C_34
REMARK    6  A    between atoms: N_9  and  C_27
REMARK    7  A    between atoms: N_12  and  C_13
REMARK    8  A    between atoms: C_13  and  C_14
REMARK    9  A    between atoms: C_14  and  C_21
REMARK   10  A    between atoms: C_32  and  O_33
REMARK                            x       y       z     vdW  Elec       q    Type
REMARK                         _______ _______ _______ _____ _____    ______ ____
ROOT
ATOM      1  C   UNL     1      -1.282  -2.936   1.364  0.00  0.00    +0.169 C 
ATOM      2  C   UNL     1      -0.651  -3.465   2.667  0.00  0.00    +0.164 C 
ATOM      3  N   UNL     1      -1.667  -4.384   3.202  0.00  0.00    -0.248 N 
ATOM      4  C   UNL     1      -2.719  -4.407   2.374  0.00  0.00    +0.311 C 
ATOM      5  O   UNL     1      -3.707  -5.088   2.576  0.00  0.00    -0.252 OA
ATOM      6  N   UNL     1      -2.586  -3.614   1.304  0.00  0.00    -0.259 N 
ATOM      7  C   UNL     1      -0.423  -3.315   0.156  0.00  0.00    +0.059 C 
ENDROOT
BRANCH   3   8
ATOM      8  C   UNL     1      -1.552  -5.119   4.390  0.00  0.00    +0.079 A 
ATOM      9  C   UNL     1      -1.999  -4.580   5.588  0.00  0.00    +0.027 A 
ATOM     10  C   UNL     1      -1.885  -5.307   6.758  0.00  0.00    +0.002 A 
ATOM     11  C   UNL     1      -1.325  -6.571   6.738  0.00  0.00    +0.004 A 
ATOM     12  C   UNL     1      -0.876  -7.114   5.549  0.00  0.00    +0.047 A 
ATOM     13  C   UNL     1      -0.993  -6.395   4.371  0.00  0.00    +0.138 A 
BRANCH  13  14
ATOM     14  O   UNL     1      -0.558  -6.930   3.199  0.00  0.00    -0.505 OA
ATOM     15  H   UNL     1       0.368  -6.737   2.998  0.00  0.00    +0.292 HD
ENDBRANCH  13  14
ENDBRANCH   3   8
BRANCH   1  16
ATOM     16  S   UNL     1      -1.502  -1.137   1.448  0.00  0.00    -0.006 S 
ATOM     17  O   UNL     1      -1.926  -0.797   2.760  0.00  0.00    -0.172 OA
ATOM     18  O   UNL     1      -2.292  -0.730   0.339  0.00  0.00    -0.172 OA
BRANCH  16  20
ATOM     19  C   UNL     1       0.181   1.013   1.288  0.00  0.00    +0.031 C 
ATOM     20  C   UNL     1       0.185  -0.515   1.210  0.00  0.00    +0.127 C 
ATOM     21  C   UNL     1       1.095  -1.079   2.303  0.00  0.00    +0.031 C 
ENDBRANCH  16  20
ENDBRANCH   1  16
BRANCH   6  22
ATOM     22  C   UNL     1      -3.580  -3.447   0.240  0.00  0.00    +0.118 C 
BRANCH  22  23
ATOM     23  C   UNL     1      -3.612  -4.705  -0.629  0.00  0.00    -0.008 C 
ATOM     24  C   UNL     1      -4.710  -4.568  -1.688  0.00  0.00    +0.027 C 
ATOM     25  C   UNL     1      -6.069  -4.447  -0.994  0.00  0.00    +0.120 C 
ATOM     26  N   UNL     1      -6.306  -5.638  -0.169  0.00  0.00    -0.145 NA
ATOM     27  C   UNL     1      -5.291  -5.765   0.885  0.00  0.00    +0.120 C 
ATOM     28  C   UNL     1      -3.909  -5.926   0.247  0.00  0.00    +0.027 C 
ATOM     29  F   UNL     1      -7.503  -5.624   0.337  0.00  0.00    -0.133 F 
BRANCH  23  30
ATOM     30  C   UNL     1      -2.257  -4.887  -1.316  0.00  0.00    -0.003 C 
ATOM     31  C   UNL     1      -2.041  -3.756  -2.325  0.00  0.00    +0.004 C 
ATOM     32  C   UNL     1      -0.686  -3.938  -3.012  0.00  0.00    +0.000 C 
ATOM     33  C   UNL     1      -0.660  -5.283  -3.740  0.00  0.00    +0.000 C 
ATOM     34  C   UNL     1      -0.876  -6.413  -2.732  0.00  0.00    +0.000 C 
ATOM     35  C   UNL     1      -2.231  -6.232  -2.045  0.00  0.00    +0.004 C 
ENDBRANCH  23  30
ENDBRANCH  22  23
ENDBRANCH   6  22
TORSDOF 7
