REMARK  Name = ZINC35926711
REMARK  6 active torsions:
REMARK  status: ('A' for Active; 'I' for Inactive)
REMARK    1  A    between atoms: C_1  and  C_2
REMARK    2  A    between atoms: C_5  and  C_37
REMARK    3  A    between atoms: C_6  and  N_8
REMARK    4  A    between atoms: N_11  and  C_14
REMARK    5  A    between atoms: C_14  and  C_15
REMARK    6  A    between atoms: C_29  and  C_31
REMARK                            x       y       z     vdW  Elec       q    Type
REMARK                         _______ _______ _______ _____ _____    ______ ____
ROOT
ATOM      1  C   UNL     1      -1.948  -5.460   5.279  0.00  0.00    +0.034 A 
ATOM      2  C   UNL     1      -2.939  -6.315   4.892  0.00  0.00    +0.091 A 
ATOM      3  C   UNL     1      -3.867  -6.757   5.851  0.00  0.00    +0.253 A 
ATOM      4  O   UNL     1      -4.766  -7.522   5.540  0.00  0.00    -0.268 OA
ATOM      5  N   UNL     1      -3.745  -6.321   7.122  0.00  0.00    -0.295 N 
ATOM      6  H   UNL     1      -4.374  -6.613   7.800  0.00  0.00    +0.172 HD
ATOM      7  C   UNL     1      -2.736  -5.468   7.450  0.00  0.00    +0.198 A 
ATOM      8  N   UNL     1      -1.867  -5.062   6.546  0.00  0.00    -0.223 NA
ATOM      9  N   UNL     1      -2.619  -5.030   8.742  0.00  0.00    -0.298 N 
ATOM     10  C   UNL     1      -3.637  -5.375   9.744  0.00  0.00    +0.127 C 
ATOM     11  C   UNL     1      -2.945  -6.054  10.932  0.00  0.00    +0.127 C 
ATOM     12  N   UNL     1      -1.798  -5.230  11.341  0.00  0.00    -0.298 N 
ATOM     13  C   UNL     1      -0.780  -4.886  10.339  0.00  0.00    +0.127 C 
ATOM     14  C   UNL     1      -1.470  -4.211   9.152  0.00  0.00    +0.127 C 
ATOM     15  C   UNL     1      -1.683  -4.798  12.612  0.00  0.00    +0.219 C 
ATOM     16  O   UNL     1      -2.474  -5.170  13.453  0.00  0.00    -0.275 OA
ENDROOT
BRANCH  15  17
ATOM     17  C   UNL     1      -0.570  -3.855  12.989  0.00  0.00    +0.075 C 
ATOM     18  C   UNL     1       0.773  -4.578  12.875  0.00  0.00    +0.013 C 
ATOM     19  C   UNL     1       1.903  -3.620  13.258  0.00  0.00    +0.001 C 
ATOM     20  C   UNL     1       1.701  -3.144  14.697  0.00  0.00    +0.000 C 
ATOM     21  C   UNL     1       0.358  -2.420  14.812  0.00  0.00    +0.001 C 
ATOM     22  C   UNL     1      -0.771  -3.378  14.430  0.00  0.00    +0.013 C 
ENDBRANCH  15  17
BRANCH   1  23
ATOM     23  C   UNL     1      -0.940  -4.971   4.271  0.00  0.00    -0.022 C 
BRANCH  23  27
ATOM     24  N   UNL     1      -1.465  -1.125   2.711  0.00  0.00    -0.333 N 
ATOM     25  C   UNL     1      -0.103  -1.499   3.122  0.00  0.00    +0.086 C 
ATOM     26  C   UNL     1      -0.025  -3.026   3.210  0.00  0.00    -0.059 C 
ATOM     27  N   UNL     1      -1.083  -3.519   4.100  0.00  0.00    +0.385 N 
ATOM     28  C   UNL     1      -2.400  -3.224   3.522  0.00  0.00    -0.059 C 
ATOM     29  C   UNL     1      -2.596  -1.702   3.453  0.00  0.00    +0.086 C 
ATOM     30  H   UNL     1      -1.002  -3.068   4.998  0.00  0.00    -0.081 HD
BRANCH  24  36
ATOM     31  C   UNL     1      -2.049   3.478   1.089  0.00  0.00    +0.044 C 
ATOM     32  C   UNL     1      -1.965   1.995   0.834  0.00  0.00    -0.049 A 
ATOM     33  C   UNL     1      -2.099   1.507  -0.453  0.00  0.00    +0.004 A 
ATOM     34  C   UNL     1      -2.023   0.147  -0.692  0.00  0.00    +0.005 A 
ATOM     35  C   UNL     1      -1.813  -0.728   0.356  0.00  0.00    -0.029 A 
ATOM     36  C   UNL     1      -1.677  -0.242   1.649  0.00  0.00    +0.033 A 
ATOM     37  C   UNL     1      -1.749   1.126   1.885  0.00  0.00    +0.026 A 
ATOM     38  C   UNL     1      -1.731  -2.210   0.095  0.00  0.00    +0.045 C 
ENDBRANCH  24  36
ENDBRANCH  23  27
ENDBRANCH   1  23
TORSDOF 4
