REMARK  Name = ZINC38660327
REMARK  15 active torsions:
REMARK  status: ('A' for Active; 'I' for Inactive)
REMARK    1  A    between atoms: C_1  and  C_2
REMARK    2  A    between atoms: C_7  and  C_8
REMARK    3  A    between atoms: C_8  and  O_10
REMARK    4  A    between atoms: O_10  and  C_11
REMARK    5  A    between atoms: C_18  and  N_38
REMARK    6  A    between atoms: C_19  and  C_36
REMARK    7  A    between atoms: C_20  and  C_22
REMARK    8  A    between atoms: C_25  and  O_30
REMARK    9  A    between atoms: C_26  and  O_28
REMARK   10  A    between atoms: O_28  and  C_29
REMARK   11  A    between atoms: O_30  and  C_31
REMARK   12  A    between atoms: C_31  and  C_32
REMARK   13  A    between atoms: C_32  and  C_33
REMARK   14  A    between atoms: C_33  and  C_34
REMARK   15  A    between atoms: C_33  and  C_35
REMARK                            x       y       z     vdW  Elec       q    Type
REMARK                         _______ _______ _______ _____ _____    ______ ____
ROOT
ATOM      1  C   UNL     1       0.200  -0.296   4.996  0.00  0.00    +0.135 A 
ATOM      2  C   UNL     1       0.064   1.085   4.963  0.00  0.00    +0.047 A 
ATOM      3  C   UNL     1       0.050   1.806   6.141  0.00  0.00    +0.012 A 
ATOM      4  C   UNL     1       0.172   1.156   7.357  0.00  0.00    +0.008 A 
ATOM      5  C   UNL     1       0.308  -0.222   7.396  0.00  0.00    +0.138 A 
ATOM      6  C   UNL     1       0.316  -0.949   6.212  0.00  0.00    +0.093 A 
ATOM      7  O   UNL     1       0.429  -0.876   8.578  0.00  0.00    -0.441 OA
ATOM      8  C   UNL     1       0.801  -0.205   9.680  0.00  0.00    +0.199 C 
ATOM      9  C   UNL     1       0.697   1.142   9.768  0.00  0.00    +0.098 C 
ATOM     10  C   UNL     1       0.155   1.960   8.630  0.00  0.00    +0.098 C 
ENDROOT
BRANCH  10  11
ATOM     11  C   UNL     1      -1.261   2.372   8.941  0.00  0.00    -0.031 A 
ATOM     12  C   UNL     1      -2.231   1.409   9.143  0.00  0.00    +0.008 A 
ATOM     13  C   UNL     1      -3.531   1.781   9.429  0.00  0.00    +0.050 A 
ATOM     14  C   UNL     1      -3.865   3.124   9.513  0.00  0.00    +0.162 A 
ATOM     15  C   UNL     1      -2.888   4.094   9.310  0.00  0.00    +0.162 A 
ATOM     16  C   UNL     1      -1.585   3.713   9.028  0.00  0.00    +0.054 A 
BRANCH  15  17
ATOM     17  O   UNL     1      -3.210   5.413   9.391  0.00  0.00    -0.491 OA
ATOM     18  C   UNL     1      -2.156   6.353   9.171  0.00  0.00    +0.277 C 
ENDBRANCH  15  17
BRANCH  14  19
ATOM     19  O   UNL     1      -5.143   3.492   9.793  0.00  0.00    -0.488 OA
BRANCH  19  20
ATOM     20  C   UNL     1      -6.093   2.443   9.990  0.00  0.00    +0.229 C 
BRANCH  20  21
ATOM     21  C   UNL     1      -7.465   3.047  10.293  0.00  0.00    +0.044 C 
BRANCH  21  22
ATOM     22  C   UNL     1      -8.482   1.923  10.503  0.00  0.00    -0.014 C 
ATOM     23  C   UNL     1      -8.107   1.123  11.752  0.00  0.00    +0.007 C 
ATOM     24  C   UNL     1      -9.877   2.524  10.682  0.00  0.00    +0.007 C 
ENDBRANCH  21  22
ENDBRANCH  20  21
ENDBRANCH  19  20
ENDBRANCH  14  19
ENDBRANCH  10  11
BRANCH   8  25
ATOM     25  N   UNL     1       1.302  -0.905  10.749  0.00  0.00    -0.328 N 
ATOM     26  H   UNL     1       1.383  -1.871  10.701  0.00  0.00    +0.145 HD
ATOM     27  H   UNL     1       1.575  -0.435  11.552  0.00  0.00    +0.145 HD
ENDBRANCH   8  25
BRANCH   9  28
ATOM     28  C   UNL     1       1.112   1.801  10.970  0.00  0.00    +0.101 C 
ATOM     29  N   UNL     1       1.441   2.323  11.924  0.00  0.00    -0.191 NA
ENDBRANCH   9  28
BRANCH   1  30
ATOM     30  O   UNL     1       0.213  -1.007   3.838  0.00  0.00    -0.422 OA
BRANCH  30  31
ATOM     31  C   UNL     1       1.360  -1.044   3.132  0.00  0.00    +0.345 C 
ATOM     32  O   UNL     1       2.371  -0.551   3.590  0.00  0.00    -0.245 OA
BRANCH  31  39
ATOM     33  C   UNL     1       3.752  -0.876   1.513  0.00  0.00    +0.044 C 
ATOM     34  C   UNL     1       2.536  -1.610   1.010  0.00  0.00    -0.036 A 
ATOM     35  C   UNL     1       2.556  -2.215  -0.229  0.00  0.00    +0.004 A 
ATOM     36  C   UNL     1       1.440  -2.889  -0.692  0.00  0.00    +0.000 A 
ATOM     37  C   UNL     1       0.296  -2.961   0.083  0.00  0.00    +0.001 A 
ATOM     38  C   UNL     1       0.262  -2.360   1.324  0.00  0.00    +0.015 A 
ATOM     39  C   UNL     1       1.387  -1.684   1.801  0.00  0.00    +0.062 A 
ENDBRANCH  31  39
ENDBRANCH  30  31
ENDBRANCH   1  30
TORSDOF 11
