REMARK  Name = ZINC09830471
REMARK  6 active torsions:
REMARK  status: ('A' for Active; 'I' for Inactive)
REMARK    1  A    between atoms: C_14  and  C_20
REMARK    2  A    between atoms: N_22  and  C_23
REMARK    3  A    between atoms: C_23  and  C_24
REMARK    4  A    between atoms: C_24  and  C_25
REMARK    5  A    between atoms: C_28  and  S_31
REMARK    6  A    between atoms: S_31  and  N_34
REMARK                            x       y       z     vdW  Elec       q    Type
REMARK                         _______ _______ _______ _____ _____    ______ ____
ROOT
ATOM      1  C   UNL     1      -2.172   5.845  -0.266  0.00  0.00    +0.000 A 
ATOM      2  C   UNL     1      -2.257   4.494  -0.551  0.00  0.00    +0.002 A 
ATOM      3  C   UNL     1      -1.131   3.700  -0.460  0.00  0.00    +0.024 A 
ATOM      4  C   UNL     1       0.085   4.257  -0.083  0.00  0.00    +0.039 A 
ATOM      5  C   UNL     1       0.170   5.612   0.199  0.00  0.00    -0.026 A 
ATOM      6  C   UNL     1      -0.964   6.401   0.106  0.00  0.00    +0.005 A 
ATOM      7  C   UNL     1       1.473   6.253   0.599  0.00  0.00    +0.038 C 
ATOM      8  C   UNL     1       2.447   5.200   1.128  0.00  0.00    +0.024 C 
ATOM      9  C   UNL     1       2.541   4.056   0.115  0.00  0.00    +0.113 C 
ATOM     10  N   UNL     1       1.214   3.434   0.008  0.00  0.00    -0.279 N 
ATOM     11  C   UNL     1       1.083   2.061   0.003  0.00  0.00    +0.166 A 
ATOM     12  N   UNL     1      -0.016   1.335   0.033  0.00  0.00    -0.224 NA
ATOM     13  C   UNL     1       0.003  -0.004   0.022  0.00  0.00    +0.092 A 
ATOM     14  C   UNL     1      -1.109  -0.900   0.050  0.00  0.00    +0.063 A 
ATOM     15  C   UNL     1      -0.904  -2.273   0.033  0.00  0.00    +0.015 A 
ATOM     16  C   UNL     1       0.368  -2.808  -0.012  0.00  0.00    +0.002 A 
ATOM     17  C   UNL     1       1.466  -1.961  -0.040  0.00  0.00    +0.017 A 
ATOM     18  C   UNL     1       1.283  -0.603  -0.024  0.00  0.00    +0.042 A 
ATOM     19  S   UNL     1       2.359   0.810  -0.048  0.00  0.00    -0.052 S 
ENDROOT
BRANCH  14  20
ATOM     20  C   UNL     1      -2.480  -0.365   0.099  0.00  0.00    +0.246 C 
ATOM     21  O   UNL     1      -2.663   0.838   0.115  0.00  0.00    -0.270 OA
ATOM     22  N   UNL     1      -3.532  -1.207   0.126  0.00  0.00    -0.311 N 
ATOM     23  H   UNL     1      -3.386  -2.166   0.114  0.00  0.00    +0.149 HD
BRANCH  22  24
ATOM     24  C   UNL     1      -4.896  -0.675   0.174  0.00  0.00    +0.109 C 
BRANCH  24  25
ATOM     25  C   UNL     1      -5.895  -1.833   0.197  0.00  0.00    +0.054 C 
BRANCH  25  26
ATOM     26  C   UNL     1      -7.298  -1.286   0.247  0.00  0.00    -0.046 A 
ATOM     27  C   UNL     1      -7.905  -1.049   1.466  0.00  0.00    +0.005 A 
ATOM     28  C   UNL     1      -9.191  -0.543   1.512  0.00  0.00    +0.029 A 
ATOM     29  C   UNL     1      -9.872  -0.281   0.338  0.00  0.00    +0.105 A 
ATOM     30  C   UNL     1      -9.267  -0.522  -0.881  0.00  0.00    +0.029 A 
ATOM     31  C   UNL     1      -7.980  -1.024  -0.927  0.00  0.00    +0.005 A 
BRANCH  29  32
ATOM     32  S   UNL     1     -11.512   0.360   0.396  0.00  0.00    +0.056 S 
ATOM     33  O   UNL     1     -11.650   1.010   1.652  0.00  0.00    -0.153 OA
ATOM     34  O   UNL     1     -11.729   1.032  -0.837  0.00  0.00    -0.153 OA
BRANCH  32  35
ATOM     35  N   UNL     1     -12.544  -0.935   0.418  0.00  0.00    -0.204 NA
ATOM     36  H   UNL     1     -12.190  -1.837   0.398  0.00  0.00    +0.144 HD
ATOM     37  H   UNL     1     -13.503  -0.790   0.450  0.00  0.00    +0.144 HD
ENDBRANCH  32  35
ENDBRANCH  29  32
ENDBRANCH  25  26
ENDBRANCH  24  25
ENDBRANCH  22  24
ENDBRANCH  14  20
TORSDOF 6
