REMARK  Name = ZINC13033296
REMARK  10 active torsions:
REMARK  status: ('A' for Active; 'I' for Inactive)
REMARK    1  A    between atoms: C_1  and  C_2
REMARK    2  A    between atoms: C_2  and  C_3
REMARK    3  A    between atoms: C_10  and  C_15
REMARK    4  A    between atoms: C_15  and  N_69
REMARK    5  A    between atoms: C_16  and  C_17
REMARK    6  A    between atoms: C_16  and  N_69
REMARK    7  A    between atoms: C_20  and  C_23
REMARK    8  A    between atoms: C_24  and  C_25
REMARK    9  A    between atoms: C_24  and  N_69
REMARK   10  A    between atoms: N_29  and  C_30
REMARK                            x       y       z     vdW  Elec       q    Type
REMARK                         _______ _______ _______ _____ _____    ______ ____
ROOT
ATOM      1  N   UNL     1      -1.736   4.631   0.277  0.00  0.00    +0.390 N 
ATOM      2  H   UNL     1      -0.730   4.750   0.442  0.00  0.00    -0.080 HD
ENDROOT
BRANCH   1   3
ATOM      3  C   UNL     1      -2.442   4.656   1.575  0.00  0.00    -0.036 C 
BRANCH   3  11
ATOM      4  C   UNL     1       1.657   3.497   6.063  0.00  0.00    -0.047 A 
ATOM      5  C   UNL     1       1.435   2.128   6.127  0.00  0.00    +0.005 A 
ATOM      6  C   UNL     1       0.509   1.526   5.302  0.00  0.00    +0.026 A 
ATOM      7  C   UNL     1      -0.209   2.296   4.393  0.00  0.00    +0.049 A 
ATOM      8  C   UNL     1       0.019   3.684   4.331  0.00  0.00    -0.001 A 
ATOM      9  C   UNL     1       0.963   4.273   5.179  0.00  0.00    +0.013 A 
ATOM     10  C   UNL     1      -0.738   4.485   3.367  0.00  0.00    +0.017 A 
ATOM     11  C   UNL     1      -1.643   3.860   2.574  0.00  0.00    +0.001 A 
ATOM     12  C   UNL     1      -1.834   2.465   2.677  0.00  0.00    +0.251 A 
ATOM     13  O   UNL     1      -2.649   1.923   1.951  0.00  0.00    -0.268 OA
ATOM     14  N   UNL     1      -1.140   1.720   3.555  0.00  0.00    -0.322 N 
ATOM     15  H   UNL     1      -1.296   0.764   3.599  0.00  0.00    +0.169 HD
BRANCH   4  17
ATOM     16  C   UNL     1       1.993   4.560   8.277  0.00  0.00    +0.009 C 
ATOM     17  C   UNL     1       2.674   4.132   6.976  0.00  0.00    +0.032 C 
ENDBRANCH   4  17
ENDBRANCH   3  11
ENDBRANCH   1   3
BRANCH   1  18
ATOM     18  C   UNL     1      -2.216   5.736  -0.580  0.00  0.00    -0.042 C 
BRANCH  18  19
ATOM     19  C   UNL     1      -1.657   7.033  -0.057  0.00  0.00    -0.064 A 
ATOM     20  C   UNL     1      -2.416   7.825   0.784  0.00  0.00    +0.002 A 
ATOM     21  C   UNL     1      -1.901   9.013   1.268  0.00  0.00    +0.003 A 
ATOM     22  C   UNL     1      -0.629   9.414   0.903  0.00  0.00    -0.050 A 
ATOM     23  C   UNL     1       0.129   8.624   0.059  0.00  0.00    +0.003 A 
ATOM     24  C   UNL     1      -0.385   7.434  -0.422  0.00  0.00    +0.002 A 
ATOM     25  C   UNL     1      -0.069  10.711   1.427  0.00  0.00    +0.044 C 
ENDBRANCH  18  19
ENDBRANCH   1  18
BRANCH   1  26
ATOM     26  C   UNL     1      -1.962   3.335  -0.397  0.00  0.00    +0.001 C 
BRANCH  26  27
ATOM     27  C   UNL     1      -1.062   3.250  -1.602  0.00  0.00    +0.135 A 
ATOM     28  N   UNL     1      -1.351   3.630  -2.823  0.00  0.00    -0.115 NA
ATOM     29  N   UNL     1      -0.325   3.395  -3.566  0.00  0.00    -0.023 NA
ATOM     30  N   UNL     1       0.613   2.881  -2.850  0.00  0.00    -0.044 NA
ATOM     31  N   UNL     1       0.195   2.770  -1.635  0.00  0.00    -0.228 N 
BRANCH  31  32
ATOM     32  C   UNL     1       0.949   2.229  -0.501  0.00  0.00    +0.111 C 
ATOM     33  C   UNL     1       2.217   3.059  -0.290  0.00  0.00    +0.027 C 
ATOM     34  C   UNL     1       3.005   2.494   0.894  0.00  0.00    +0.002 C 
ATOM     35  C   UNL     1       3.388   1.041   0.605  0.00  0.00    +0.000 C 
ATOM     36  C   UNL     1       2.120   0.211   0.393  0.00  0.00    +0.002 C 
ATOM     37  C   UNL     1       1.333   0.776  -0.790  0.00  0.00    +0.027 C 
ENDBRANCH  31  32
ENDBRANCH  26  27
ENDBRANCH   1  26
TORSDOF 8
