REMARK  Name = ZINC05058824
REMARK  5 active torsions:
REMARK  status: ('A' for Active; 'I' for Inactive)
REMARK    1  A    between atoms: C_1  and  C_2
REMARK    2  A    between atoms: C_7  and  N_12
REMARK    3  A    between atoms: C_9  and  C_11
REMARK    4  A    between atoms: C_13  and  C_15
REMARK    5  A    between atoms: C_16  and  C_26
REMARK                            x       y       z     vdW  Elec       q    Type
REMARK                         _______ _______ _______ _____ _____    ______ ____
ROOT
ATOM      1  N   UNL     1       0.735  -0.503   3.687  0.00  0.00    -0.308 N 
ATOM      2  C   UNL     1       0.634   0.166   4.853  0.00  0.00    +0.245 C 
ATOM      3  O   UNL     1      -0.045   1.172   4.919  0.00  0.00    -0.270 OA
ATOM      4  H   UNL     1       1.276  -1.306   3.634  0.00  0.00    +0.149 HD
ENDROOT
BRANCH   2   5
ATOM      5  C   UNL     1       1.348  -0.323   6.049  0.00  0.00    +0.067 C 
ATOM      6  C   UNL     1       1.338   0.232   7.274  0.00  0.00    +0.045 C 
ATOM      7  C   UNL     1       2.183  -0.579   8.166  0.00  0.00    +0.336 C 
ATOM      8  O   UNL     1       2.383  -0.346   9.341  0.00  0.00    -0.245 OA
ATOM      9  O   UNL     1       2.700  -1.617   7.484  0.00  0.00    -0.450 OA
ATOM     10  C   UNL     1       2.226  -1.547   6.137  0.00  0.00    +0.144 C 
ATOM     11  C   UNL     1       1.415  -2.797   5.797  0.00  0.00    +0.053 C 
ATOM     12  C   UNL     1       2.312  -4.032   5.907  0.00  0.00    +0.004 C 
ATOM     13  C   UNL     1       3.487  -3.897   4.936  0.00  0.00    +0.000 C 
ATOM     14  C   UNL     1       4.300  -2.649   5.288  0.00  0.00    +0.004 C 
ATOM     15  C   UNL     1       3.407  -1.411   5.176  0.00  0.00    +0.053 C 
ATOM     16  C   UNL     1       0.586   1.477   7.667  0.00  0.00    +0.052 C 
ENDBRANCH   2   5
BRANCH   1  22
ATOM     17  C   UNL     1      -0.019   1.526   0.010  0.00  0.00    +0.008 C 
ATOM     18  C   UNL     1       0.002  -0.004   0.002  0.00  0.00    -0.009 C 
ATOM     19  C   UNL     1      -1.433  -0.534   0.013  0.00  0.00    +0.003 C 
ATOM     20  C   UNL     1      -2.149  -0.040   1.272  0.00  0.00    +0.002 C 
ATOM     21  C   UNL     1      -1.409  -0.547   2.511  0.00  0.00    +0.022 C 
ATOM     22  C   UNL     1       0.026  -0.018   2.500  0.00  0.00    +0.076 C 
ATOM     23  C   UNL     1       0.742  -0.511   1.242  0.00  0.00    +0.009 C 
ATOM     24  C   UNL     1       2.178   0.019   1.231  0.00  0.00    +0.009 C 
ENDBRANCH   1  22
TORSDOF 2
