REMARK  Name = ZINC34830307
REMARK  7 active torsions:
REMARK  status: ('A' for Active; 'I' for Inactive)
REMARK    1  A    between atoms: C_1  and  C_2
REMARK    2  A    between atoms: C_7  and  C_8
REMARK    3  A    between atoms: N_17  and  C_18
REMARK    4  A    between atoms: C_18  and  C_20
REMARK    5  A    between atoms: C_18  and  C_21
REMARK    6  A    between atoms: C_29  and  C_31
REMARK    7  A    between atoms: C_34  and  N_37
REMARK                            x       y       z     vdW  Elec       q    Type
REMARK                         _______ _______ _______ _____ _____    ______ ____
ROOT
ATOM      1  C   UNL     1       1.819  -0.640   2.893  0.00  0.00    +0.018 C 
ATOM      2  C   UNL     1       2.475  -1.591   3.896  0.00  0.00    -0.004 C 
ENDROOT
BRANCH   1  11
ATOM      3  C   UNL     1       0.446   0.438   4.531  0.00  0.00    -0.005 C 
ATOM      4  C   UNL     1      -0.991   0.626   5.009  0.00  0.00    -0.047 A 
ATOM      5  C   UNL     1      -1.395   1.630   5.886  0.00  0.00    +0.010 A 
ATOM      6  C   UNL     1      -2.694   1.723   6.256  0.00  0.00    +0.045 A 
ATOM      7  S   UNL     1      -3.431   0.362   5.361  0.00  0.00    -0.101 S 
ATOM      8  C   UNL     1      -1.960  -0.224   4.569  0.00  0.00    -0.010 A 
ATOM      9  C   UNL     1      -1.774  -1.375   3.635  0.00  0.00    +0.024 C 
ATOM     10  C   UNL     1      -0.263  -1.644   3.527  0.00  0.00    -0.071 C 
ATOM     11  N   UNL     1       0.435  -0.370   3.306  0.00  0.00    +0.395 N 
ATOM     12  H   UNL     1      -0.035   0.141   2.574  0.00  0.00    -0.079 HD
BRANCH   3  19
ATOM     13  C   UNL     1       1.799   1.886   6.633  0.00  0.00    +0.044 C 
ATOM     14  C   UNL     1       1.710   2.475   5.249  0.00  0.00    -0.049 A 
ATOM     15  C   UNL     1       2.281   3.706   4.984  0.00  0.00    +0.003 A 
ATOM     16  C   UNL     1       2.199   4.247   3.715  0.00  0.00    +0.000 A 
ATOM     17  C   UNL     1       1.547   3.557   2.710  0.00  0.00    +0.000 A 
ATOM     18  C   UNL     1       0.977   2.326   2.975  0.00  0.00    +0.002 A 
ATOM     19  C   UNL     1       1.062   1.783   4.243  0.00  0.00    -0.054 A 
ENDBRANCH   3  19
ENDBRANCH   1  11
BRANCH   1  20
ATOM     20  C   UNL     1       1.821  -1.272   1.525  0.00  0.00    +0.202 C 
ATOM     21  O   UNL     1       0.837  -1.857   1.126  0.00  0.00    -0.277 OA
ATOM     22  N   UNL     1       2.917  -1.187   0.745  0.00  0.00    -0.300 N 
ATOM     23  C   UNL     1       4.156  -0.584   1.258  0.00  0.00    +0.126 C 
ATOM     24  C   UNL     1       5.298  -1.593   1.091  0.00  0.00    +0.127 C 
ATOM     25  N   UNL     1       5.277  -2.103  -0.287  0.00  0.00    -0.295 N 
ATOM     26  C   UNL     1       4.039  -2.706  -0.800  0.00  0.00    +0.127 C 
ATOM     27  C   UNL     1       2.898  -1.702  -0.631  0.00  0.00    +0.126 C 
ATOM     28  C   UNL     1       6.373  -2.018  -1.067  0.00  0.00    +0.247 C 
ATOM     29  O   UNL     1       6.316  -2.353  -2.234  0.00  0.00    -0.270 OA
BRANCH  28  30
ATOM     30  C   UNL     1       7.644  -1.518  -0.503  0.00  0.00    +0.037 A 
ATOM     31  C   UNL     1       8.027  -1.877   0.790  0.00  0.00    +0.015 A 
ATOM     32  C   UNL     1       9.215  -1.407   1.310  0.00  0.00    +0.033 A 
ATOM     33  C   UNL     1      10.027  -0.581   0.553  0.00  0.00    +0.126 A 
ATOM     34  C   UNL     1       9.653  -0.220  -0.729  0.00  0.00    +0.033 A 
ATOM     35  C   UNL     1       8.470  -0.689  -1.264  0.00  0.00    +0.015 A 
BRANCH  33  36
ATOM     36  N   UNL     1      11.300  -0.080   1.118  0.00  0.00    +0.056 N 
ATOM     37  O   UNL     1      11.629  -0.393   2.238  0.00  0.00    -0.126 OA
ATOM     38  O   UNL     1      12.011   0.642   0.458  0.00  0.00    -0.126 OA
ENDBRANCH  33  36
ENDBRANCH  28  30
ENDBRANCH   1  20
TORSDOF 5
