REMARK  Name = ZINC13499284
REMARK  14 active torsions:
REMARK  status: ('A' for Active; 'I' for Inactive)
REMARK    1  A    between atoms: C_1  and  C_2
REMARK    2  A    between atoms: C_2  and  C_3
REMARK    3  A    between atoms: C_3  and  C_4
REMARK    4  A    between atoms: C_4  and  C_6
REMARK    5  A    between atoms: C_4  and  N_74
REMARK    6  A    between atoms: N_10  and  C_11
REMARK    7  A    between atoms: C_11  and  C_12
REMARK    8  A    between atoms: C_11  and  C_13
REMARK    9  A    between atoms: C_11  and  C_14
REMARK   10  A    between atoms: C_14  and  C_15
REMARK   11  A    between atoms: C_16  and  C_17
REMARK   12  A    between atoms: C_16  and  N_74
REMARK   13  A    between atoms: C_22  and  C_29
REMARK   14  A    between atoms: C_30  and  N_74
REMARK                            x       y       z     vdW  Elec       q    Type
REMARK                         _______ _______ _______ _____ _____    ______ ____
ROOT
ATOM      1  N   UNL     1       3.041   0.221   0.939  0.00  0.00    +0.391 N 
ATOM      2  H   UNL     1       2.159  -0.219   0.650  0.00  0.00    -0.080 HD
ENDROOT
BRANCH   1   3
ATOM      3  C   UNL     1       2.756   1.224   1.986  0.00  0.00    -0.067 C 
ATOM      4  C   UNL     1       4.059   1.803   2.542  0.00  0.00    -0.015 C 
ATOM      5  C   UNL     1       3.737   2.836   3.624  0.00  0.00    -0.002 C 
ATOM      6  C   UNL     1       2.954   2.163   4.754  0.00  0.00    -0.000 C 
ATOM      7  C   UNL     1       1.651   1.585   4.197  0.00  0.00    -0.002 C 
ATOM      8  C   UNL     1       1.973   0.552   3.115  0.00  0.00    -0.015 C 
ENDBRANCH   1   3
BRANCH   1   9
ATOM      9  C   UNL     1       3.945  -0.821   1.470  0.00  0.00    +0.003 C 
BRANCH   9  10
ATOM     10  C   UNL     1       5.367  -0.324   1.491  0.00  0.00    +0.139 A 
ATOM     11  N   UNL     1       5.943   0.438   0.594  0.00  0.00    -0.115 NA
ATOM     12  N   UNL     1       7.158   0.645   0.968  0.00  0.00    -0.023 NA
ATOM     13  N   UNL     1       7.375   0.028   2.077  0.00  0.00    -0.043 NA
ATOM     14  N   UNL     1       6.294  -0.581   2.432  0.00  0.00    -0.225 N 
BRANCH  14  15
ATOM     15  C   UNL     1       6.111  -1.400   3.634  0.00  0.00    +0.061 C 
ATOM     16  C   UNL     1       5.126  -0.707   4.577  0.00  0.00    +0.036 C 
ATOM     17  C   UNL     1       5.559  -2.771   3.237  0.00  0.00    +0.036 C 
BRANCH  15  18
ATOM     18  C   UNL     1       7.457  -1.576   4.340  0.00  0.00    +0.026 C 
ATOM     19  C   UNL     1       7.265  -2.431   5.595  0.00  0.00    +0.006 C 
ENDBRANCH  15  18
ENDBRANCH  14  15
ENDBRANCH   9  10
BRANCH   9  20
ATOM     20  C   UNL     1       3.849  -2.057   0.572  0.00  0.00    -0.008 C 
BRANCH  20  22
ATOM     21  C   UNL     1       2.376  -3.943  -0.143  0.00  0.00    +0.004 C 
ATOM     22  C   UNL     1       2.437  -2.640   0.655  0.00  0.00    -0.005 C 
ENDBRANCH  20  22
ENDBRANCH   9  20
ENDBRANCH   1   9
BRANCH   1  23
ATOM     23  C   UNL     1       3.658   0.875  -0.234  0.00  0.00    -0.036 C 
BRANCH  23  24
ATOM     24  C   UNL     1       2.589   1.624  -0.988  0.00  0.00    +0.001 A 
ATOM     25  C   UNL     1       2.542   2.978  -0.927  0.00  0.00    +0.017 A 
ATOM     26  C   UNL     1       1.492   3.675  -1.671  0.00  0.00    -0.001 A 
ATOM     27  C   UNL     1       1.393   5.070  -1.647  0.00  0.00    +0.010 A 
ATOM     28  C   UNL     1       0.401   5.691  -2.353  0.00  0.00    +0.004 A 
ATOM     29  C   UNL     1      -0.510   4.949  -3.093  0.00  0.00    -0.048 A 
ATOM     30  C   UNL     1      -0.431   3.574  -3.131  0.00  0.00    +0.029 A 
ATOM     31  C   UNL     1       0.571   2.920  -2.421  0.00  0.00    +0.049 A 
ATOM     32  N   UNL     1       0.675   1.545  -2.445  0.00  0.00    -0.322 N 
ATOM     33  H   UNL     1       0.042   1.027  -2.965  0.00  0.00    +0.169 HD
ATOM     34  C   UNL     1       1.640   0.913  -1.754  0.00  0.00    +0.251 A 
ATOM     35  O   UNL     1       1.700  -0.303  -1.795  0.00  0.00    -0.268 OA
ATOM     36  C   UNL     1      -1.596   5.655  -3.863  0.00  0.00    +0.044 C 
ENDBRANCH  23  24
ENDBRANCH   1  23
TORSDOF 9
