REMARK  Name = ZINC08740159
REMARK  7 active torsions:
REMARK  status: ('A' for Active; 'I' for Inactive)
REMARK    1  A    between atoms: C_1  and  C_2
REMARK    2  A    between atoms: C_5  and  O_32
REMARK    3  A    between atoms: C_18  and  C_31
REMARK    4  A    between atoms: C_19  and  O_30
REMARK    5  A    between atoms: C_22  and  C_24
REMARK    6  A    between atoms: O_32  and  C_33
REMARK    7  A    between atoms: C_33  and  C_35
REMARK                            x       y       z     vdW  Elec       q    Type
REMARK                         _______ _______ _______ _____ _____    ______ ____
ROOT
ATOM      1  C   UNL     1       9.153   2.199   2.941  0.00  0.00    +0.012 C 
ATOM      2  C   UNL     1       7.965   3.137   2.718  0.00  0.00    -0.026 C 
ATOM      3  C   UNL     1       8.457   4.428   2.062  0.00  0.00    +0.011 C 
ATOM      4  C   UNL     1       9.482   5.106   2.973  0.00  0.00    +0.045 C 
ATOM      5  C   UNL     1       8.830   5.436   4.317  0.00  0.00    +0.177 C 
ATOM      6  C   UNL     1       8.338   4.146   4.975  0.00  0.00    +0.048 C 
ATOM      7  C   UNL     1       7.315   3.465   4.065  0.00  0.00    -0.001 C 
ATOM      8  C   UNL     1       6.127   4.402   3.837  0.00  0.00    +0.004 C 
ATOM      9  C   UNL     1       5.100   3.707   2.942  0.00  0.00    +0.007 C 
ATOM     10  C   UNL     1       5.737   3.367   1.593  0.00  0.00    +0.025 C 
ATOM     11  C   UNL     1       6.945   2.456   1.808  0.00  0.00    +0.001 C 
ATOM     12  C   UNL     1       6.456   1.156   2.456  0.00  0.00    +0.005 C 
ATOM     13  C   UNL     1       5.527   0.448   1.473  0.00  0.00    +0.010 C 
ATOM     14  C   UNL     1       4.299   1.306   1.163  0.00  0.00    +0.004 C 
ATOM     15  C   UNL     1       4.716   2.711   0.691  0.00  0.00    +0.075 C 
ATOM     16  C   UNL     1       5.254   2.466  -0.731  0.00  0.00    +0.036 C 
ATOM     17  C   UNL     1       4.275   1.418  -1.309  0.00  0.00    +0.011 C 
ATOM     18  C   UNL     1       3.642   0.697  -0.105  0.00  0.00    +0.027 C 
ATOM     19  C   UNL     1       3.327   1.349   2.343  0.00  0.00    +0.014 C 
ENDROOT
BRANCH  18  20
ATOM     20  C   UNL     1       2.154   0.935  -0.082  0.00  0.00    -0.022 C 
ATOM     21  C   UNL     1       1.205   0.009   0.018  0.00  0.00    +0.094 C 
ATOM     22  C   UNL     1      -0.112   0.653   0.004  0.00  0.00    +0.332 C 
ATOM     23  O   UNL     1      -1.175   0.069   0.081  0.00  0.00    -0.246 OA
ATOM     24  O   UNL     1       0.031   1.987  -0.106  0.00  0.00    -0.457 OA
ATOM     25  C   UNL     1       1.456   2.273  -0.169  0.00  0.00    +0.264 C 
ENDBRANCH  18  20
BRANCH  15  26
ATOM     26  O   UNL     1       3.558   3.543   0.606  0.00  0.00    -0.388 OA
ATOM     27  H   UNL     1       3.742   4.446   0.314  0.00  0.00    +0.210 HD
ENDBRANCH  15  26
BRANCH   5  28
ATOM     28  O   UNL     1       9.802   6.081   5.181  0.00  0.00    -0.461 OA
BRANCH  28  29
ATOM     29  C   UNL     1       9.878   7.420   5.121  0.00  0.00    +0.318 C 
ATOM     30  O   UNL     1       9.156   8.033   4.370  0.00  0.00    -0.250 OA
BRANCH  29  31
ATOM     31  C   UNL     1      10.863   8.159   5.989  0.00  0.00    +0.200 C 
ATOM     32 BR   UNL     1      10.714  10.090   5.653  0.00  0.00    -0.080 Br
ENDBRANCH  29  31
ENDBRANCH  28  29
ENDBRANCH   5  28
TORSDOF 5
