REMARK  Name = ZINC02104435
REMARK  9 active torsions:
REMARK  status: ('A' for Active; 'I' for Inactive)
REMARK    1  A    between atoms: C_1  and  C_2
REMARK    2  A    between atoms: C_2  and  C_3
REMARK    3  A    between atoms: C_3  and  C_4
REMARK    4  A    between atoms: C_4  and  C_5
REMARK    5  A    between atoms: C_5  and  C_6
REMARK    6  A    between atoms: C_6  and  S_7
REMARK    7  A    between atoms: S_7  and  C_8
REMARK    8  A    between atoms: C_21  and  C_24
REMARK    9  A    between atoms: C_27  and  C_29
REMARK                            x       y       z     vdW  Elec       q    Type
REMARK                         _______ _______ _______ _____ _____    ______ ____
ROOT
ATOM      1  C   UNL     1      -7.401   1.645   5.361  0.00  0.00    +0.212 A 
ATOM      2  N   UNL     1      -6.087   1.584   5.161  0.00  0.00    -0.184 NA
ATOM      3  C   UNL     1      -5.623   1.520   3.925  0.00  0.00    +0.248 A 
ATOM      4  C   UNL     1      -6.545   1.522   2.853  0.00  0.00    +0.156 A 
ATOM      5  N   UNL     1      -7.840   1.581   3.120  0.00  0.00    -0.141 NA
ATOM      6  N   UNL     1      -8.249   1.640   4.341  0.00  0.00    -0.122 NA
ATOM      7  C   UNL     1      -6.048   1.464   1.462  0.00  0.00    +0.029 A 
ATOM      8  C   UNL     1      -6.586   0.583   0.533  0.00  0.00    +0.027 A 
ATOM      9  C   UNL     1      -6.102   0.571  -0.762  0.00  0.00    +0.019 A 
ATOM     10  C   UNL     1      -5.086   1.434  -1.138  0.00  0.00    +0.017 A 
ATOM     11  C   UNL     1      -4.538   2.312  -0.221  0.00  0.00    +0.025 A 
ATOM     12  C   UNL     1      -5.005   2.330   1.081  0.00  0.00    +0.040 A 
ATOM     13  N   UNL     1      -4.456   3.186   2.040  0.00  0.00    -0.303 N 
ATOM     14  C   UNL     1      -3.672   2.610   3.127  0.00  0.00    +0.329 C 
ATOM     15  O   UNL     1      -4.295   1.452   3.673  0.00  0.00    -0.445 OA
ATOM     16 BR   UNL     1      -6.832  -0.629  -2.027  0.00  0.00    -0.050 Br
ATOM     17  H   UNL     1      -4.594   4.145   1.984  0.00  0.00    +0.150 HD
ENDROOT
BRANCH  14  18
ATOM     18  C   UNL     1      -2.309   2.234   2.604  0.00  0.00    +0.164 A 
ATOM     19  C   UNL     1      -1.162   2.263   3.306  0.00  0.00    +0.050 A 
ATOM     20  C   UNL     1      -0.136   1.835   2.432  0.00  0.00    +0.045 A 
ATOM     21  C   UNL     1      -0.718   1.572   1.248  0.00  0.00    +0.102 A 
ATOM     22  O   UNL     1      -2.033   1.821   1.357  0.00  0.00    -0.459 OA
ATOM     23  C   UNL     1      -0.013   1.086   0.008  0.00  0.00    +0.086 C 
ENDBRANCH  14  18
BRANCH   1  24
ATOM     24  S   UNL     1      -8.024   1.731   7.007  0.00  0.00    -0.084 S 
BRANCH  24  25
ATOM     25  C   UNL     1      -9.801   1.790   6.667  0.00  0.00    +0.077 C 
BRANCH  25  26
ATOM     26  C   UNL     1     -10.570   1.870   7.987  0.00  0.00    +0.011 C 
BRANCH  26  27
ATOM     27  C   UNL     1     -12.072   1.919   7.700  0.00  0.00    +0.001 C 
BRANCH  27  28
ATOM     28  C   UNL     1     -12.842   1.999   9.020  0.00  0.00    -0.000 C 
BRANCH  28  30
ATOM     29  C   UNL     1     -15.113   2.129  10.053  0.00  0.00    +0.004 C 
ATOM     30  C   UNL     1     -14.344   2.049   8.732  0.00  0.00    -0.003 C 
ENDBRANCH  28  30
ENDBRANCH  27  28
ENDBRANCH  26  27
ENDBRANCH  25  26
ENDBRANCH  24  25
ENDBRANCH   1  24
TORSDOF 7
