REMARK  Name = ZINC13211511
REMARK  11 active torsions:
REMARK  status: ('A' for Active; 'I' for Inactive)
REMARK    1  A    between atoms: C_1  and  N_2
REMARK    2  A    between atoms: N_2  and  C_3
REMARK    3  A    between atoms: N_2  and  C_4
REMARK    4  A    between atoms: C_4  and  C_6
REMARK    5  A    between atoms: C_4  and  C_29
REMARK    6  A    between atoms: C_6  and  N_7
REMARK    7  A    between atoms: N_7  and  C_8
REMARK    8  A    between atoms: C_11  and  N_26
REMARK    9  A    between atoms: C_13  and  S_14
REMARK   10  A    between atoms: S_14  and  N_17
REMARK   11  A    between atoms: C_20  and  C_23
REMARK                            x       y       z     vdW  Elec       q    Type
REMARK                         _______ _______ _______ _____ _____    ______ ____
ROOT
ATOM      1  C   UNL     1      -1.335  -0.695  -3.832  0.00  0.00    +0.054 A 
ATOM      2  C   UNL     1      -2.442   0.018  -4.276  0.00  0.00    +0.027 A 
ATOM      3  C   UNL     1      -2.600   0.278  -5.622  0.00  0.00    +0.034 A 
ATOM      4  C   UNL     1      -1.657  -0.169  -6.530  0.00  0.00    +0.128 A 
ATOM      5  C   UNL     1      -0.553  -0.879  -6.092  0.00  0.00    +0.063 A 
ATOM      6  C   UNL     1      -0.387  -1.138  -4.746  0.00  0.00    +0.128 A 
ENDROOT
BRANCH   6   7
ATOM      7  S   UNL     1       1.023  -2.036  -4.188  0.00  0.00    +0.063 S 
ATOM      8  O   UNL     1       0.544  -3.023  -3.285  0.00  0.00    -0.153 OA
ATOM      9  O   UNL     1       1.779  -2.365  -5.346  0.00  0.00    -0.153 OA
BRANCH   7  10
ATOM     10  N   UNL     1       1.950  -0.990  -3.299  0.00  0.00    -0.176 NA
ATOM     11  C   UNL     1       2.870  -0.056  -3.963  0.00  0.00    +0.110 C 
ATOM     12  C   UNL     1       4.269  -0.234  -3.364  0.00  0.00    +0.032 C 
ATOM     13  C   UNL     1       4.193  -0.069  -1.844  0.00  0.00    +0.105 C 
ATOM     14  C   UNL     1       3.277  -1.145  -1.258  0.00  0.00    +0.032 C 
ATOM     15  C   UNL     1       1.863  -0.974  -1.833  0.00  0.00    +0.110 C 
BRANCH  13  16
ATOM     16  C   UNL     1       5.574  -0.209  -1.255  0.00  0.00    +0.359 C 
ATOM     17  O   UNL     1       5.925   0.521  -0.345  0.00  0.00    -0.246 OA
ATOM     18  O   UNL     1       6.339  -1.053  -1.690  0.00  0.00    -0.246 OA
ENDBRANCH  13  16
ENDBRANCH   7  10
ENDBRANCH   6   7
BRANCH   4  19
ATOM     19  N   UNL     1      -1.829   0.112  -7.973  0.00  0.00    +0.056 N 
ATOM     20  O   UNL     1      -2.793   0.732  -8.357  0.00  0.00    -0.126 OA
ATOM     21  O   UNL     1      -1.005  -0.278  -8.767  0.00  0.00    -0.126 OA
ENDBRANCH   4  19
BRANCH   1  22
ATOM     22  N   UNL     1      -1.172  -0.960  -2.471  0.00  0.00    -0.340 N 
ATOM     23  H   UNL     1      -0.377  -1.419  -2.157  0.00  0.00    +0.146 HD
BRANCH  22  24
ATOM     24  C   UNL     1      -2.202  -0.545  -1.515  0.00  0.00    +0.125 C 
BRANCH  24  25
ATOM     25  C   UNL     1      -1.781  -0.952  -0.102  0.00  0.00    +0.110 C 
BRANCH  25  26
ATOM     26  C   UNL     1      -2.780  -0.418   0.893  0.00  0.00    +0.008 A 
ATOM     27  C   UNL     1      -3.624  -1.101   1.704  0.00  0.00    +0.013 A 
ATOM     28  C   UNL     1      -4.461  -0.394   2.547  0.00  0.00    +0.008 A 
ATOM     29  C   UNL     1      -4.413   0.961   2.537  0.00  0.00    +0.045 A 
ATOM     30  S   UNL     1      -3.150   1.276   1.315  0.00  0.00    -0.100 S 
ENDBRANCH  25  26
BRANCH  25  32
ATOM     31  C   UNL     1      -0.465   1.068   0.114  0.00  0.00    +0.105 C 
ATOM     32  N   UNL     1      -0.453  -0.399   0.192  0.00  0.00    -0.300 NA
ATOM     33  C   UNL     1       0.028  -0.852   1.504  0.00  0.00    +0.105 C 
ENDBRANCH  25  32
ENDBRANCH  24  25
ENDBRANCH  22  24
ENDBRANCH   1  22
TORSDOF 9
