REMARK  Name = ZINC39466460
REMARK  9 active torsions:
REMARK  status: ('A' for Active; 'I' for Inactive)
REMARK    1  A    between atoms: C_1  and  C_2
REMARK    2  A    between atoms: C_7  and  C_9
REMARK    3  A    between atoms: C_7  and  C_10
REMARK    4  A    between atoms: N_11  and  C_13
REMARK    5  A    between atoms: C_13  and  C_14
REMARK    6  A    between atoms: C_18  and  C_21
REMARK    7  A    between atoms: N_23  and  C_24
REMARK    8  A    between atoms: C_24  and  C_25
REMARK    9  A    between atoms: N_34  and  C_35
REMARK                            x       y       z     vdW  Elec       q    Type
REMARK                         _______ _______ _______ _____ _____    ______ ____
ROOT
ATOM      1  C   UNL     1       1.363  -2.436  -3.411  0.00  0.00    +0.003 A 
ATOM      2  N   UNL     1       0.695  -2.093  -4.538  0.00  0.00    -0.327 N 
ATOM      3  C   UNL     1       1.356  -1.730  -5.654  0.00  0.00    +0.261 A 
ATOM      4  O   UNL     1       0.737  -1.425  -6.659  0.00  0.00    -0.267 OA
ATOM      5  C   UNL     1       2.774  -1.704  -5.656  0.00  0.00    +0.101 A 
ATOM      6  C   UNL     1       3.454  -2.057  -4.492  0.00  0.00    +0.020 A 
ATOM      7  C   UNL     1       2.719  -2.420  -3.364  0.00  0.00    +0.020 A 
ATOM      8  H   UNL     1      -0.275  -2.110  -4.542  0.00  0.00    +0.169 HD
ENDROOT
BRANCH   5   9
ATOM      9  C   UNL     1       3.514  -1.311  -6.865  0.00  0.00    +0.250 C 
ATOM     10  O   UNL     1       4.724  -1.189  -6.825  0.00  0.00    -0.270 OA
ATOM     11  N   UNL     1       2.851  -1.086  -8.017  0.00  0.00    -0.307 N 
ATOM     12  H   UNL     1       1.882  -1.110  -8.031  0.00  0.00    +0.149 HD
BRANCH  11  13
ATOM     13  C   UNL     1       3.595  -0.804  -9.247  0.00  0.00    +0.139 C 
BRANCH  13  14
ATOM     14  C   UNL     1       2.627  -0.591 -10.382  0.00  0.00    -0.030 A 
ATOM     15  C   UNL     1       2.213  -1.667 -11.146  0.00  0.00    +0.007 A 
ATOM     16  C   UNL     1       1.328  -1.471 -12.187  0.00  0.00    +0.024 A 
ATOM     17  C   UNL     1       0.852  -0.195 -12.466  0.00  0.00    +0.033 A 
ATOM     18  C   UNL     1       1.265   0.883 -11.697  0.00  0.00    -0.026 A 
ATOM     19  C   UNL     1       2.151   0.677 -10.653  0.00  0.00    +0.010 A 
ATOM     20  C   UNL     1       0.763   2.277 -11.963  0.00  0.00    +0.038 C 
ATOM     21  C   UNL     1       0.229   2.391 -13.390  0.00  0.00    +0.024 C 
ATOM     22  C   UNL     1      -0.771   1.253 -13.638  0.00  0.00    +0.105 C 
ATOM     23  N   UNL     1      -0.041  -0.017 -13.528  0.00  0.00    -0.333 N 
ATOM     24  C   UNL     1      -0.245  -1.081 -14.514  0.00  0.00    +0.129 C 
ENDBRANCH  13  14
ENDBRANCH  11  13
ENDBRANCH   5   9
BRANCH   1  25
ATOM     25  C   UNL     1       0.585  -2.836  -2.183  0.00  0.00    -0.024 C 
BRANCH  25  35
ATOM     26  C   UNL     1       0.043   1.510   0.047  0.00  0.00    +0.009 C 
ATOM     27  C   UNL     1       0.048  -0.025   0.026  0.00  0.00    -0.048 C 
ATOM     28  C   UNL     1      -1.387  -0.622   0.027  0.00  0.00    -0.011 C 
ATOM     29  C   UNL     1      -1.078  -2.023  -0.573  0.00  0.00    -0.067 C 
ATOM     30  C   UNL     1      -0.377  -2.839   0.495  0.00  0.00    -0.009 C 
ATOM     31  C   UNL     1       0.684  -2.140   1.316  0.00  0.00    -0.036 C 
ATOM     32  C   UNL     1       0.771  -0.630   1.229  0.00  0.00    +0.011 C 
ATOM     33  C   UNL     1       2.062  -2.742   0.983  0.00  0.00    +0.011 C 
ATOM     34  C   UNL     1       0.415  -2.493   2.803  0.00  0.00    +0.011 C 
ATOM     35  N   UNL     1      -0.190  -1.697  -1.706  0.00  0.00    +0.386 N 
ATOM     36  C   UNL     1       0.684  -0.594  -1.264  0.00  0.00    -0.071 C 
ATOM     37  H   UNL     1      -0.767  -1.350  -2.475  0.00  0.00    -0.081 HD
ENDBRANCH  25  35
ENDBRANCH   1  25
TORSDOF 5
