REMARK  Name = ZINC44260223
REMARK  4 active torsions:
REMARK  status: ('A' for Active; 'I' for Inactive)
REMARK    1  A    between atoms: C_5  and  N_8
REMARK    2  A    between atoms: C_6  and  N_7
REMARK    3  A    between atoms: N_8  and  S_9
REMARK    4  A    between atoms: S_9  and  C_12
REMARK                            x       y       z     vdW  Elec       q    Type
REMARK                         _______ _______ _______ _____ _____    ______ ____
ROOT
ATOM      1  C   UNL     1       0.544   1.268  -1.394  0.00  0.00    +0.040 A 
ATOM      2  C   UNL     1       1.119   2.070  -0.423  0.00  0.00    +0.021 A 
ATOM      3  C   UNL     1       1.733   1.499   0.676  0.00  0.00    +0.032 A 
ATOM      4  C   UNL     1       1.777   0.122   0.811  0.00  0.00    +0.045 A 
ATOM      5  C   UNL     1       1.203  -0.688  -0.157  0.00  0.00    +0.109 A 
ATOM      6  C   UNL     1       0.583  -0.112  -1.266  0.00  0.00    +0.052 A 
ATOM      7 BR   UNL     1       2.619  -0.654   2.316  0.00  0.00    -0.048 Br
ATOM      8 BR   UNL     1       1.064   3.952  -0.601  0.00  0.00    -0.050 Br
ENDROOT
BRANCH   6   9
ATOM      9  N   UNL     1       0.002  -0.925  -2.246  0.00  0.00    -0.356 N 
ATOM     10  H   UNL     1      -0.429  -0.522  -3.017  0.00  0.00    +0.142 HD
ATOM     11  H   UNL     1       0.030  -1.890  -2.155  0.00  0.00    +0.142 HD
ENDBRANCH   6   9
BRANCH   5  12
ATOM     12  N   UNL     1       1.247  -2.082  -0.022  0.00  0.00    -0.095 NA
BRANCH  12  13
ATOM     13  S   UNL     1       2.689  -2.883  -0.167  0.00  0.00    +0.093 S 
ATOM     14  O   UNL     1       3.243  -2.499  -1.417  0.00  0.00    -0.148 OA
ATOM     15  O   UNL     1       3.380  -2.700   1.062  0.00  0.00    -0.148 OA
BRANCH  13  16
ATOM     16  C   UNL     1       2.320  -4.602  -0.286  0.00  0.00    +0.131 A 
ATOM     17  C   UNL     1       2.233  -5.382   0.857  0.00  0.00    +0.070 A 
ATOM     18  C   UNL     1       1.940  -6.732   0.715  0.00  0.00    +0.143 A 
ATOM     19  C   UNL     1       1.747  -7.249  -0.555  0.00  0.00    +0.149 A 
ATOM     20  N   UNL     1       1.838  -6.475  -1.618  0.00  0.00    -0.258 NA
ATOM     21  C   UNL     1       2.109  -5.188  -1.519  0.00  0.00    +0.139 A 
ATOM     22  F   UNL     1       1.846  -7.530   1.801  0.00  0.00    -0.204 F 
ENDBRANCH  13  16
ENDBRANCH  12  13
ENDBRANCH   5  12
TORSDOF 4
