REMARK  Name = ZINC25592209
REMARK  6 active torsions:
REMARK  status: ('A' for Active; 'I' for Inactive)
REMARK    1  A    between atoms: C_1  and  C_2
REMARK    2  A    between atoms: C_6  and  C_8
REMARK    3  A    between atoms: C_11  and  C_13
REMARK    4  A    between atoms: C_13  and  C_15
REMARK    5  A    between atoms: C_13  and  O_16
REMARK    6  A    between atoms: O_16  and  C_17
REMARK                            x       y       z     vdW  Elec       q    Type
REMARK                         _______ _______ _______ _____ _____    ______ ____
ROOT
ATOM      1  C   UNL     1       6.085   1.489  -2.389  0.00  0.00    +0.249 A 
ATOM      2  N   UNL     1       5.789   0.424  -1.681  0.00  0.00    -0.107 NA
ATOM      3  N   UNL     1       4.880   0.725  -0.822  0.00  0.00    -0.108 NA
ATOM      4  C   UNL     1       4.562   1.984  -0.946  0.00  0.00    +0.258 A 
ATOM      5  O   UNL     1       5.309   2.496  -1.940  0.00  0.00    -0.416 OA
ENDROOT
BRANCH   1  11
ATOM      6  C   UNL     1       9.528  -0.702  -5.259  0.00  0.00    +0.044 C 
ATOM      7  C   UNL     1       8.737   0.518  -4.864  0.00  0.00    -0.050 A 
ATOM      8  C   UNL     1       8.941   1.717  -5.524  0.00  0.00    +0.003 A 
ATOM      9  C   UNL     1       8.219   2.841  -5.168  0.00  0.00    +0.001 A 
ATOM     10  C   UNL     1       7.286   2.773  -4.154  0.00  0.00    +0.013 A 
ATOM     11  C   UNL     1       7.079   1.569  -3.480  0.00  0.00    +0.039 A 
ATOM     12  C   UNL     1       7.811   0.438  -3.845  0.00  0.00    +0.016 A 
ENDBRANCH   1  11
BRANCH   4  13
ATOM     13  C   UNL     1       3.539   2.728  -0.128  0.00  0.00    +0.257 C 
ATOM     14  C   UNL     1       4.106   3.009   1.265  0.00  0.00    +0.062 C 
BRANCH  13  15
ATOM     15  O   UNL     1       2.356   1.936  -0.010  0.00  0.00    -0.479 OA
BRANCH  15  16
ATOM     16  C   UNL     1       1.190   2.597   0.218  0.00  0.00    +0.136 A 
ATOM     17  C   UNL     1       1.200   3.967   0.437  0.00  0.00    +0.048 A 
ATOM     18  C   UNL     1       0.014   4.637   0.668  0.00  0.00    +0.019 A 
ATOM     19  C   UNL     1      -1.183   3.943   0.681  0.00  0.00    +0.019 A 
ATOM     20  C   UNL     1      -1.196   2.579   0.458  0.00  0.00    +0.034 A 
ATOM     21  C   UNL     1      -0.012   1.903   0.231  0.00  0.00    +0.061 A 
ATOM     22 BR   UNL     1      -0.029   0.036  -0.067  0.00  0.00    -0.046 Br
ATOM     23 BR   UNL     1      -2.804   4.864   0.999  0.00  0.00    -0.050 Br
ENDBRANCH  15  16
ENDBRANCH  13  15
ENDBRANCH   4  13
TORSDOF 4
