REMARK  Name = ZINC35973825
REMARK  11 active torsions:
REMARK  status: ('A' for Active; 'I' for Inactive)
REMARK    1  A    between atoms: C_1  and  C_2
REMARK    2  A    between atoms: C_2  and  C_3
REMARK    3  A    between atoms: C_3  and  C_5
REMARK    4  A    between atoms: C_3  and  O_6
REMARK    5  A    between atoms: O_6  and  C_7
REMARK    6  A    between atoms: C_7  and  C_9
REMARK    7  A    between atoms: C_10  and  C_40
REMARK    8  A    between atoms: C_14  and  C_16
REMARK    9  A    between atoms: C_29  and  C_32
REMARK   10  A    between atoms: C_35  and  O_38
REMARK   11  A    between atoms: O_38  and  C_39
REMARK                            x       y       z     vdW  Elec       q    Type
REMARK                         _______ _______ _______ _____ _____    ______ ____
ROOT
ATOM      1  C   UNL     1      -3.877   0.565  -2.172  0.00  0.00    +0.065 C 
ATOM      2  C   UNL     1      -5.188   0.544  -1.874  0.00  0.00    +0.016 C 
ATOM      3  N   UNL     1      -6.123   0.767  -2.846  0.00  0.00    -0.321 N 
ATOM      4  C   UNL     1      -5.802   0.624  -4.169  0.00  0.00    +0.016 C 
ATOM      5  C   UNL     1      -4.513   0.645  -4.567  0.00  0.00    +0.024 C 
ATOM      6  C   UNL     1      -3.401   0.846  -3.566  0.00  0.00    +0.093 C 
ATOM      7  C   UNL     1      -4.169   0.483  -5.921  0.00  0.00    +0.162 C 
ATOM      8  O   UNL     1      -2.999   0.514  -6.247  0.00  0.00    -0.292 OA
ATOM      9  C   UNL     1      -5.223   0.272  -6.973  0.00  0.00    +0.088 C 
ATOM     10  C   UNL     1      -6.436  -0.413  -6.335  0.00  0.00    +0.032 C 
ATOM     11  C   UNL     1      -6.921   0.448  -5.166  0.00  0.00    +0.059 C 
ATOM     12  C   UNL     1      -5.630   0.271  -0.459  0.00  0.00    +0.061 C 
ATOM     13  H   UNL     1      -7.023   1.029  -2.595  0.00  0.00    +0.152 HD
ENDROOT
BRANCH   6  14
ATOM     14  C   UNL     1      -2.909   2.268  -3.644  0.00  0.00    -0.027 A 
ATOM     15  C   UNL     1      -3.781   3.303  -3.492  0.00  0.00    +0.005 A 
ATOM     16  C   UNL     1      -3.345   4.624  -3.561  0.00  0.00    +0.001 A 
ATOM     17  C   UNL     1      -2.035   4.920  -3.782  0.00  0.00    +0.008 A 
ATOM     18  C   UNL     1      -1.105   3.878  -3.944  0.00  0.00    -0.018 A 
ATOM     19  C   UNL     1      -1.548   2.534  -3.868  0.00  0.00    -0.014 A 
ATOM     20  C   UNL     1      -0.617   1.492  -4.024  0.00  0.00    +0.009 A 
ATOM     21  C   UNL     1       0.694   1.788  -4.239  0.00  0.00    +0.001 A 
ATOM     22  C   UNL     1       1.130   3.110  -4.308  0.00  0.00    +0.001 A 
ATOM     23  C   UNL     1       0.255   4.144  -4.175  0.00  0.00    +0.008 A 
ENDBRANCH   6  14
BRANCH  10  24
ATOM     24  C   UNL     1      -7.535  -0.552  -7.356  0.00  0.00    -0.043 A 
ATOM     25  C   UNL     1      -8.063   0.574  -7.960  0.00  0.00    +0.007 A 
ATOM     26  C   UNL     1      -9.071   0.449  -8.896  0.00  0.00    +0.046 A 
ATOM     27  C   UNL     1      -9.553  -0.808  -9.231  0.00  0.00    +0.120 A 
ATOM     28  C   UNL     1      -9.021  -1.937  -8.625  0.00  0.00    +0.046 A 
ATOM     29  C   UNL     1      -8.009  -1.807  -7.692  0.00  0.00    +0.007 A 
BRANCH  27  30
ATOM     30  O   UNL     1     -10.544  -0.934 -10.152  0.00  0.00    -0.495 OA
ATOM     31  C   UNL     1     -10.991  -2.259 -10.448  0.00  0.00    +0.277 C 
ENDBRANCH  27  30
ENDBRANCH  10  24
BRANCH   1  32
ATOM     32  C   UNL     1      -2.930   0.323  -1.150  0.00  0.00    +0.338 C 
ATOM     33  O   UNL     1      -2.394  -0.765  -1.062  0.00  0.00    -0.245 OA
BRANCH  32  34
ATOM     34  O   UNL     1      -2.620   1.301  -0.272  0.00  0.00    -0.458 OA
BRANCH  34  35
ATOM     35  C   UNL     1      -1.655   0.987   0.734  0.00  0.00    +0.173 C 
ATOM     36  C   UNL     1      -0.254   1.325   0.220  0.00  0.00    +0.052 C 
BRANCH  35  38
ATOM     37  C   UNL     1      -3.295   1.378   2.578  0.00  0.00    +0.007 C 
ATOM     38  C   UNL     1      -1.947   1.806   1.993  0.00  0.00    +0.041 C 
ENDBRANCH  35  38
ENDBRANCH  34  35
ENDBRANCH  32  34
ENDBRANCH   1  32
TORSDOF 7
