REMARK  Name = ZINC37351142
REMARK  4 active torsions:
REMARK  status: ('A' for Active; 'I' for Inactive)
REMARK    1  A    between atoms: C_1  and  C_2
REMARK    2  A    between atoms: C_5  and  C_7
REMARK    3  A    between atoms: C_8  and  C_13
REMARK    4  A    between atoms: C_9  and  N_12
REMARK                            x       y       z     vdW  Elec       q    Type
REMARK                         _______ _______ _______ _____ _____    ______ ____
ROOT
ATOM      1  C   UNL     1       1.314   0.159   2.237  0.00  0.00    +0.097 A 
ATOM      2  C   UNL     1       2.678   0.186   2.598  0.00  0.00    +0.067 A 
ATOM      3  C   UNL     1       2.820   1.112   3.614  0.00  0.00    +0.223 A 
ATOM      4  O   UNL     1       1.604   1.626   3.863  0.00  0.00    -0.339 OA
ATOM      5  N   UNL     1       0.678   1.017   2.983  0.00  0.00    -0.080 NA
ENDROOT
BRANCH   2   6
ATOM      6  C   UNL     1       3.760  -0.630   1.998  0.00  0.00    -0.007 A 
ATOM      7  C   UNL     1       3.749  -2.017   2.136  0.00  0.00    +0.012 A 
ATOM      8  C   UNL     1       4.758  -2.774   1.578  0.00  0.00    +0.050 A 
ATOM      9  C   UNL     1       5.786  -2.160   0.876  0.00  0.00    +0.162 A 
ATOM     10  C   UNL     1       5.802  -0.777   0.733  0.00  0.00    +0.163 A 
ATOM     11  C   UNL     1       4.788  -0.013   1.288  0.00  0.00    +0.058 A 
ATOM     12  O   UNL     1       6.798  -0.160   0.041  0.00  0.00    -0.485 OA
ATOM     13  C   UNL     1       7.990  -0.920  -0.188  0.00  0.00    +0.270 C 
ATOM     14  C   UNL     1       7.582  -2.317  -0.676  0.00  0.00    +0.270 C 
ATOM     15  O   UNL     1       6.774  -2.927   0.337  0.00  0.00    -0.485 OA
ENDBRANCH   2   6
BRANCH   1  19
ATOM     16  C   UNL     1      -0.019   1.526   0.010  0.00  0.00    +0.008 C 
ATOM     17  C   UNL     1       0.002  -0.004   0.002  0.00  0.00    -0.004 C 
ATOM     18  C   UNL     1      -0.828  -0.728   1.065  0.00  0.00    +0.014 C 
ATOM     19  C   UNL     1       0.700  -0.708   1.168  0.00  0.00    +0.045 C 
ENDBRANCH   1  19
BRANCH   3  20
ATOM     20  N   UNL     1       3.994   1.446   4.255  0.00  0.00    -0.327 N 
ATOM     21  H   UNL     1       4.825   1.014   4.002  0.00  0.00    +0.145 HD
ATOM     22  H   UNL     1       3.990   2.112   4.960  0.00  0.00    +0.145 HD
ENDBRANCH   3  20
TORSDOF 3
