REMARK  Name = ZINC44321898
REMARK  11 active torsions:
REMARK  status: ('A' for Active; 'I' for Inactive)
REMARK    1  A    between atoms: C_1  and  O_2
REMARK    2  A    between atoms: O_2  and  C_3
REMARK    3  A    between atoms: C_5  and  N_34
REMARK    4  A    between atoms: C_6  and  C_10
REMARK    5  A    between atoms: C_8  and  O_9
REMARK    6  A    between atoms: C_10  and  CA_11
REMARK    7  A    between atoms: CA_11  and  C_13
REMARK    8  A    between atoms: CA_11  and  N_16
REMARK    9  A    between atoms: C_17  and  O_19
REMARK   10  A    between atoms: O_19  and  C_20
REMARK   11  A    between atoms: C_20  and  C_21
REMARK                            x       y       z     vdW  Elec       q    Type
REMARK                         _______ _______ _______ _____ _____    ______ ____
ROOT
ATOM      1  N   UNL     1       4.490  -1.341  -3.829  0.00  0.00    -0.267 N 
ATOM      2  C   UNL     1       5.565  -1.324  -3.017  0.00  0.00    +0.401 C 
ATOM      3  O   UNL     1       5.996  -2.363  -2.557  0.00  0.00    -0.226 OA
ATOM      4  H   UNL     1       4.146  -0.512  -4.196  0.00  0.00    +0.153 HD
ENDROOT
BRANCH   1   5
ATOM      5  CA  UNL     1       3.840  -2.612  -4.158  0.00  0.00    +0.193 C 
BRANCH   5   6
ATOM      6  C   UNL     1       4.501  -3.216  -5.370  0.00  0.00    +0.376 C 
ATOM      7  O   UNL     1       5.301  -2.562  -6.017  0.00  0.00    -0.244 OA
ATOM      8  OXT UNL     1       4.237  -4.358  -5.703  0.00  0.00    -0.244 OA
ENDBRANCH   5   6
BRANCH   5   9
ATOM      9  C   UNL     1       2.359  -2.367  -4.454  0.00  0.00    +0.071 C 
BRANCH   9  13
ATOM     10  C   UNL     1       0.405  -1.004  -0.903  0.00  0.00    +0.163 A 
ATOM     11  C   UNL     1       0.706  -2.347  -1.059  0.00  0.00    +0.082 A 
ATOM     12  C   UNL     1       1.337  -2.785  -2.208  0.00  0.00    +0.133 A 
ATOM     13  C   UNL     1       1.670  -1.885  -3.204  0.00  0.00    -0.011 A 
ATOM     14  C   UNL     1       1.372  -0.543  -3.054  0.00  0.00    +0.055 A 
ATOM     15  C   UNL     1       0.734  -0.099  -1.907  0.00  0.00    +0.159 A 
BRANCH  12  16
ATOM     16  N   UNL     1       1.658  -4.220  -2.374  0.00  0.00    +0.057 N 
ATOM     17  O   UNL     1       1.441  -4.996  -1.472  0.00  0.00    -0.126 OA
ATOM     18  O   UNL     1       2.138  -4.617  -3.410  0.00  0.00    -0.126 OA
ENDBRANCH  12  16
BRANCH  10  20
ATOM     19  C   UNL     1      -0.525  -1.557   1.215  0.00  0.00    +0.277 C 
ATOM     20  O   UNL     1      -0.217  -0.572   0.227  0.00  0.00    -0.491 OA
ENDBRANCH  10  20
BRANCH  15  21
ATOM     21  O   UNL     1       0.436   1.220  -1.760  0.00  0.00    -0.503 OA
ATOM     22  H   UNL     1       1.135   1.737  -1.338  0.00  0.00    +0.292 HD
ENDBRANCH  15  21
ENDBRANCH   9  13
ENDBRANCH   5   9
ENDBRANCH   1   5
BRANCH   2  23
ATOM     23  O   UNL     1       6.162  -0.156  -2.715  0.00  0.00    -0.449 OA
BRANCH  23  24
ATOM     24  C   UNL     1       7.297  -0.212  -1.848  0.00  0.00    +0.246 C 
BRANCH  24  25
ATOM     25  C   UNL     1       7.836   1.202  -1.621  0.00  0.00    +0.088 C 
ATOM     26  C   UNL     1       8.436   1.740  -2.897  0.00  0.00    -0.029 A 
ATOM     27  C   UNL     1       7.896   1.984  -4.142  0.00  0.00    +0.005 A 
ATOM     28  C   UNL     1       8.692   2.491  -5.154  0.00  0.00    +0.000 A 
ATOM     29  C   UNL     1      10.030   2.753  -4.920  0.00  0.00    +0.001 A 
ATOM     30  C   UNL     1      10.578   2.511  -3.677  0.00  0.00    +0.009 A 
ATOM     31  C   UNL     1       9.781   2.000  -2.651  0.00  0.00    -0.014 A 
ATOM     32  C   UNL     1      10.103   1.652  -1.245  0.00  0.00    -0.014 A 
ATOM     33  C   UNL     1       8.958   1.174  -0.613  0.00  0.00    -0.029 A 
ATOM     34  C   UNL     1       9.005   0.783   0.709  0.00  0.00    +0.005 A 
ATOM     35  C   UNL     1      10.194   0.865   1.413  0.00  0.00    +0.000 A 
ATOM     36  C   UNL     1      11.336   1.339   0.794  0.00  0.00    +0.001 A 
ATOM     37  C   UNL     1      11.298   1.732  -0.528  0.00  0.00    +0.009 A 
ENDBRANCH  24  25
ENDBRANCH  23  24
ENDBRANCH   2  23
TORSDOF 10
