REMARK  Name = ZINC39354626
REMARK  7 active torsions:
REMARK  status: ('A' for Active; 'I' for Inactive)
REMARK    1  A    between atoms: C_1  and  N_2
REMARK    2  A    between atoms: N_9  and  C_12
REMARK    3  A    between atoms: N_13  and  C_28
REMARK    4  A    between atoms: N_16  and  C_17
REMARK    5  A    between atoms: C_17  and  C_18
REMARK    6  A    between atoms: C_18  and  C_19
REMARK    7  A    between atoms: C_28  and  C_29
REMARK                            x       y       z     vdW  Elec       q    Type
REMARK                         _______ _______ _______ _____ _____    ______ ____
ROOT
ATOM      1  C   UNL     1      -0.018   1.461   0.010  0.00  0.00    +0.136 C 
ATOM      2  N   UNL     1       0.002  -0.004   0.002  0.00  0.00    -0.266 N 
ATOM      3  C   UNL     1      -1.264  -0.754   0.004  0.00  0.00    +0.203 C 
ATOM      4  C   UNL     1      -1.137  -2.301   0.022  0.00  0.00    +0.203 C 
ATOM      5  C   UNL     1       0.277  -2.845   0.042  0.00  0.00    +0.247 C 
ATOM      6  O   UNL     1       0.475  -4.041   0.051  0.00  0.00    -0.273 OA
ATOM      7  N   UNL     1       1.308  -1.983   0.051  0.00  0.00    -0.227 N 
ATOM      8  C   UNL     1       1.173  -0.656  -0.013  0.00  0.00    +0.312 C 
ATOM      9  O   UNL     1       2.189   0.012  -0.019  0.00  0.00    -0.252 OA
ATOM     10  C   UNL     1       2.665  -2.536   0.071  0.00  0.00    +0.143 C 
ATOM     11  N   UNL     1      -1.738  -2.699  -1.261  0.00  0.00    -0.286 N 
ATOM     12  C   UNL     1      -2.151  -1.573  -1.916  0.00  0.00    +0.159 C 
ATOM     13  N   UNL     1      -1.931  -0.458  -1.270  0.00  0.00    -0.341 N 
ATOM     14  N   UNL     1      -2.759  -1.607  -3.149  0.00  0.00    -0.318 N 
ATOM     15  H   UNL     1      -2.910  -2.457  -3.591  0.00  0.00    +0.149 HD
ATOM     16  H   UNL     1      -2.163   0.431  -1.581  0.00  0.00    +0.164 HD
ENDROOT
BRANCH  14  17
ATOM     17  C   UNL     1      -3.177  -0.361  -3.795  0.00  0.00    +0.109 C 
BRANCH  17  18
ATOM     18  C   UNL     1      -3.821  -0.677  -5.146  0.00  0.00    +0.056 C 
BRANCH  18  19
ATOM     19  C   UNL     1      -4.251   0.605  -5.810  0.00  0.00    -0.021 A 
ATOM     20  C   UNL     1      -3.416   1.483  -6.633  0.00  0.00    +0.003 A 
ATOM     21  C   UNL     1      -2.083   1.447  -7.045  0.00  0.00    +0.010 A 
ATOM     22  C   UNL     1      -1.589   2.448  -7.835  0.00  0.00    +0.001 A 
ATOM     23  C   UNL     1      -2.403   3.501  -8.229  0.00  0.00    +0.002 A 
ATOM     24  C   UNL     1      -3.722   3.556  -7.834  0.00  0.00    +0.026 A 
ATOM     25  C   UNL     1      -4.245   2.548  -7.031  0.00  0.00    +0.047 A 
ATOM     26  N   UNL     1      -5.488   2.321  -6.484  0.00  0.00    -0.360 N 
ATOM     27  C   UNL     1      -5.474   1.156  -5.765  0.00  0.00    +0.087 A 
ATOM     28  H   UNL     1      -6.260   2.898  -6.594  0.00  0.00    +0.165 HD
ENDBRANCH  18  19
ENDBRANCH  17  18
ENDBRANCH  14  17
BRANCH  11  29
ATOM     29  C   UNL     1      -1.870  -4.072  -1.754  0.00  0.00    +0.143 C 
BRANCH  29  30
ATOM     30  C   UNL     1      -3.187  -4.646  -1.295  0.00  0.00    -0.030 A 
ATOM     31  C   UNL     1      -3.267  -5.312  -0.086  0.00  0.00    +0.006 A 
ATOM     32  C   UNL     1      -4.474  -5.837   0.334  0.00  0.00    +0.015 A 
ATOM     33  C   UNL     1      -5.602  -5.697  -0.454  0.00  0.00    +0.018 A 
ATOM     34  C   UNL     1      -5.521  -5.030  -1.664  0.00  0.00    +0.015 A 
ATOM     35  C   UNL     1      -4.314  -4.501  -2.081  0.00  0.00    +0.006 A 
ATOM     36 BR   UNL     1      -7.253  -6.416   0.121  0.00  0.00    -0.050 Br
ENDBRANCH  29  30
ENDBRANCH  11  29
TORSDOF 5
