REMARK  Name = ZINC04087123
REMARK  8 active torsions:
REMARK  status: ('A' for Active; 'I' for Inactive)
REMARK    1  A    between atoms: C_1  and  C_2
REMARK    2  A    between atoms: C_2  and  C_3
REMARK    3  A    between atoms: C_3  and  C_4
REMARK    4  A    between atoms: C_4  and  C_5
REMARK    5  A    between atoms: C_5  and  C_6
REMARK    6  A    between atoms: C_6  and  N_7
REMARK    7  A    between atoms: C_8  and  O_30
REMARK    8  A    between atoms: C_9  and  C_16
REMARK                            x       y       z     vdW  Elec       q    Type
REMARK                         _______ _______ _______ _____ _____    ______ ____
ROOT
ATOM      1  N   UNL     1      -0.020   1.094   2.454  0.00  0.00    -0.292 N 
ATOM      2  C   UNL     1      -0.369  -0.110   3.010  0.00  0.00    +0.202 A 
ATOM      3  C   UNL     1       0.298  -0.558   4.112  0.00  0.00    +0.068 A 
ATOM      4  C   UNL     1       1.323   0.234   4.659  0.00  0.00    +0.258 A 
ATOM      5  O   UNL     1       1.930  -0.144   5.647  0.00  0.00    -0.267 OA
ATOM      6  N   UNL     1       1.631   1.413   4.084  0.00  0.00    -0.302 N 
ATOM      7  H   UNL     1       2.359   1.979   4.470  0.00  0.00    +0.171 HD
ATOM      8  C   UNL     1       0.964   1.835   2.994  0.00  0.00    +0.163 A 
ATOM      9  S   UNL     1       1.375   3.338   2.283  0.00  0.00    -0.013 S 
ENDROOT
BRANCH   3  10
ATOM     10  C   UNL     1      -0.064  -1.880   4.739  0.00  0.00    +0.018 C 
ATOM     11  C   UNL     1       1.103  -2.833   4.622  0.00  0.00    +0.011 A 
ATOM     12  C   UNL     1       1.509  -3.624   5.645  0.00  0.00    -0.022 A 
ATOM     13  C   UNL     1       2.644  -4.383   5.170  0.00  0.00    +0.003 A 
ATOM     14  C   UNL     1       3.465  -5.344   5.770  0.00  0.00    +0.010 A 
ATOM     15  C   UNL     1       4.475  -5.866   5.000  0.00  0.00    +0.001 A 
ATOM     16  C   UNL     1       4.682  -5.469   3.689  0.00  0.00    +0.002 A 
ATOM     17  C   UNL     1       3.886  -4.522   3.070  0.00  0.00    +0.026 A 
ATOM     18  C   UNL     1       2.853  -3.973   3.827  0.00  0.00    +0.047 A 
ATOM     19  N   UNL     1       1.903  -3.036   3.535  0.00  0.00    -0.359 N 
ATOM     20  H   UNL     1       1.809  -2.584   2.682  0.00  0.00    +0.166 HD
ATOM     21  C   UNL     1       0.840  -3.649   6.996  0.00  0.00    +0.018 C 
ATOM     22  C   UNL     1      -0.529  -2.969   6.861  0.00  0.00    -0.076 C 
ATOM     23  N   UNL     1      -0.372  -1.672   6.171  0.00  0.00    +0.388 N 
ATOM     24  H   UNL     1      -1.244  -1.137   6.254  0.00  0.00    -0.084 HD
ATOM     25  H   UNL     1       0.395  -1.147   6.608  0.00  0.00    -0.084 HD
ENDBRANCH   3  10
BRANCH   2  26
ATOM     26  O   UNL     1      -1.360  -0.849   2.468  0.00  0.00    -0.493 OA
ATOM     27  H   UNL     1      -1.768  -0.448   1.688  0.00  0.00    +0.294 HD
ENDBRANCH   2  26
BRANCH   1  28
ATOM     28  C   UNL     1      -0.729   1.579   1.267  0.00  0.00    +0.127 C 
BRANCH  28  29
ATOM     29  C   UNL     1      -0.013   1.086   0.008  0.00  0.00    +0.022 C 
BRANCH  29  30
ATOM     30  C   UNL     1      -0.753   1.593  -1.232  0.00  0.00    +0.002 C 
BRANCH  30  31
ATOM     31  C   UNL     1      -0.037   1.099  -2.490  0.00  0.00    -0.000 C 
BRANCH  31  33
ATOM     32  C   UNL     1      -0.060   1.113  -4.989  0.00  0.00    +0.004 C 
ATOM     33  C   UNL     1      -0.777   1.606  -3.730  0.00  0.00    -0.003 C 
ENDBRANCH  31  33
ENDBRANCH  30  31
ENDBRANCH  29  30
ENDBRANCH  28  29
ENDBRANCH   1  28
TORSDOF 7
