REMARK  Name = ZINC21162053
REMARK  8 active torsions:
REMARK  status: ('A' for Active; 'I' for Inactive)
REMARK    1  A    between atoms: C_1  and  C_2
REMARK    2  A    between atoms: C_2  and  O_3
REMARK    3  A    between atoms: O_3  and  C_4
REMARK    4  A    between atoms: C_9  and  C_10
REMARK    5  A    between atoms: C_10  and  N_11
REMARK    6  A    between atoms: C_12  and  C_14
REMARK    7  A    between atoms: N_28  and  C_29
REMARK    8  A    between atoms: C_29  and  C_30
REMARK                            x       y       z     vdW  Elec       q    Type
REMARK                         _______ _______ _______ _____ _____    ______ ____
ROOT
ATOM      1  C   UNL     1      -5.183  -1.218   1.552  0.00  0.00    +0.078 C 
ATOM      2  C   UNL     1      -4.706  -0.365   2.732  0.00  0.00    +0.032 C 
ATOM      3  C   UNL     1      -3.264  -0.743   3.078  0.00  0.00    +0.108 C 
ATOM      4  N   UNL     1      -2.404  -0.519   1.909  0.00  0.00    -0.302 N 
ATOM      5  C   UNL     1      -2.814  -1.362   0.778  0.00  0.00    +0.108 C 
ATOM      6  C   UNL     1      -4.242  -1.002   0.363  0.00  0.00    +0.032 C 
ATOM      7  C   UNL     1      -1.078  -0.726   2.224  0.00  0.00    +0.177 A 
ATOM      8  N   UNL     1      -0.635  -1.640   3.050  0.00  0.00    -0.327 N 
ATOM      9  C   UNL     1       0.720  -1.566   3.130  0.00  0.00    +0.065 A 
ATOM     10  C   UNL     1       1.681  -2.286   3.844  0.00  0.00    +0.028 A 
ATOM     11  C   UNL     1       3.014  -1.966   3.711  0.00  0.00    +0.002 A 
ATOM     12  C   UNL     1       3.410  -0.934   2.873  0.00  0.00    +0.002 A 
ATOM     13  C   UNL     1       2.473  -0.214   2.161  0.00  0.00    +0.028 A 
ATOM     14  C   UNL     1       1.127  -0.525   2.279  0.00  0.00    +0.068 A 
ATOM     15  N   UNL     1      -0.031  -0.007   1.722  0.00  0.00    -0.309 N 
ATOM     16  H   UNL     1      -1.342  -2.317   3.553  0.00  0.00    +0.169 HD
ENDROOT
BRANCH   1  18
ATOM     17  N   UNL     1      -7.209  -1.427   0.148  0.00  0.00    -0.311 N 
ATOM     18  C   UNL     1      -6.582  -0.808   1.168  0.00  0.00    +0.216 C 
ATOM     19  O   UNL     1      -7.143   0.078   1.777  0.00  0.00    -0.276 OA
ATOM     20  H   UNL     1      -6.700  -2.231  -0.404  0.00  0.00    +0.149 HD
BRANCH  17  21
ATOM     21  C   UNL     1      -8.568  -1.029  -0.225  0.00  0.00    +0.143 C 
BRANCH  21  27
ATOM     22  C   UNL     1      -9.510  -3.154  -1.167  0.00  0.00    +0.125 A 
ATOM     23  C   UNL     1      -9.941  -3.924  -2.237  0.00  0.00    +0.046 A 
ATOM     24  C   UNL     1      -9.897  -3.409  -3.519  0.00  0.00    +0.004 A 
ATOM     25  C   UNL     1      -9.425  -2.128  -3.735  0.00  0.00    +0.001 A 
ATOM     26  C   UNL     1      -9.000  -1.357  -2.669  0.00  0.00    +0.009 A 
ATOM     27  C   UNL     1      -9.037  -1.868  -1.386  0.00  0.00    +0.011 A 
BRANCH  22  28
ATOM     28  O   UNL     1      -9.553  -3.657   0.095  0.00  0.00    -0.492 OA
BRANCH  28  30
ATOM     29  C   UNL     1     -10.024  -5.378   1.724  0.00  0.00    +0.048 C 
ATOM     30  C   UNL     1     -10.053  -4.988   0.245  0.00  0.00    +0.225 C 
ENDBRANCH  28  30
ENDBRANCH  22  28
ENDBRANCH  21  27
ENDBRANCH  17  21
ENDBRANCH   1  18
BRANCH  15  31
ATOM     31  C   UNL     1      -0.116   1.101   0.767  0.00  0.00    +0.160 C 
BRANCH  31  32
ATOM     32  C   UNL     1      -0.373   2.386   1.511  0.00  0.00    -0.027 A 
ATOM     33  C   UNL     1      -1.671   2.800   1.745  0.00  0.00    +0.008 A 
ATOM     34  C   UNL     1      -1.908   3.976   2.432  0.00  0.00    +0.038 A 
ATOM     35  C   UNL     1      -0.845   4.745   2.875  0.00  0.00    +0.123 A 
ATOM     36  C   UNL     1       0.454   4.332   2.635  0.00  0.00    +0.038 A 
ATOM     37  C   UNL     1       0.689   3.153   1.953  0.00  0.00    +0.008 A 
ATOM     38  F   UNL     1      -1.076   5.897   3.541  0.00  0.00    -0.205 F 
ENDBRANCH  31  32
ENDBRANCH  15  31
TORSDOF 7
