REMARK  Name = ZINC47145117
REMARK  7 active torsions:
REMARK  status: ('A' for Active; 'I' for Inactive)
REMARK    1  A    between atoms: C_1  and  C_2
REMARK    2  A    between atoms: C_6  and  C_8
REMARK    3  A    between atoms: C_8  and  O_9
REMARK    4  A    between atoms: O_9  and  C_10
REMARK    5  A    between atoms: C_15  and  C_16
REMARK    6  A    between atoms: N_31  and  C_34
REMARK    7  A    between atoms: C_34  and  C_35
REMARK                            x       y       z     vdW  Elec       q    Type
REMARK                         _______ _______ _______ _____ _____    ______ ____
ROOT
ATOM      1  C   UNL     1       4.072  -3.518   3.710  0.00  0.00    +0.075 C 
ATOM      2  C   UNL     1       4.922  -4.690   3.318  0.00  0.00    +0.035 A 
ATOM      3  C   UNL     1       6.284  -4.808   3.294  0.00  0.00    +0.113 A 
ATOM      4  N   UNL     1       6.735  -6.003   2.918  0.00  0.00    -0.196 NA
ATOM      5  C   UNL     1       5.923  -6.978   2.579  0.00  0.00    +0.311 A 
ATOM      6  O   UNL     1       6.237  -8.234   2.177  0.00  0.00    -0.258 OA
ATOM      7  S   UNL     1       4.396  -6.291   2.766  0.00  0.00    -0.028 S 
ATOM      8  S   UNL     1       7.330  -3.427   3.728  0.00  0.00    -0.091 S 
ATOM      9  C   UNL     1       6.112  -2.086   3.700  0.00  0.00    +0.152 C 
ATOM     10  C   UNL     1       4.906  -2.584   4.552  0.00  0.00    +0.110 C 
ATOM     11  C   UNL     1       4.319  -1.278   4.987  0.00  0.00    +0.228 C 
ATOM     12  O   UNL     1       3.153  -1.046   5.224  0.00  0.00    -0.275 OA
ATOM     13  N   UNL     1       5.357  -0.404   5.062  0.00  0.00    -0.230 N 
ATOM     14  C   UNL     1       6.513  -0.858   4.473  0.00  0.00    +0.236 C 
ATOM     15  O   UNL     1       7.625  -0.385   4.560  0.00  0.00    -0.274 OA
ENDROOT
BRANCH   1  21
ATOM     16  C   UNL     1       1.599  -3.745   4.055  0.00  0.00    +0.125 A 
ATOM     17  C   UNL     1       0.509  -4.191   4.788  0.00  0.00    +0.046 A 
ATOM     18  C   UNL     1       0.707  -4.880   5.969  0.00  0.00    +0.004 A 
ATOM     19  C   UNL     1       1.991  -5.125   6.420  0.00  0.00    +0.001 A 
ATOM     20  C   UNL     1       3.079  -4.681   5.692  0.00  0.00    +0.008 A 
ATOM     21  C   UNL     1       2.886  -3.997   4.507  0.00  0.00    +0.003 A 
BRANCH  16  22
ATOM     22  O   UNL     1       1.406  -3.067   2.893  0.00  0.00    -0.487 OA
BRANCH  22  23
ATOM     23  C   UNL     1       0.054  -2.845   2.489  0.00  0.00    +0.264 C 
BRANCH  23  29
ATOM     24  C   UNL     1      -0.018   1.503   0.010  0.00  0.00    +0.044 C 
ATOM     25  C   UNL     1       0.002  -0.004   0.002  0.00  0.00    -0.050 A 
ATOM     26  C   UNL     1       0.006  -0.689  -1.199  0.00  0.00    +0.003 A 
ATOM     27  C   UNL     1       0.025  -2.071  -1.207  0.00  0.00    +0.001 A 
ATOM     28  C   UNL     1       0.040  -2.768  -0.013  0.00  0.00    +0.007 A 
ATOM     29  C   UNL     1       0.037  -2.084   1.188  0.00  0.00    -0.010 A 
ATOM     30  C   UNL     1       0.023  -0.702   1.195  0.00  0.00    +0.010 A 
ENDBRANCH  23  29
ENDBRANCH  22  23
ENDBRANCH  16  22
ENDBRANCH   1  21
BRANCH  13  31
ATOM     31  C   UNL     1       5.253   0.913   5.695  0.00  0.00    +0.241 C 
BRANCH  31  32
ATOM     32  C   UNL     1       5.605   0.797   7.156  0.00  0.00    +0.373 C 
ATOM     33  O   UNL     1       5.914  -0.285   7.625  0.00  0.00    -0.245 OA
ATOM     34  O   UNL     1       5.580   1.786   7.869  0.00  0.00    -0.245 OA
ENDBRANCH  31  32
ENDBRANCH  13  31
TORSDOF 6
