REMARK  Name = ZINC40170486
REMARK  9 active torsions:
REMARK  status: ('A' for Active; 'I' for Inactive)
REMARK    1  A    between atoms: C_1  and  C_2
REMARK    2  A    between atoms: C_2  and  C_3
REMARK    3  A    between atoms: C_3  and  C_5
REMARK    4  A    between atoms: C_3  and  S_20
REMARK    5  A    between atoms: N_7  and  C_8
REMARK    6  A    between atoms: C_9  and  C_17
REMARK    7  A    between atoms: S_20  and  C_21
REMARK    8  A    between atoms: C_27  and  C_35
REMARK    9  A    between atoms: C_32  and  C_34
REMARK                            x       y       z     vdW  Elec       q    Type
REMARK                         _______ _______ _______ _____ _____    ______ ____
ROOT
ATOM      1  C   UNL     1       0.619  -0.379  -1.179  0.00  0.00    +0.140 C 
ENDROOT
BRANCH   1   2
ATOM      2  C   UNL     1       0.376  -1.858  -1.340  0.00  0.00    +0.231 C 
ATOM      3  O   UNL     1       1.242  -2.651  -1.040  0.00  0.00    -0.274 OA
ATOM      4  N   UNL     1      -0.805  -2.298  -1.818  0.00  0.00    -0.278 N 
ATOM      5  H   UNL     1      -1.498  -1.664  -2.058  0.00  0.00    +0.155 HD
BRANCH   4   6
ATOM      6  C   UNL     1      -1.029  -3.659  -1.967  0.00  0.00    +0.084 A 
ATOM      7  C   UNL     1      -2.168  -4.288  -2.444  0.00  0.00    +0.068 A 
ATOM      8  C   UNL     1      -2.150  -5.739  -2.501  0.00  0.00    -0.023 A 
ATOM      9  C   UNL     1      -0.997  -6.295  -2.072  0.00  0.00    -0.004 A 
ATOM     10  S   UNL     1       0.021  -4.922  -1.618  0.00  0.00    -0.077 S 
ATOM     11  C   UNL     1      -0.672  -7.755  -2.007  0.00  0.00    +0.043 C 
ATOM     12  C   UNL     1      -1.980  -8.547  -2.147  0.00  0.00    +0.005 C 
ATOM     13  C   UNL     1      -2.772  -7.991  -3.333  0.00  0.00    +0.005 C 
ATOM     14  C   UNL     1      -3.305  -6.597  -2.996  0.00  0.00    +0.037 C 
BRANCH   7  15
ATOM     15  C   UNL     1      -3.342  -3.521  -2.871  0.00  0.00    +0.244 C 
ATOM     16  O   UNL     1      -3.444  -3.159  -4.029  0.00  0.00    -0.270 OA
ATOM     17  N   UNL     1      -4.308  -3.216  -1.982  0.00  0.00    -0.325 N 
ATOM     18  H   UNL     1      -4.227  -3.505  -1.060  0.00  0.00    +0.145 HD
ATOM     19  H   UNL     1      -5.085  -2.709  -2.265  0.00  0.00    +0.145 HD
ENDBRANCH   7  15
ENDBRANCH   4   6
ENDBRANCH   1   2
BRANCH   1  21
ATOM     20  C   UNL     1       0.188   1.605   0.277  0.00  0.00    +0.005 C 
ATOM     21  C   UNL     1       0.066   0.084   0.171  0.00  0.00    +0.020 C 
ENDBRANCH   1  21
BRANCH   1  22
ATOM     22  S   UNL     1       2.401  -0.048  -1.248  0.00  0.00    -0.073 S 
BRANCH  22  23
ATOM     23  C   UNL     1       2.830  -0.376  -2.926  0.00  0.00    +0.197 A 
ATOM     24  N   UNL     1       2.006  -0.885  -3.823  0.00  0.00    -0.122 NA
ATOM     25  N   UNL     1       2.568  -0.901  -4.975  0.00  0.00    -0.129 NA
ATOM     26  C   UNL     1       3.768  -0.363  -4.883  0.00  0.00    +0.162 A 
ATOM     27  N   UNL     1       4.033  -0.193  -3.534  0.00  0.00    -0.270 N 
ATOM     28  C   UNL     1       5.331   0.065  -3.131  0.00  0.00    +0.061 A 
ATOM     29  C   UNL     1       5.829  -0.259  -1.879  0.00  0.00    -0.026 A 
ATOM     30  C   UNL     1       7.055   0.231  -1.469  0.00  0.00    +0.005 A 
ATOM     31  C   UNL     1       7.852   0.961  -2.334  0.00  0.00    +0.001 A 
ATOM     32  C   UNL     1       7.458   1.132  -3.643  0.00  0.00    +0.010 A 
ATOM     33  C   UNL     1       6.235   0.613  -4.070  0.00  0.00    +0.002 A 
ATOM     34  C   UNL     1       5.899   0.549  -5.495  0.00  0.00    -0.038 A 
ATOM     35  C   UNL     1       4.707   0.028  -5.863  0.00  0.00    +0.052 A 
ATOM     36  C   UNL     1       6.854   1.050  -6.547  0.00  0.00    +0.044 C 
ATOM     37  C   UNL     1       5.111  -1.215  -0.961  0.00  0.00    +0.046 C 
ENDBRANCH  22  23
ENDBRANCH   1  22
TORSDOF 6
