REMARK  Name = ZINC03331743
REMARK  9 active torsions:
REMARK  status: ('A' for Active; 'I' for Inactive)
REMARK    1  A    between atoms: C_1  and  C_2
REMARK    2  A    between atoms: C_6  and  N_8
REMARK    3  A    between atoms: C_17  and  S_18
REMARK    4  A    between atoms: S_18  and  C_19
REMARK    5  A    between atoms: C_19  and  C_20
REMARK    6  A    between atoms: C_20  and  C_22
REMARK    7  A    between atoms: C_23  and  N_32
REMARK    8  A    between atoms: N_24  and  C_31
REMARK    9  A    between atoms: N_27  and  C_30
REMARK                            x       y       z     vdW  Elec       q    Type
REMARK                         _______ _______ _______ _____ _____    ______ ____
ROOT
ATOM      1  N   UNL     1       0.288   5.123   2.840  0.00  0.00    -0.255 N 
ATOM      2  C   UNL     1      -0.858   5.749   3.168  0.00  0.00    +0.268 A 
ATOM      3  O   UNL     1      -1.847   5.108   3.481  0.00  0.00    -0.267 OA
ATOM      4  C   UNL     1      -0.896   7.179   3.150  0.00  0.00    +0.076 A 
ATOM      5  C   UNL     1      -2.032   8.058   3.474  0.00  0.00    -0.023 A 
ATOM      6  C   UNL     1      -1.821   9.381   3.380  0.00  0.00    -0.004 A 
ATOM      7  S   UNL     1      -0.129   9.542   2.861  0.00  0.00    -0.073 S 
ATOM      8  C   UNL     1       0.291   7.822   2.773  0.00  0.00    +0.117 A 
ATOM      9  N   UNL     1       1.390   7.146   2.454  0.00  0.00    -0.215 NA
ATOM     10  C   UNL     1       1.402   5.829   2.482  0.00  0.00    +0.178 A 
ATOM     11  C   UNL     1      -3.047  10.178   3.738  0.00  0.00    +0.043 C 
ATOM     12  C   UNL     1      -3.951   9.180   4.495  0.00  0.00    +0.010 C 
ATOM     13  C   UNL     1      -3.480   7.831   3.917  0.00  0.00    +0.037 C 
ENDROOT
BRANCH   1  19
ATOM     14  C   UNL     1      -0.305   0.834   0.509  0.00  0.00    +0.044 C 
ATOM     15  C   UNL     1       0.054   1.620   1.743  0.00  0.00    -0.048 A 
ATOM     16  C   UNL     1       0.432   0.958   2.898  0.00  0.00    +0.003 A 
ATOM     17  C   UNL     1       0.757   1.676   4.034  0.00  0.00    +0.002 A 
ATOM     18  C   UNL     1       0.715   3.057   4.016  0.00  0.00    +0.026 A 
ATOM     19  C   UNL     1       0.337   3.723   2.859  0.00  0.00    +0.052 A 
ATOM     20  C   UNL     1       0.006   3.000   1.721  0.00  0.00    +0.029 A 
ENDBRANCH   1  19
BRANCH  10  21
ATOM     21  S   UNL     1       2.877   4.965   2.053  0.00  0.00    -0.079 S 
BRANCH  21  22
ATOM     22  C   UNL     1       3.966   6.363   1.686  0.00  0.00    +0.157 C 
BRANCH  22  23
ATOM     23  C   UNL     1       5.324   5.850   1.283  0.00  0.00    +0.182 C 
ATOM     24  O   UNL     1       5.535   4.654   1.247  0.00  0.00    -0.291 OA
BRANCH  23  25
ATOM     25  C   UNL     1       6.350   6.759   0.948  0.00  0.00    +0.120 A 
ATOM     26  C   UNL     1       7.612   6.304   0.527  0.00  0.00    +0.116 A 
ATOM     27  N   UNL     1       8.572   7.222   0.208  0.00  0.00    -0.284 N 
ATOM     28  C   UNL     1       8.335   8.540   0.300  0.00  0.00    +0.333 A 
ATOM     29  O   UNL     1       9.224   9.316   0.009  0.00  0.00    -0.246 OA
ATOM     30  N   UNL     1       7.152   9.033   0.701  0.00  0.00    -0.263 N 
ATOM     31  C   UNL     1       6.137   8.209   1.034  0.00  0.00    +0.269 A 
ATOM     32  O   UNL     1       5.066   8.659   1.397  0.00  0.00    -0.267 OA
ATOM     33  C   UNL     1       6.962  10.483   0.779  0.00  0.00    +0.157 C 
ATOM     34  C   UNL     1       9.889   6.759  -0.237  0.00  0.00    +0.155 C 
BRANCH  26  35
ATOM     35  N   UNL     1       7.871   4.972   0.433  0.00  0.00    -0.344 N 
ATOM     36  H   UNL     1       7.144   4.345   0.297  0.00  0.00    +0.144 HD
ATOM     37  H   UNL     1       8.784   4.649   0.503  0.00  0.00    +0.144 HD
ENDBRANCH  26  35
ENDBRANCH  23  25
ENDBRANCH  22  23
ENDBRANCH  21  22
ENDBRANCH  10  21
TORSDOF 6
