REMARK  Name = ZINC00527249
REMARK  2 active torsions:
REMARK  status: ('A' for Active; 'I' for Inactive)
REMARK    1  A    between atoms: C_6  and  C_7
REMARK    2  A    between atoms: C_10  and  C_19
REMARK                            x       y       z     vdW  Elec       q    Type
REMARK                         _______ _______ _______ _____ _____    ______ ____
ROOT
ATOM      1  C   UNL     1      -1.293  -0.775   0.010  0.00  0.00    +0.143 C 
ATOM      2  C   UNL     1      -1.374  -1.657  -1.242  0.00  0.00    +0.058 C 
ATOM      3  C   UNL     1      -2.543  -2.639  -1.108  0.00  0.00    +0.106 C 
ATOM      4  N   UNL     1      -2.288  -3.521   0.048  0.00  0.00    -0.307 N 
ATOM      5  C   UNL     1      -1.809  -2.904   1.196  0.00  0.00    +0.216 A 
ATOM      6  N   UNL     1      -1.348  -1.629   1.197  0.00  0.00    -0.224 N 
ATOM      7  N   UNL     1      -0.960  -1.342   2.506  0.00  0.00    -0.132 NA
ATOM      8  C   UNL     1      -1.196  -2.423   3.216  0.00  0.00    +0.233 A 
ATOM      9  N   UNL     1      -1.710  -3.372   2.412  0.00  0.00    -0.180 NA
ATOM     10  N   UNL     1      -0.949  -2.564   4.583  0.00  0.00    -0.326 N 
ATOM     11  H   UNL     1      -2.445  -4.477   0.007  0.00  0.00    +0.149 HD
ATOM     12  H   UNL     1      -0.571  -1.826   5.086  0.00  0.00    +0.145 HD
ATOM     13  H   UNL     1      -1.155  -3.401   5.029  0.00  0.00    +0.145 HD
ENDROOT
BRANCH   1  19
ATOM     14  C   UNL     1      -0.017   1.378   0.010  0.00  0.00    +0.008 A 
ATOM     15  C   UNL     1       1.170   2.086   0.002  0.00  0.00    +0.038 A 
ATOM     16  C   UNL     1       2.379   1.410  -0.013  0.00  0.00    +0.123 A 
ATOM     17  C   UNL     1       2.396   0.026  -0.021  0.00  0.00    +0.038 A 
ATOM     18  C   UNL     1       1.208  -0.680  -0.013  0.00  0.00    +0.008 A 
ATOM     19  C   UNL     1       0.002  -0.004   0.002  0.00  0.00    -0.023 A 
ATOM     20  F   UNL     1       3.540   2.101  -0.021  0.00  0.00    -0.205 F 
ENDBRANCH   1  19
BRANCH   3  21
ATOM     21  C   UNL     1      -2.657  -3.465  -2.363  0.00  0.00    -0.027 A 
ATOM     22  C   UNL     1      -1.821  -4.550  -2.555  0.00  0.00    +0.007 A 
ATOM     23  C   UNL     1      -1.925  -5.307  -3.706  0.00  0.00    +0.020 A 
ATOM     24  C   UNL     1      -2.865  -4.980  -4.667  0.00  0.00    +0.041 A 
ATOM     25  C   UNL     1      -3.700  -3.894  -4.475  0.00  0.00    +0.020 A 
ATOM     26  C   UNL     1      -3.600  -3.141  -3.321  0.00  0.00    +0.007 A 
ATOM     27 CL   UNL     1      -2.995  -5.931  -6.114  0.00  0.00    -0.084 Cl
ENDBRANCH   3  21
TORSDOF 2
