REMARK  Name = ZINC31058020
REMARK  9 active torsions:
REMARK  status: ('A' for Active; 'I' for Inactive)
REMARK    1  A    between atoms: C_1  and  C_2
REMARK    2  A    between atoms: C_5  and  C_9
REMARK    3  A    between atoms: C_6  and  C_8
REMARK    4  A    between atoms: C_9  and  C_11
REMARK    5  A    between atoms: C_9  and  N_17
REMARK    6  A    between atoms: C_18  and  C_20
REMARK    7  A    between atoms: N_25  and  C_27
REMARK    8  A    between atoms: C_27  and  C_28
REMARK    9  A    between atoms: C_30  and  C_33
REMARK                            x       y       z     vdW  Elec       q    Type
REMARK                         _______ _______ _______ _____ _____    ______ ____
ROOT
ATOM      1  N   UNL     1      -3.980   3.679   4.229  0.00  0.00    -0.304 N 
ATOM      2  C   UNL     1      -4.451   4.709   4.960  0.00  0.00    +0.215 C 
ATOM      3  O   UNL     1      -3.839   5.092   5.934  0.00  0.00    -0.276 OA
ATOM      4  H   UNL     1      -4.535   3.332   3.346  0.00  0.00    +0.150 HD
ENDROOT
BRANCH   2   5
ATOM      5  C   UNL     1      -5.740   5.384   4.566  0.00  0.00    +0.058 C 
ATOM      6  C   UNL     1      -5.602   5.966   3.156  0.00  0.00    +0.009 C 
ATOM      7  C   UNL     1      -6.893   6.702   2.788  0.00  0.00    -0.018 C 
ATOM      8  C   UNL     1      -7.166   7.794   3.824  0.00  0.00    -0.078 C 
ATOM      9  N   UNL     1      -7.290   7.187   5.155  0.00  0.00    +0.386 N 
ATOM     10  C   UNL     1      -6.046   6.514   5.551  0.00  0.00    -0.065 C 
ATOM     11  H   UNL     1      -8.081   6.425   5.103  0.00  0.00    -0.081 HD
BRANCH   9  12
ATOM     12  C   UNL     1      -7.689   8.187   6.155  0.00  0.00    +0.022 C 
BRANCH  12  13
ATOM     13  C   UNL     1      -6.583   9.197   6.323  0.00  0.00    +0.211 A 
ATOM     14  N   UNL     1      -6.435  10.307   5.645  0.00  0.00    -0.192 NA
ATOM     15  C   UNL     1      -5.316  10.888   6.138  0.00  0.00    +0.209 A 
ATOM     16  N   UNL     1      -4.851  10.097   7.073  0.00  0.00    -0.056 NA
ATOM     17  O   UNL     1      -5.567   9.125   7.189  0.00  0.00    -0.340 OA
BRANCH  15  18
ATOM     18  C   UNL     1      -4.727  12.170   5.700  0.00  0.00    +0.060 A 
ATOM     19  C   UNL     1      -3.603  12.805   6.158  0.00  0.00    +0.019 A 
ATOM     20  C   UNL     1      -3.241  14.005   5.589  0.00  0.00    +0.008 A 
ATOM     21  C   UNL     1      -4.013  14.527   4.600  0.00  0.00    +0.046 A 
ATOM     22  S   UNL     1      -5.299  13.300   4.441  0.00  0.00    -0.093 S 
ENDBRANCH  15  18
ENDBRANCH  12  13
ENDBRANCH   9  12
ENDBRANCH   2   5
BRANCH   1  23
ATOM     23  C   UNL     1      -2.727   3.022   4.612  0.00  0.00    +0.134 C 
BRANCH  23  28
ATOM     24  C   UNL     1      -0.315   0.609  -0.051  0.00  0.00    +0.044 C 
ATOM     25  C   UNL     1      -0.944   1.238   1.165  0.00  0.00    -0.050 A 
ATOM     26  C   UNL     1      -1.578   0.446   2.104  0.00  0.00    +0.004 A 
ATOM     27  C   UNL     1      -2.150   1.022   3.222  0.00  0.00    +0.006 A 
ATOM     28  C   UNL     1      -2.098   2.393   3.396  0.00  0.00    -0.020 A 
ATOM     29  C   UNL     1      -1.469   3.186   2.455  0.00  0.00    -0.045 A 
ATOM     30  C   UNL     1      -0.892   2.608   1.339  0.00  0.00    +0.007 A 
ATOM     31  C   UNL     1      -1.412   4.680   2.644  0.00  0.00    +0.044 C 
ENDBRANCH  23  28
BRANCH  23  32
ATOM     32  C   UNL     1      -3.012   1.957   5.639  0.00  0.00    -0.023 A 
ATOM     33  C   UNL     1      -4.181   1.222   5.566  0.00  0.00    +0.006 A 
ATOM     34  C   UNL     1      -4.440   0.241   6.505  0.00  0.00    +0.000 A 
ATOM     35  C   UNL     1      -3.535   0.002   7.523  0.00  0.00    +0.000 A 
ATOM     36  C   UNL     1      -2.369   0.741   7.599  0.00  0.00    +0.000 A 
ATOM     37  C   UNL     1      -2.108   1.718   6.657  0.00  0.00    +0.006 A 
ENDBRANCH  23  32
ENDBRANCH   1  23
TORSDOF 7
