REMARK  Name = ZINC38605170
REMARK  14 active torsions:
REMARK  status: ('A' for Active; 'I' for Inactive)
REMARK    1  A    between atoms: C_1  and  C_2
REMARK    2  A    between atoms: C_2  and  O_3
REMARK    3  A    between atoms: O_3  and  C_4
REMARK    4  A    between atoms: C_4  and  C_6
REMARK    5  A    between atoms: C_8  and  N_18
REMARK    6  A    between atoms: C_11  and  O_16
REMARK    7  A    between atoms: O_16  and  C_17
REMARK    8  A    between atoms: C_19  and  C_21
REMARK    9  A    between atoms: C_21  and  C_23
REMARK   10  A    between atoms: C_21  and  N_24
REMARK   11  A    between atoms: C_27  and  C_30
REMARK   12  A    between atoms: C_30  and  O_32
REMARK   13  A    between atoms: O_32  and  C_33
REMARK   14  A    between atoms: C_33  and  C_34
REMARK                            x       y       z     vdW  Elec       q    Type
REMARK                         _______ _______ _______ _____ _____    ______ ____
ROOT
ATOM      1  N   UNL     1      -0.423  -1.276  -3.933  0.00  0.00    -0.288 N 
ATOM      2  C   UNL     1      -0.771  -1.310  -5.235  0.00  0.00    +0.203 C 
ATOM      3  O   UNL     1      -0.714  -2.353  -5.851  0.00  0.00    -0.277 OA
ATOM      4  H   UNL     1      -0.546  -0.463  -3.420  0.00  0.00    +0.155 HD
ENDROOT
BRANCH   1   6
ATOM      5  C   UNL     1       0.489  -3.684  -4.010  0.00  0.00    +0.234 C 
ATOM      6  C   UNL     1       0.102  -2.385  -3.339  0.00  0.00    +0.053 C 
ATOM      7  C   UNL     1       0.390  -2.556  -1.996  0.00  0.00    +0.021 A 
ATOM      8  C   UNL     1       0.250  -1.703  -0.874  0.00  0.00    +0.057 A 
ATOM      9  C   UNL     1       0.625  -2.143   0.356  0.00  0.00    +0.121 A 
ATOM     10  C   UNL     1       1.151  -3.428   0.546  0.00  0.00    +0.047 A 
ATOM     11  C   UNL     1       1.312  -4.294  -0.483  0.00  0.00    +0.029 A 
ATOM     12  C   UNL     1       0.943  -3.907  -1.798  0.00  0.00    +0.045 A 
ATOM     13  N   UNL     1       1.000  -4.554  -2.946  0.00  0.00    -0.367 N 
ATOM     14  H   UNL     1       1.327  -5.460  -3.068  0.00  0.00    +0.161 HD
BRANCH   5  15
ATOM     15  C   UNL     1       1.563  -3.437  -5.038  0.00  0.00    +0.336 C 
ATOM     16  O   UNL     1       2.711  -3.295  -4.691  0.00  0.00    -0.248 OA
BRANCH  15  17
ATOM     17  O   UNL     1       1.243  -3.373  -6.341  0.00  0.00    -0.463 OA
BRANCH  17  19
ATOM     18  C   UNL     1       1.758  -3.096  -8.686  0.00  0.00    +0.048 C 
ATOM     19  C   UNL     1       2.311  -3.135  -7.260  0.00  0.00    +0.229 C 
ENDBRANCH  17  19
ENDBRANCH  15  17
ENDBRANCH   5  15
BRANCH   9  20
ATOM     20  O   UNL     1       0.486  -1.317   1.428  0.00  0.00    -0.495 OA
ATOM     21  C   UNL     1       0.894  -1.828   2.698  0.00  0.00    +0.277 C 
ENDBRANCH   9  20
ENDBRANCH   1   6
BRANCH   2  22
ATOM     22  C   UNL     1      -1.231  -0.051  -5.925  0.00  0.00    +0.016 C 
ATOM     23  C   UNL     1      -0.015   0.719  -6.444  0.00  0.00    -0.004 C 
BRANCH  22  24
ATOM     24  N   UNL     1      -2.105  -0.403  -7.052  0.00  0.00    +0.387 N 
ATOM     25  C   UNL     1      -2.458   0.815  -7.793  0.00  0.00    -0.077 C 
ATOM     26  C   UNL     1      -3.302   0.446  -9.015  0.00  0.00    -0.004 C 
ATOM     27  C   UNL     1      -4.580  -0.261  -8.552  0.00  0.00    +0.094 C 
ATOM     28  C   UNL     1      -4.199  -1.487  -7.717  0.00  0.00    -0.004 C 
ATOM     29  C   UNL     1      -3.322  -1.047  -6.543  0.00  0.00    -0.077 C 
ATOM     30  H   UNL     1      -1.620  -1.039  -7.667  0.00  0.00    -0.081 HD
BRANCH  27  31
ATOM     31  C   UNL     1      -5.378  -0.697  -9.753  0.00  0.00    +0.310 C 
ATOM     32  O   UNL     1      -4.969  -0.467 -10.866  0.00  0.00    -0.251 OA
BRANCH  31  33
ATOM     33  O   UNL     1      -6.544  -1.340  -9.586  0.00  0.00    -0.465 OA
BRANCH  33  34
ATOM     34  C   UNL     1      -7.249  -1.724 -10.769  0.00  0.00    +0.229 C 
ATOM     35  C   UNL     1      -8.544  -2.440 -10.381  0.00  0.00    +0.048 C 
ENDBRANCH  33  34
ENDBRANCH  31  33
ENDBRANCH  27  31
ENDBRANCH  22  24
ENDBRANCH   2  22
TORSDOF 10
