REMARK  Name = ZINC40837010
REMARK  5 active torsions:
REMARK  status: ('A' for Active; 'I' for Inactive)
REMARK    1  A    between atoms: C_1  and  C_2
REMARK    2  A    between atoms: N_12  and  C_13
REMARK    3  A    between atoms: C_13  and  C_14
REMARK    4  A    between atoms: C_14  and  C_15
REMARK    5  A    between atoms: N_17  and  C_18
REMARK                            x       y       z     vdW  Elec       q    Type
REMARK                         _______ _______ _______ _____ _____    ______ ____
ROOT
ATOM      1  C   UNL     1       0.406  -4.898  -1.243  0.00  0.00    +0.123 C 
ENDROOT
BRANCH   1  13
ATOM      2  C   UNL     1      -0.000   1.533  -0.051  0.00  0.00    +0.044 C 
ATOM      3  C   UNL     1       0.016   0.026  -0.048  0.00  0.00    -0.047 A 
ATOM      4  C   UNL     1       0.019  -0.665  -1.245  0.00  0.00    +0.005 A 
ATOM      5  C   UNL     1       0.035  -2.048  -1.251  0.00  0.00    +0.027 A 
ATOM      6  C   UNL     1       0.048  -2.741  -0.052  0.00  0.00    +0.078 A 
ATOM      7  C   UNL     1       0.044  -2.045   1.156  0.00  0.00    +0.143 A 
ATOM      8  C   UNL     1       0.034  -0.661   1.153  0.00  0.00    +0.051 A 
ATOM      9  O   UNL     1       0.054  -2.736   2.327  0.00  0.00    -0.481 OA
ATOM     10  C   UNL     1      -0.625  -3.994   2.336  0.00  0.00    +0.325 C 
ATOM     11  C   UNL     1      -0.239  -4.787   1.113  0.00  0.00    +0.258 C 
ATOM     12  O   UNL     1      -0.201  -5.999   1.160  0.00  0.00    -0.272 OA
ATOM     13  N   UNL     1       0.065  -4.143  -0.034  0.00  0.00    -0.265 N 
ENDBRANCH   1  13
BRANCH   1  14
ATOM     14  C   UNL     1       1.917  -5.139  -1.284  0.00  0.00    +0.115 C 
BRANCH  14  15
ATOM     15  C   UNL     1       2.268  -5.915  -2.527  0.00  0.00    +0.219 C 
ATOM     16  O   UNL     1       1.396  -6.243  -3.304  0.00  0.00    -0.275 OA
ATOM     17  N   UNL     1       3.551  -6.245  -2.775  0.00  0.00    -0.284 N 
ATOM     18  H   UNL     1       4.255  -5.927  -2.189  0.00  0.00    +0.155 HD
BRANCH  17  19
ATOM     19  C   UNL     1       3.867  -7.046  -3.880  0.00  0.00    +0.052 A 
ATOM     20  C   UNL     1       3.135  -6.930  -5.054  0.00  0.00    +0.027 A 
ATOM     21  C   UNL     1       3.448  -7.721  -6.143  0.00  0.00    +0.040 A 
ATOM     22  C   UNL     1       4.491  -8.629  -6.064  0.00  0.00    +0.125 A 
ATOM     23  C   UNL     1       5.222  -8.746  -4.894  0.00  0.00    +0.060 A 
ATOM     24  C   UNL     1       4.917  -7.953  -3.805  0.00  0.00    +0.065 A 
ATOM     25 CL   UNL     1       5.838  -8.095  -2.341  0.00  0.00    -0.082 Cl
ATOM     26  F   UNL     1       4.795  -9.401  -7.130  0.00  0.00    -0.205 F 
ENDBRANCH  17  19
ENDBRANCH  14  15
ENDBRANCH   1  14
TORSDOF 4
