REMARK  Name = ZINC40631807
REMARK  6 active torsions:
REMARK  status: ('A' for Active; 'I' for Inactive)
REMARK    1  A    between atoms: C_1  and  C_2
REMARK    2  A    between atoms: C_2  and  C_30
REMARK    3  A    between atoms: C_4  and  N_23
REMARK    4  A    between atoms: C_7  and  S_12
REMARK    5  A    between atoms: S_12  and  N_15
REMARK    6  A    between atoms: N_15  and  C_16
REMARK                            x       y       z     vdW  Elec       q    Type
REMARK                         _______ _______ _______ _____ _____    ______ ____
ROOT
ATOM      1  C   UNL     1      -0.266   1.526   0.838  0.00  0.00    +0.060 C 
ATOM      2  C   UNL     1      -0.187   0.034   0.512  0.00  0.00    +0.125 C 
ATOM      3  C   UNL     1      -1.581  -0.530   0.425  0.00  0.00    +0.046 C 
ATOM      4  C   UNL     1      -1.798  -1.819   0.716  0.00  0.00    +0.060 C 
ATOM      5  C   UNL     1      -0.639  -2.643   1.131  0.00  0.00    +0.042 A 
ATOM      6  C   UNL     1      -0.695  -4.031   1.126  0.00  0.00    +0.042 A 
ATOM      7  C   UNL     1       0.411  -4.759   1.520  0.00  0.00    +0.109 A 
ATOM      8  C   UNL     1       1.568  -4.112   1.919  0.00  0.00    +0.032 A 
ATOM      9  C   UNL     1       1.632  -2.730   1.927  0.00  0.00    +0.048 A 
ATOM     10  C   UNL     1       0.533  -1.988   1.535  0.00  0.00    +0.131 A 
ATOM     11  O   UNL     1       0.561  -0.631   1.530  0.00  0.00    -0.481 OA
ATOM     12  C   UNL     1       0.517  -0.152  -0.834  0.00  0.00    +0.060 C 
ENDROOT
BRANCH   4  13
ATOM     13  N   UNL     1      -3.081  -2.371   0.632  0.00  0.00    -0.284 N 
ATOM     14  C   UNL     1      -3.696  -2.819   1.759  0.00  0.00    +0.095 A 
ATOM     15  C   UNL     1      -4.936  -3.357   1.702  0.00  0.00    +0.018 A 
ATOM     16  C   UNL     1      -5.601  -3.454   0.471  0.00  0.00    +0.007 A 
ATOM     17  C   UNL     1      -4.983  -3.003  -0.658  0.00  0.00    +0.071 A 
ATOM     18  C   UNL     1      -3.696  -2.446  -0.564  0.00  0.00    +0.256 A 
ATOM     19  O   UNL     1      -3.134  -2.035  -1.566  0.00  0.00    -0.267 OA
ENDBRANCH   4  13
BRANCH   7  20
ATOM     20  S   UNL     1       0.348  -6.520   1.517  0.00  0.00    +0.072 S 
ATOM     21  O   UNL     1       1.234  -6.960   2.538  0.00  0.00    -0.150 OA
ATOM     22  O   UNL     1      -1.027  -6.878   1.496  0.00  0.00    -0.150 OA
BRANCH  20  23
ATOM     23  N   UNL     1       0.992  -7.031   0.080  0.00  0.00    -0.216 N 
ATOM     24  H   UNL     1       1.797  -7.572   0.074  0.00  0.00    +0.174 HD
BRANCH  23  25
ATOM     25  C   UNL     1       0.377  -6.681  -1.125  0.00  0.00    +0.048 A 
ATOM     26  C   UNL     1      -1.000  -6.808  -1.266  0.00  0.00    +0.025 A 
ATOM     27  C   UNL     1      -1.605  -6.462  -2.457  0.00  0.00    +0.017 A 
ATOM     28  C   UNL     1      -0.843  -5.990  -3.511  0.00  0.00    +0.018 A 
ATOM     29  C   UNL     1       0.528  -5.863  -3.374  0.00  0.00    +0.017 A 
ATOM     30  C   UNL     1       1.139  -6.201  -2.183  0.00  0.00    +0.025 A 
ATOM     31 BR   UNL     1      -1.676  -5.519  -5.142  0.00  0.00    -0.050 Br
ENDBRANCH  23  25
ENDBRANCH  20  23
ENDBRANCH   7  20
TORSDOF 4
