REMARK  Name = ZINC09100786
REMARK  7 active torsions:
REMARK  status: ('A' for Active; 'I' for Inactive)
REMARK    1  A    between atoms: N_9  and  C_12
REMARK    2  A    between atoms: C_12  and  C_13
REMARK    3  A    between atoms: C_13  and  C_14
REMARK    4  A    between atoms: C_14  and  C_15
REMARK    5  A    between atoms: N_17  and  C_18
REMARK    6  A    between atoms: C_18  and  C_19
REMARK    7  A    between atoms: N_22  and  C_26
REMARK                            x       y       z     vdW  Elec       q    Type
REMARK                         _______ _______ _______ _____ _____    ______ ____
ROOT
ATOM      1  C   UNL     1      -0.268   1.258  -2.409  0.00  0.00    +0.213 C 
ATOM      2  O   UNL     1       0.726   0.575  -2.534  0.00  0.00    -0.276 OA
ATOM      3  N   UNL     1      -0.721   1.571  -1.179  0.00  0.00    -0.312 N 
ATOM      4  H   UNL     1      -1.516   2.118  -1.079  0.00  0.00    +0.149 HD
ENDROOT
BRANCH   1   5
ATOM      5  C   UNL     1      -0.997   1.758  -3.630  0.00  0.00    +0.097 C 
BRANCH   5   6
ATOM      6  C   UNL     1      -0.281   1.264  -4.889  0.00  0.00    +0.029 C 
BRANCH   6   7
ATOM      7  C   UNL     1      -1.021   1.771  -6.128  0.00  0.00    +0.117 C 
BRANCH   7  16
ATOM      8  C   UNL     1       1.416  -0.747 -11.102  0.00  0.00    +0.001 A 
ATOM      9  C   UNL     1       2.198   0.393 -11.104  0.00  0.00    +0.001 A 
ATOM     10  C   UNL     1       2.037   1.357 -10.121  0.00  0.00    +0.014 A 
ATOM     11  C   UNL     1       1.085   1.176  -9.131  0.00  0.00    +0.049 A 
ATOM     12  C   UNL     1       0.287   0.014  -9.129  0.00  0.00    +0.049 A 
ATOM     13  C   UNL     1       0.459  -0.941 -10.118  0.00  0.00    +0.014 A 
ATOM     14  C   UNL     1      -0.607   0.139  -7.959  0.00  0.00    +0.254 C 
ATOM     15  O   UNL     1      -1.446  -0.670  -7.618  0.00  0.00    -0.270 OA
ATOM     16  N   UNL     1      -0.335   1.299  -7.334  0.00  0.00    -0.234 N 
ATOM     17  C   UNL     1       0.645   1.970  -7.964  0.00  0.00    +0.254 C 
ATOM     18  O   UNL     1       1.096   3.047  -7.629  0.00  0.00    -0.270 OA
ENDBRANCH   7  16
ENDBRANCH   6   7
ENDBRANCH   5   6
ENDBRANCH   1   5
BRANCH   3  19
ATOM     19  C   UNL     1      -0.013   1.086   0.008  0.00  0.00    +0.150 C 
BRANCH  19  20
ATOM     20  C   UNL     1      -0.729   1.579   1.267  0.00  0.00    +0.213 C 
ATOM     21  C   UNL     1      -0.003   1.082   2.531  0.00  0.00    +0.163 C 
ATOM     22  N   UNL     1       0.410   2.321   3.209  0.00  0.00    -0.234 N 
ATOM     23  C   UNL     1       0.003   3.369   2.480  0.00  0.00    +0.408 C 
ATOM     24  O   UNL     1       0.209   4.522   2.805  0.00  0.00    -0.226 OA
ATOM     25  O   UNL     1      -0.651   3.031   1.363  0.00  0.00    -0.444 OA
BRANCH  22  26
ATOM     26  C   UNL     1       1.112   2.393   4.417  0.00  0.00    +0.041 A 
ATOM     27  C   UNL     1       1.474   1.228   5.082  0.00  0.00    +0.024 A 
ATOM     28  C   UNL     1       2.171   1.302   6.272  0.00  0.00    +0.003 A 
ATOM     29  C   UNL     1       2.501   2.533   6.807  0.00  0.00    +0.020 A 
ATOM     30  C   UNL     1       2.138   3.696   6.150  0.00  0.00    +0.043 A 
ATOM     31  C   UNL     1       1.444   3.628   4.956  0.00  0.00    +0.043 A 
ATOM     32 CL   UNL     1       2.554   5.240   6.825  0.00  0.00    -0.083 Cl
ENDBRANCH  22  26
ENDBRANCH  19  20
ENDBRANCH   3  19
TORSDOF 7
