REMARK  Name = ZINC44942330
REMARK  5 active torsions:
REMARK  status: ('A' for Active; 'I' for Inactive)
REMARK    1  A    between atoms: C_4  and  C_7
REMARK    2  A    between atoms: C_7  and  C_8
REMARK    3  A    between atoms: C_8  and  O_38
REMARK    4  A    between atoms: C_14  and  C_16
REMARK    5  A    between atoms: C_22  and  C_24
REMARK                            x       y       z     vdW  Elec       q    Type
REMARK                         _______ _______ _______ _____ _____    ______ ____
ROOT
ATOM      1  C   UNL     1       8.305  -1.027   4.297  0.00  0.00    +0.087 C 
ATOM      2  C   UNL     1       9.014  -1.163   2.948  0.00  0.00    +0.013 C 
ATOM      3  C   UNL     1      10.295  -1.981   3.124  0.00  0.00    +0.001 C 
ATOM      4  C   UNL     1      11.219  -1.272   4.117  0.00  0.00    +0.001 C 
ATOM      5  C   UNL     1      10.510  -1.137   5.466  0.00  0.00    +0.013 C 
ATOM      6  C   UNL     1       9.229  -0.319   5.289  0.00  0.00    +0.087 C 
ENDROOT
BRANCH   6   7
ATOM      7  C   UNL     1       9.575   1.050   4.764  0.00  0.00    +0.219 C 
ATOM      8  O   UNL     1       9.471   1.290   3.580  0.00  0.00    -0.275 OA
ATOM      9  N   UNL     1      10.001   2.009   5.610  0.00  0.00    -0.298 N 
ATOM     10  C   UNL     1      10.029   1.768   7.060  0.00  0.00    +0.126 C 
ATOM     11  C   UNL     1      11.449   2.037   7.574  0.00  0.00    +0.125 C 
ATOM     12  N   UNL     1      11.894   3.341   7.064  0.00  0.00    -0.314 N 
ATOM     13  C   UNL     1      11.866   3.582   5.614  0.00  0.00    +0.125 C 
ATOM     14  C   UNL     1      10.452   3.311   5.100  0.00  0.00    +0.126 C 
ATOM     15  C   UNL     1      12.333   4.330   7.937  0.00  0.00    +0.099 A 
ATOM     16  C   UNL     1      12.476   4.041   9.290  0.00  0.00    +0.042 A 
ATOM     17  C   UNL     1      12.914   5.034  10.148  0.00  0.00    +0.005 A 
ATOM     18  C   UNL     1      13.195   6.288   9.621  0.00  0.00    +0.018 A 
ATOM     19  C   UNL     1      13.030   6.505   8.268  0.00  0.00    +0.084 A 
ATOM     20  N   UNL     1      12.616   5.537   7.472  0.00  0.00    -0.350 N 
ATOM     21  H   UNL     1      12.513   5.715   6.524  0.00  0.00    +0.166 HD
ENDBRANCH   6   7
BRANCH   1  28
ATOM     22  C   UNL     1       3.588  -2.279   3.283  0.00  0.00    +0.073 C 
ATOM     23  C   UNL     1       4.932  -2.980   3.494  0.00  0.00    +0.054 C 
ATOM     24  C   UNL     1       6.053  -2.110   2.919  0.00  0.00    +0.110 C 
ATOM     25  N   UNL     1       5.970  -0.772   3.521  0.00  0.00    -0.301 N 
ATOM     26  C   UNL     1       4.695  -0.046   3.454  0.00  0.00    +0.110 C 
ATOM     27  C   UNL     1       3.588  -0.939   4.023  0.00  0.00    +0.054 C 
ATOM     28  C   UNL     1       7.043  -0.222   4.123  0.00  0.00    +0.219 C 
ATOM     29  O   UNL     1       6.993   0.921   4.524  0.00  0.00    -0.275 OA
BRANCH  22  30
ATOM     30  O   UNL     1       3.384  -2.051   1.887  0.00  0.00    -0.388 OA
ATOM     31  H   UNL     1       3.372  -2.858   1.355  0.00  0.00    +0.210 HD
ENDBRANCH  22  30
BRANCH  22  32
ATOM     32  C   UNL     1       2.462  -3.161   3.825  0.00  0.00    +0.070 C 
BRANCH  32  36
ATOM     33  C   UNL     1       2.675  -7.022   2.011  0.00  0.00    +0.000 A 
ATOM     34  C   UNL     1       3.359  -6.772   3.185  0.00  0.00    +0.000 A 
ATOM     35  C   UNL     1       3.290  -5.522   3.772  0.00  0.00    +0.004 A 
ATOM     36  C   UNL     1       2.538  -4.523   3.185  0.00  0.00    -0.045 A 
ATOM     37  C   UNL     1       1.854  -4.773   2.010  0.00  0.00    +0.004 A 
ATOM     38  C   UNL     1       1.921  -6.023   1.423  0.00  0.00    +0.000 A 
ENDBRANCH  32  36
ENDBRANCH  22  32
ENDBRANCH   1  28
TORSDOF 5
