REMARK  Name = ZINC40025000
REMARK  7 active torsions:
REMARK  status: ('A' for Active; 'I' for Inactive)
REMARK    1  A    between atoms: C_1  and  C_2
REMARK    2  A    between atoms: N_11  and  C_15
REMARK    3  A    between atoms: C_15  and  C_16
REMARK    4  A    between atoms: C_16  and  C_17
REMARK    5  A    between atoms: N_19  and  C_20
REMARK    6  A    between atoms: C_25  and  C_26
REMARK    7  A    between atoms: C_26  and  C_28
REMARK                            x       y       z     vdW  Elec       q    Type
REMARK                         _______ _______ _______ _____ _____    ______ ____
ROOT
ATOM      1  C   UNL     1       4.422   3.777   2.877  0.00  0.00    +0.219 C 
ATOM      2  O   UNL     1       5.241   3.225   3.581  0.00  0.00    -0.275 OA
ATOM      3  N   UNL     1       4.609   5.058   2.502  0.00  0.00    -0.285 N 
ATOM      4  H   UNL     1       4.000   5.473   1.872  0.00  0.00    +0.155 HD
ENDROOT
BRANCH   3   5
ATOM      5  C   UNL     1       5.677   5.786   3.021  0.00  0.00    +0.044 A 
ATOM      6  C   UNL     1       6.230   5.437   4.246  0.00  0.00    +0.024 A 
ATOM      7  C   UNL     1       7.289   6.160   4.758  0.00  0.00    +0.002 A 
ATOM      8  C   UNL     1       7.807   7.237   4.057  0.00  0.00    +0.001 A 
ATOM      9  C   UNL     1       7.272   7.599   2.840  0.00  0.00    +0.013 A 
ATOM     10  C   UNL     1       6.204   6.873   2.305  0.00  0.00    +0.043 A 
BRANCH  10  11
ATOM     11  C   UNL     1       5.630   7.250   1.001  0.00  0.00    +0.195 C 
ATOM     12  O   UNL     1       4.976   8.270   0.896  0.00  0.00    -0.287 OA
BRANCH  11  13
ATOM     13  C   UNL     1       5.850   6.389  -0.180  0.00  0.00    +0.022 A 
ATOM     14  C   UNL     1       6.683   5.272  -0.088  0.00  0.00    +0.012 A 
ATOM     15  C   UNL     1       6.884   4.473  -1.194  0.00  0.00    +0.001 A 
ATOM     16  C   UNL     1       6.263   4.776  -2.393  0.00  0.00    +0.000 A 
ATOM     17  C   UNL     1       5.436   5.881  -2.491  0.00  0.00    +0.001 A 
ATOM     18  C   UNL     1       5.221   6.685  -1.391  0.00  0.00    +0.012 A 
ENDBRANCH  11  13
ENDBRANCH  10  11
ENDBRANCH   3   5
BRANCH   1  19
ATOM     19  C   UNL     1       3.194   3.031   2.421  0.00  0.00    +0.115 C 
BRANCH  19  20
ATOM     20  C   UNL     1       3.226   1.608   2.982  0.00  0.00    +0.127 C 
BRANCH  20  30
ATOM     21  C   UNL     1      -0.171   1.643   0.131  0.00  0.00    +0.010 C 
ATOM     22  C   UNL     1      -0.185   0.114   0.135  0.00  0.00    +0.018 C 
ATOM     23  C   UNL     1       0.498  -0.406  -1.133  0.00  0.00    +0.006 C 
ATOM     24  C   UNL     1       0.502  -1.936  -1.119  0.00  0.00    +0.000 C 
ATOM     25  C   UNL     1       1.273  -2.434   0.106  0.00  0.00    +0.003 C 
ATOM     26  C   UNL     1       0.592  -1.923   1.378  0.00  0.00    +0.035 C 
ATOM     27  C   UNL     1       0.559  -0.399   1.363  0.00  0.00    +0.115 C 
ATOM     28  C   UNL     1       1.963   0.161   1.401  0.00  0.00    +0.247 C 
ATOM     29  O   UNL     1       2.841  -0.004   0.581  0.00  0.00    -0.273 OA
ATOM     30  N   UNL     1       2.033   0.882   2.539  0.00  0.00    -0.224 N 
ATOM     31  C   UNL     1       0.876   0.852   3.213  0.00  0.00    +0.309 C 
ATOM     32  O   UNL     1       0.695   1.427   4.269  0.00  0.00    -0.252 OA
ATOM     33  N   UNL     1      -0.062   0.114   2.591  0.00  0.00    -0.285 N 
ATOM     34  H   UNL     1      -0.970  -0.047   2.894  0.00  0.00    +0.151 HD
ENDBRANCH  20  30
ENDBRANCH  19  20
ENDBRANCH   1  19
TORSDOF 6
