REMARK  Name = ZINC35704849
REMARK  16 active torsions:
REMARK  status: ('A' for Active; 'I' for Inactive)
REMARK    1  A    between atoms: C_1  and  C_2
REMARK    2  A    between atoms: C_2  and  O_3
REMARK    3  A    between atoms: O_3  and  C_4
REMARK    4  A    between atoms: C_4  and  C_6
REMARK    5  A    between atoms: C_12  and  C_14
REMARK    6  A    between atoms: C_17  and  C_19
REMARK    7  A    between atoms: C_19  and  N_20
REMARK    8  A    between atoms: N_20  and  C_21
REMARK    9  A    between atoms: N_20  and  C_32
REMARK   10  A    between atoms: C_21  and  C_22
REMARK   11  A    between atoms: C_25  and  C_28
REMARK   12  A    between atoms: C_28  and  C_29
REMARK   13  A    between atoms: C_28  and  C_30
REMARK   14  A    between atoms: C_28  and  C_31
REMARK   15  A    between atoms: C_32  and  C_34
REMARK   16  A    between atoms: C_32  and  C_35
REMARK                            x       y       z     vdW  Elec       q    Type
REMARK                         _______ _______ _______ _____ _____    ______ ____
ROOT
ATOM      1  N   UNL     1       2.728  -9.986   3.021  0.00  0.00    +0.393 N 
ATOM      2  H   UNL     1       3.432 -10.547   3.478  0.00  0.00    -0.080 HD
ENDROOT
BRANCH   1   3
ATOM      3  C   UNL     1       3.366  -9.115   2.026  0.00  0.00    -0.040 C 
ATOM      4  C   UNL     1       3.491  -9.864   0.698  0.00  0.00    -0.008 C 
BRANCH   3   5
ATOM      5  C   UNL     1       4.737  -8.719   2.510  0.00  0.00    -0.061 A 
ATOM      6  C   UNL     1       5.773  -9.634   2.475  0.00  0.00    +0.002 A 
ATOM      7  C   UNL     1       7.031  -9.271   2.919  0.00  0.00    +0.000 A 
ATOM      8  C   UNL     1       7.253  -7.994   3.398  0.00  0.00    +0.000 A 
ATOM      9  C   UNL     1       6.218  -7.079   3.432  0.00  0.00    +0.000 A 
ATOM     10  C   UNL     1       4.961  -7.440   2.984  0.00  0.00    +0.002 A 
ENDBRANCH   3   5
ENDBRANCH   1   3
BRANCH   1  11
ATOM     11  C   UNL     1       2.034  -9.162   4.020  0.00  0.00    +0.020 C 
BRANCH  11  15
ATOM     12  C   UNL     1       4.681  -7.955   6.179  0.00  0.00    +0.164 A 
ATOM     13  C   UNL     1       4.169  -6.774   5.736  0.00  0.00    +0.230 A 
ATOM     14  O   UNL     1       3.156  -7.074   4.907  0.00  0.00    -0.449 OA
ATOM     15  C   UNL     1       3.048  -8.408   4.841  0.00  0.00    +0.179 A 
ATOM     16  N   UNL     1       3.958  -8.949   5.594  0.00  0.00    -0.210 NA
BRANCH  12  23
ATOM     17  C   UNL     1       6.255 -11.641   9.188  0.00  0.00    +0.101 C 
ATOM     18  C   UNL     1       6.945 -10.342   9.613  0.00  0.00    +0.033 C 
ATOM     19  C   UNL     1       7.353  -9.554   8.364  0.00  0.00    +0.109 C 
ATOM     20  N   UNL     1       6.167  -9.359   7.519  0.00  0.00    -0.296 N 
ATOM     21  C   UNL     1       5.378 -10.535   7.127  0.00  0.00    +0.109 C 
ATOM     22  C   UNL     1       4.992 -11.312   8.389  0.00  0.00    +0.033 C 
ATOM     23  C   UNL     1       5.810  -8.125   7.111  0.00  0.00    +0.268 C 
ATOM     24  O   UNL     1       6.419  -7.152   7.512  0.00  0.00    -0.268 OA
BRANCH  17  25
ATOM     25  C   UNL     1       5.883 -12.435  10.413  0.00  0.00    +0.310 C 
ATOM     26  O   UNL     1       4.725 -12.710  10.625  0.00  0.00    -0.251 OA
BRANCH  25  27
ATOM     27  O   UNL     1       6.836 -12.838  11.268  0.00  0.00    -0.465 OA
BRANCH  27  29
ATOM     28  C   UNL     1       7.628 -13.954  13.260  0.00  0.00    +0.048 C 
ATOM     29  C   UNL     1       6.411 -13.587  12.408  0.00  0.00    +0.229 C 
ENDBRANCH  27  29
ENDBRANCH  25  27
ENDBRANCH  17  25
ENDBRANCH  12  23
ENDBRANCH  11  15
ENDBRANCH   1  11
BRANCH   1  30
ATOM     30  C   UNL     1       1.759 -10.865   2.353  0.00  0.00    -0.041 C 
BRANCH  30  31
ATOM     31  C   UNL     1       2.490 -11.994   1.673  0.00  0.00    -0.064 A 
ATOM     32  C   UNL     1       2.163 -12.348   0.377  0.00  0.00    +0.002 A 
ATOM     33  C   UNL     1       2.834 -13.383  -0.247  0.00  0.00    +0.004 A 
ATOM     34  C   UNL     1       3.832 -14.064   0.425  0.00  0.00    -0.042 A 
ATOM     35  C   UNL     1       4.160 -13.709   1.720  0.00  0.00    +0.004 A 
ATOM     36  C   UNL     1       3.492 -12.671   2.342  0.00  0.00    +0.002 A 
BRANCH  34  37
ATOM     37  C   UNL     1       4.563 -15.193  -0.255  0.00  0.00    -0.013 C 
ATOM     38  C   UNL     1       5.256 -14.667  -1.514  0.00  0.00    +0.015 C 
ATOM     39  C   UNL     1       5.609 -15.771   0.699  0.00  0.00    +0.015 C 
ATOM     40  C   UNL     1       3.565 -16.286  -0.642  0.00  0.00    +0.015 C 
ENDBRANCH  34  37
ENDBRANCH  30  31
ENDBRANCH   1  30
TORSDOF 11
