REMARK  Name = ZINC09347070
REMARK  12 active torsions:
REMARK  status: ('A' for Active; 'I' for Inactive)
REMARK    1  A    between atoms: C_1  and  C_2
REMARK    2  A    between atoms: C_2  and  C_3
REMARK    3  A    between atoms: C_3  and  N_59
REMARK    4  A    between atoms: C_9  and  N_16
REMARK    5  A    between atoms: C_10  and  C_11
REMARK    6  A    between atoms: C_11  and  O_13
REMARK    7  A    between atoms: O_13  and  C_14
REMARK    8  A    between atoms: C_14  and  C_15
REMARK    9  A    between atoms: C_17  and  C_19
REMARK   10  A    between atoms: C_24  and  S_25
REMARK   11  A    between atoms: S_25  and  C_28
REMARK   12  A    between atoms: C_28  and  C_29
REMARK                            x       y       z     vdW  Elec       q    Type
REMARK                         _______ _______ _______ _____ _____    ______ ____
ROOT
ATOM      1  C   UNL     1       1.868  -0.694  -8.848  0.00  0.00    -0.074 C 
ATOM      2  C   UNL     1       2.046  -1.911  -7.935  0.00  0.00    +0.018 C 
ATOM      3  C   UNL     1       1.405  -1.592  -6.589  0.00  0.00    -0.025 A 
ATOM      4  C   UNL     1       1.135  -0.311  -6.252  0.00  0.00    -0.021 A 
ATOM      5  S   UNL     1       0.401  -0.410  -4.646  0.00  0.00    -0.079 S 
ATOM      6  C   UNL     1       0.462  -2.127  -4.417  0.00  0.00    +0.086 A 
ATOM      7  C   UNL     1       1.042  -2.584  -5.594  0.00  0.00    +0.091 A 
ATOM      8  C   UNL     1       1.408   0.903  -7.085  0.00  0.00    -0.035 C 
ATOM      9  N   UNL     1       2.359   0.515  -8.155  0.00  0.00    +0.383 N 
ATOM     10  H   UNL     1       3.272   0.310  -7.732  0.00  0.00    -0.081 HD
ENDROOT
BRANCH   6  11
ATOM     11  N   UNL     1       0.031  -2.865  -3.327  0.00  0.00    -0.275 N 
ATOM     12  C   UNL     1      -0.512  -2.241  -2.263  0.00  0.00    +0.250 C 
ATOM     13  O   UNL     1      -0.624  -1.031  -2.260  0.00  0.00    -0.270 OA
ATOM     14  H   UNL     1       0.120  -3.831  -3.329  0.00  0.00    +0.156 HD
BRANCH  12  15
ATOM     15  C   UNL     1      -0.972  -3.029  -1.100  0.00  0.00    +0.062 A 
ATOM     16  C   UNL     1      -0.846  -4.420  -1.100  0.00  0.00    +0.015 A 
ATOM     17  C   UNL     1      -1.277  -5.149  -0.012  0.00  0.00    +0.001 A 
ATOM     18  C   UNL     1      -1.834  -4.505   1.079  0.00  0.00    +0.002 A 
ATOM     19  C   UNL     1      -1.958  -3.127   1.089  0.00  0.00    +0.028 A 
ATOM     20  C   UNL     1      -1.535  -2.386   0.004  0.00  0.00    +0.100 A 
BRANCH  20  21
ATOM     21  S   UNL     1      -1.700  -0.632   0.015  0.00  0.00    -0.003 S 
ATOM     22  O   UNL     1      -2.322  -0.334   1.257  0.00  0.00    -0.169 OA
ATOM     23  O   UNL     1      -2.346  -0.321  -1.212  0.00  0.00    -0.169 OA
BRANCH  21  24
ATOM     24  C   UNL     1       0.002  -0.004   0.002  0.00  0.00    +0.168 C 
ATOM     25  C   UNL     1      -0.019   1.526   0.010  0.00  0.00    +0.028 C 
ENDBRANCH  21  24
ENDBRANCH  20  21
ENDBRANCH  12  15
ENDBRANCH   6  11
BRANCH   7  26
ATOM     26  C   UNL     1       1.276  -4.011  -5.823  0.00  0.00    +0.342 C 
ATOM     27  O   UNL     1       0.418  -4.691  -6.354  0.00  0.00    -0.245 OA
BRANCH  26  28
ATOM     28  O   UNL     1       2.443  -4.572  -5.444  0.00  0.00    -0.461 OA
BRANCH  28  29
ATOM     29  C   UNL     1       2.606  -5.992  -5.702  0.00  0.00    +0.229 C 
ATOM     30  C   UNL     1       3.982  -6.445  -5.208  0.00  0.00    +0.048 C 
ENDBRANCH  28  29
ENDBRANCH  26  28
ENDBRANCH   7  26
BRANCH   9  31
ATOM     31  C   UNL     1       2.514   1.624  -9.120  0.00  0.00    -0.079 C 
BRANCH  31  33
ATOM     32  C   UNL     1       1.380   3.036 -10.842  0.00  0.00    +0.002 C 
ATOM     33  C   UNL     1       1.194   1.887  -9.848  0.00  0.00    -0.022 C 
ENDBRANCH  31  33
ENDBRANCH   9  31
TORSDOF 9
