REMARK  Name = ZINC01934115
REMARK  8 active torsions:
REMARK  status: ('A' for Active; 'I' for Inactive)
REMARK    1  A    between atoms: C_1  and  C_2
REMARK    2  A    between atoms: C_2  and  C_3
REMARK    3  A    between atoms: C_8  and  N_9
REMARK    4  A    between atoms: C_10  and  C_12
REMARK    5  A    between atoms: C_12  and  O_13
REMARK    6  A    between atoms: O_13  and  C_14
REMARK    7  A    between atoms: C_22  and  O_25
REMARK    8  A    between atoms: O_25  and  C_26
REMARK                            x       y       z     vdW  Elec       q    Type
REMARK                         _______ _______ _______ _____ _____    ______ ____
ROOT
ATOM      1  C   UNL     1      -0.683   2.340   0.191  0.00  0.00    +0.125 A 
ATOM      2  C   UNL     1      -1.950   2.921   0.172  0.00  0.00    +0.046 A 
ATOM      3  C   UNL     1      -2.086   4.280   0.157  0.00  0.00    +0.019 A 
ATOM      4  C   UNL     1      -0.949   5.089   0.151  0.00  0.00    +0.068 A 
ATOM      5  C   UNL     1       0.333   4.512   0.165  0.00  0.00    +0.142 A 
ATOM      6  C   UNL     1       0.454   3.129   0.185  0.00  0.00    +0.092 A 
ATOM      7  O   UNL     1       1.424   5.304   0.158  0.00  0.00    -0.459 OA
ATOM      8  C   UNL     1       1.341   6.641   0.139  0.00  0.00    +0.245 A 
ATOM      9  C   UNL     1       0.164   7.298   0.124  0.00  0.00    +0.210 A 
ATOM     10  C   UNL     1      -1.053   6.559   0.129  0.00  0.00    +0.234 A 
ATOM     11  O   UNL     1      -2.137   7.119   0.117  0.00  0.00    -0.283 OA
ENDROOT
BRANCH   1  12
ATOM     12  O   UNL     1      -0.564   0.988   0.211  0.00  0.00    -0.483 OA
BRANCH  12  13
ATOM     13  C   UNL     1      -1.775   0.230   0.216  0.00  0.00    +0.324 C 
BRANCH  13  15
ATOM     14  N   UNL     1      -2.439  -2.153   0.247  0.00  0.00    -0.282 N 
ATOM     15  C   UNL     1      -1.447  -1.241   0.239  0.00  0.00    +0.255 C 
ATOM     16  O   UNL     1      -0.289  -1.604   0.249  0.00  0.00    -0.272 OA
ATOM     17  H   UNL     1      -3.362  -1.865   0.324  0.00  0.00    +0.155 HD
BRANCH  14  23
ATOM     18  C   UNL     1      -3.022  -4.462   0.646  0.00  0.00    -0.026 A 
ATOM     19  C   UNL     1      -2.722  -5.807   0.546  0.00  0.00    +0.005 A 
ATOM     20  C   UNL     1      -1.542  -6.210  -0.052  0.00  0.00    +0.000 A 
ATOM     21  C   UNL     1      -0.660  -5.270  -0.552  0.00  0.00    +0.002 A 
ATOM     22  C   UNL     1      -0.956  -3.925  -0.458  0.00  0.00    +0.023 A 
ATOM     23  C   UNL     1      -2.138  -3.516   0.147  0.00  0.00    +0.037 A 
BRANCH  18  25
ATOM     24  C   UNL     1      -5.376  -3.808   0.223  0.00  0.00    +0.009 C 
ATOM     25  C   UNL     1      -4.309  -4.024   1.298  0.00  0.00    +0.033 C 
ENDBRANCH  18  25
ENDBRANCH  14  23
ENDBRANCH  13  15
ENDBRANCH  12  13
ENDBRANCH   1  12
BRANCH   9  26
ATOM     26  O   UNL     1       0.139   8.659   0.105  0.00  0.00    -0.449 OA
BRANCH  26  27
ATOM     27  C   UNL     1       1.322   9.316  -0.011  0.00  0.00    +0.129 A 
ATOM     28  C   UNL     1       2.071   9.190  -1.185  0.00  0.00    +0.047 A 
ATOM     29  C   UNL     1       3.256   9.840  -1.332  0.00  0.00    +0.012 A 
ATOM     30  C   UNL     1       3.745  10.643  -0.287  0.00  0.00    -0.018 A 
ATOM     31  C   UNL     1       4.969  11.324  -0.404  0.00  0.00    +0.008 A 
ATOM     32  C   UNL     1       5.413  12.093   0.628  0.00  0.00    +0.001 A 
ATOM     33  C   UNL     1       4.671  12.216   1.802  0.00  0.00    +0.001 A 
ATOM     34  C   UNL     1       3.482  11.572   1.950  0.00  0.00    +0.008 A 
ATOM     35  C   UNL     1       2.991  10.769   0.906  0.00  0.00    -0.014 A 
ATOM     36  C   UNL     1       1.768  10.088   1.024  0.00  0.00    +0.054 A 
ENDBRANCH  26  27
ENDBRANCH   9  26
TORSDOF 7
