REMARK  Name = ZINC40360482
REMARK  17 active torsions:
REMARK  status: ('A' for Active; 'I' for Inactive)
REMARK    1  A    between atoms: C_1  and  C_2
REMARK    2  A    between atoms: C_2  and  C_3
REMARK    3  A    between atoms: C_3  and  C_4
REMARK    4  A    between atoms: C_4  and  C_5
REMARK    5  A    between atoms: C_5  and  C_7
REMARK    6  A    between atoms: C_5  and  C_9
REMARK    7  A    between atoms: C_7  and  C_8
REMARK    8  A    between atoms: N_11  and  C_12
REMARK    9  A    between atoms: N_11  and  C_17
REMARK   10  A    between atoms: C_12  and  C_13
REMARK   11  A    between atoms: C_13  and  N_14
REMARK   12  A    between atoms: N_14  and  C_15
REMARK   13  A    between atoms: N_14  and  C_16
REMARK   14  A    between atoms: C_17  and  C_19
REMARK   15  A    between atoms: C_17  and  C_20
REMARK   16  A    between atoms: N_30  and  C_31
REMARK   17  A    between atoms: C_36  and  C_37
REMARK                            x       y       z     vdW  Elec       q    Type
REMARK                         _______ _______ _______ _____ _____    ______ ____
ROOT
ATOM      1  C   UNL     1       1.750  -7.095  -4.693  0.00  0.00    +0.138 A 
ATOM      2  N   UNL     1       1.647  -7.230  -5.981  0.00  0.00    -0.231 NA
ATOM      3  C   UNL     1       2.623  -7.823  -6.713  0.00  0.00    +0.078 A 
ATOM      4  C   UNL     1       2.513  -7.967  -8.098  0.00  0.00    +0.028 A 
ATOM      5  C   UNL     1       3.528  -8.575  -8.803  0.00  0.00    +0.002 A 
ATOM      6  C   UNL     1       4.661  -9.047  -8.154  0.00  0.00    +0.001 A 
ATOM      7  C   UNL     1       4.792  -8.917  -6.788  0.00  0.00    +0.015 A 
ATOM      8  C   UNL     1       3.777  -8.304  -6.057  0.00  0.00    +0.065 A 
ATOM      9  C   UNL     1       3.862  -8.136  -4.599  0.00  0.00    +0.266 A 
ATOM     10  O   UNL     1       4.830  -8.529  -3.973  0.00  0.00    -0.267 OA
ATOM     11  N   UNL     1       2.826  -7.524  -3.980  0.00  0.00    -0.263 N 
ENDROOT
BRANCH  11  12
ATOM     12  C   UNL     1       2.860  -7.335  -2.592  0.00  0.00    +0.054 A 
ATOM     13  C   UNL     1       2.017  -8.071  -1.769  0.00  0.00    +0.028 A 
ATOM     14  C   UNL     1       2.052  -7.882  -0.402  0.00  0.00    +0.022 A 
ATOM     15  C   UNL     1       2.925  -6.960   0.149  0.00  0.00    +0.041 A 
ATOM     16  C   UNL     1       3.765  -6.225  -0.669  0.00  0.00    +0.025 A 
ATOM     17  C   UNL     1       3.739  -6.415  -2.037  0.00  0.00    -0.025 A 
ATOM     18  C   UNL     1       4.659  -5.619  -2.927  0.00  0.00    +0.046 C 
ATOM     19 CL   UNL     1       2.966  -6.725   1.868  0.00  0.00    -0.084 Cl
ENDBRANCH  11  12
BRANCH   1  20
ATOM     20  C   UNL     1       0.622  -6.425  -3.952  0.00  0.00    +0.139 C 
ATOM     21  C   UNL     1      -0.652  -6.489  -4.797  0.00  0.00    +0.036 C 
BRANCH  20  24
ATOM     22  C   UNL     1       1.172  -4.599  -2.435  0.00  0.00    +0.219 C 
ATOM     23  O   UNL     1       1.145  -5.391  -1.517  0.00  0.00    -0.275 OA
ATOM     24  N   UNL     1       0.969  -5.024  -3.698  0.00  0.00    -0.293 N 
BRANCH  22  25
ATOM     25  C   UNL     1       1.432  -3.140  -2.164  0.00  0.00    +0.075 C 
BRANCH  25  26
ATOM     26  C   UNL     1       0.100  -2.394  -2.063  0.00  0.00    +0.009 C 
ATOM     27  C   UNL     1      -0.674  -2.895  -0.842  0.00  0.00    +0.004 C 
ENDBRANCH  25  26
BRANCH  25  28
ATOM     28  C   UNL     1       2.199  -2.995  -0.847  0.00  0.00    +0.013 C 
BRANCH  28  29
ATOM     29  C   UNL     1       2.607  -1.533  -0.654  0.00  0.00    +0.000 C 
BRANCH  29  31
ATOM     30  C   UNL     1       3.694   0.093   0.901  0.00  0.00    +0.004 C 
ATOM     31  C   UNL     1       3.285  -1.369   0.708  0.00  0.00    -0.003 C 
ENDBRANCH  29  31
ENDBRANCH  28  29
ENDBRANCH  25  28
ENDBRANCH  22  25
BRANCH  24  32
ATOM     32  C   UNL     1       1.096  -4.086  -4.816  0.00  0.00    +0.090 C 
BRANCH  32  33
ATOM     33  C   UNL     1       2.509  -4.171  -5.395  0.00  0.00    -0.060 C 
BRANCH  33  34
ATOM     34  N   UNL     1       2.670  -3.155  -6.444  0.00  0.00    +0.377 N 
ATOM     35  C   UNL     1       4.061  -3.155  -6.917  0.00  0.00    -0.097 C 
ATOM     36  C   UNL     1       1.772  -3.462  -7.565  0.00  0.00    -0.097 C 
ATOM     37  H   UNL     1       2.442  -2.246  -6.070  0.00  0.00    -0.083 HD
ENDBRANCH  33  34
ENDBRANCH  32  33
ENDBRANCH  24  32
ENDBRANCH  20  24
ENDBRANCH   1  20
TORSDOF 11
