REMARK  Name = ZINC44978682
REMARK  4 active torsions:
REMARK  status: ('A' for Active; 'I' for Inactive)
REMARK    1  A    between atoms: C_1  and  C_2
REMARK    2  A    between atoms: C_7  and  C_10
REMARK    3  A    between atoms: C_12  and  C_15
REMARK    4  A    between atoms: C_15  and  N_22
REMARK                            x       y       z     vdW  Elec       q    Type
REMARK                         _______ _______ _______ _____ _____    ______ ____
ROOT
ATOM      1  C   UNL     1       1.450  -2.600   2.458  0.00  0.00    +0.175 A 
ATOM      2  N   UNL     1       2.533  -3.384   2.452  0.00  0.00    -0.197 NA
ATOM      3  C   UNL     1       2.972  -3.551   3.668  0.00  0.00    +0.216 A 
ATOM      4  O   UNL     1       2.173  -2.870   4.499  0.00  0.00    -0.340 OA
ATOM      5  N   UNL     1       1.188  -2.252   3.685  0.00  0.00    -0.061 NA
ENDROOT
BRANCH   1  11
ATOM      6  C   UNL     1      -0.096   1.293  -0.233  0.00  0.00    +0.007 C 
ATOM      7  C   UNL     1      -0.115  -0.232  -0.113  0.00  0.00    -0.013 C 
ATOM      8  C   UNL     1      -1.560  -0.715   0.023  0.00  0.00    +0.003 C 
ATOM      9  C   UNL     1      -1.579  -2.240   0.143  0.00  0.00    +0.001 C 
ATOM     10  C   UNL     1      -0.781  -2.664   1.378  0.00  0.00    +0.011 C 
ATOM     11  C   UNL     1       0.664  -2.182   1.242  0.00  0.00    +0.061 C 
ATOM     12  C   UNL     1       0.683  -0.656   1.121  0.00  0.00    +0.014 C 
ENDBRANCH   1  11
BRANCH   3  13
ATOM     13  C   UNL     1       4.172  -4.369   4.070  0.00  0.00    +0.010 C 
ATOM     14  C   UNL     1       4.789  -3.785   5.312  0.00  0.00    -0.004 C 
ATOM     15  C   UNL     1       4.493  -2.281   5.466  0.00  0.00    -0.001 C 
ATOM     16  C   UNL     1       4.607  -1.510   4.137  0.00  0.00    -0.000 C 
ATOM     17  C   UNL     1       5.794  -1.944   3.321  0.00  0.00    -0.000 C 
ATOM     18  C   UNL     1       5.334  -3.026   2.322  0.00  0.00    -0.001 C 
ATOM     19  C   UNL     1       5.222  -4.339   2.940  0.00  0.00    -0.004 C 
BRANCH  13  20
ATOM     20  N   UNL     1       3.761  -5.756   4.324  0.00  0.00    +0.388 N 
ATOM     21  H   UNL     1       3.355  -6.146   3.486  0.00  0.00    -0.089 HD
ATOM     22  H   UNL     1       4.566  -6.302   4.593  0.00  0.00    -0.089 HD
ATOM     23  H   UNL     1       3.079  -5.774   5.068  0.00  0.00    -0.089 HD
ENDBRANCH  13  20
ENDBRANCH   3  13
TORSDOF 3
