REMARK  Name = ZINC22322512
REMARK  16 active torsions:
REMARK  status: ('A' for Active; 'I' for Inactive)
REMARK    1  A    between atoms: C_1  and  C_2
REMARK    2  A    between atoms: C_2  and  O_3
REMARK    3  A    between atoms: O_3  and  C_4
REMARK    4  A    between atoms: C_7  and  N_10
REMARK    5  A    between atoms: N_10  and  C_11
REMARK    6  A    between atoms: N_10  and  S_28
REMARK    7  A    between atoms: C_11  and  C_12
REMARK    8  A    between atoms: N_14  and  C_15
REMARK    9  A    between atoms: C_15  and  C_17
REMARK   10  A    between atoms: C_15  and  C_18
REMARK   11  A    between atoms: C_18  and  C_19
REMARK   12  A    between atoms: C_19  and  C_20
REMARK   13  A    between atoms: C_19  and  C_21
REMARK   14  A    between atoms: C_19  and  C_22
REMARK   15  A    between atoms: S_28  and  C_31
REMARK   16  A    between atoms: C_34  and  C_37
REMARK                            x       y       z     vdW  Elec       q    Type
REMARK                         _______ _______ _______ _____ _____    ______ ____
ROOT
ATOM      1  N   UNL     1       8.272  -4.279   2.102  0.00  0.00    -0.194 N 
ENDROOT
BRANCH   1   5
ATOM      2  C   UNL     1       6.797  -7.537  -0.040  0.00  0.00    +0.121 A 
ATOM      3  C   UNL     1       6.254  -6.276  -0.235  0.00  0.00    +0.047 A 
ATOM      4  C   UNL     1       6.742  -5.196   0.474  0.00  0.00    +0.028 A 
ATOM      5  C   UNL     1       7.777  -5.373   1.383  0.00  0.00    +0.052 A 
ATOM      6  C   UNL     1       8.324  -6.635   1.574  0.00  0.00    +0.028 A 
ATOM      7  C   UNL     1       7.831  -7.715   0.868  0.00  0.00    +0.047 A 
BRANCH   2   8
ATOM      8  O   UNL     1       6.316  -8.600  -0.739  0.00  0.00    -0.492 OA
BRANCH   8  10
ATOM      9  C   UNL     1       6.254 -10.935  -1.359  0.00  0.00    +0.048 C 
ATOM     10  C   UNL     1       6.922  -9.869  -0.487  0.00  0.00    +0.225 C 
ENDBRANCH   8  10
ENDBRANCH   2   8
ENDBRANCH   1   5
BRANCH   1  11
ATOM     11  S   UNL     1       9.833  -4.291   2.656  0.00  0.00    +0.075 S 
ATOM     12  O   UNL     1      10.539  -5.234   1.862  0.00  0.00    -0.150 OA
ATOM     13  O   UNL     1      10.235  -2.932   2.764  0.00  0.00    -0.150 OA
BRANCH  11  14
ATOM     14  C   UNL     1       9.798  -4.938   4.295  0.00  0.00    +0.109 A 
ATOM     15  C   UNL     1       9.510  -4.106   5.361  0.00  0.00    +0.029 A 
ATOM     16  C   UNL     1       9.479  -4.614   6.646  0.00  0.00    +0.005 A 
ATOM     17  C   UNL     1       9.745  -5.952   6.866  0.00  0.00    -0.050 A 
ATOM     18  C   UNL     1      10.037  -6.784   5.801  0.00  0.00    +0.005 A 
ATOM     19  C   UNL     1      10.064  -6.276   4.515  0.00  0.00    +0.029 A 
ATOM     20  C   UNL     1       9.715  -6.506   8.267  0.00  0.00    +0.044 C 
ENDBRANCH  11  14
ENDBRANCH   1  11
BRANCH   1  21
ATOM     21  C   UNL     1       7.410  -3.124   2.363  0.00  0.00    +0.227 C 
BRANCH  21  22
ATOM     22  C   UNL     1       7.456  -2.186   1.185  0.00  0.00    +0.232 C 
ATOM     23  O   UNL     1       8.141  -2.456   0.221  0.00  0.00    -0.274 OA
ATOM     24  N   UNL     1       6.736  -1.047   1.201  0.00  0.00    -0.311 N 
ATOM     25  H   UNL     1       6.114  -0.802   2.075  0.00  0.00    +0.149 HD
BRANCH  24  26
ATOM     26  C   UNL     1       6.780  -0.135   0.056  0.00  0.00    +0.071 C 
ATOM     27  C   UNL     1       7.985   0.798   0.193  0.00  0.00    +0.028 C 
BRANCH  26  28
ATOM     28  C   UNL     1       5.495   0.695   0.014  0.00  0.00    +0.033 C 
BRANCH  28  29
ATOM     29  C   UNL     1       4.308  -0.219  -0.299  0.00  0.00    -0.008 C 
ATOM     30  C   UNL     1       4.111  -1.209   0.851  0.00  0.00    +0.016 C 
ATOM     31  C   UNL     1       4.583  -0.988  -1.593  0.00  0.00    +0.016 C 
BRANCH  29  32
ATOM     32  C   UNL     1       3.063   0.613  -0.464  0.00  0.00    -0.042 A 
ATOM     33  C   UNL     1       1.857   0.003  -0.753  0.00  0.00    +0.004 A 
ATOM     34  C   UNL     1       0.715   0.767  -0.904  0.00  0.00    +0.000 A 
ATOM     35  C   UNL     1       0.779   2.141  -0.768  0.00  0.00    +0.000 A 
ATOM     36  C   UNL     1       1.985   2.751  -0.479  0.00  0.00    +0.000 A 
ATOM     37  C   UNL     1       3.127   1.987  -0.327  0.00  0.00    +0.004 A 
ENDBRANCH  29  32
ENDBRANCH  28  29
ENDBRANCH  26  28
ENDBRANCH  24  26
ENDBRANCH  21  22
ENDBRANCH   1  21
TORSDOF 11
