REMARK  Name = ZINC02457847
REMARK  7 active torsions:
REMARK  status: ('A' for Active; 'I' for Inactive)
REMARK    1  A    between atoms: C_1  and  C_2
REMARK    2  A    between atoms: C_2  and  C_3
REMARK    3  A    between atoms: C_3  and  C_5
REMARK    4  A    between atoms: C_3  and  N_6
REMARK    5  A    between atoms: C_7  and  C_9
REMARK    6  A    between atoms: C_9  and  O_27
REMARK    7  A    between atoms: N_19  and  C_20
REMARK                            x       y       z     vdW  Elec       q    Type
REMARK                         _______ _______ _______ _____ _____    ______ ____
ROOT
ATOM      1  C   UNL     1      -1.117   4.835  -1.792  0.00  0.00    +0.247 C 
ATOM      2  C   UNL     1      -1.279   5.394  -0.397  0.00  0.00    +0.034 A 
ATOM      3  C   UNL     1      -2.022   4.735   0.555  0.00  0.00    +0.025 A 
ATOM      4  C   UNL     1      -2.148   5.278   1.824  0.00  0.00    +0.018 A 
ATOM      5  C   UNL     1      -1.528   6.476   2.129  0.00  0.00    +0.017 A 
ATOM      6  C   UNL     1      -0.782   7.139   1.174  0.00  0.00    +0.025 A 
ATOM      7  C   UNL     1      -0.653   6.600  -0.099  0.00  0.00    +0.043 A 
ATOM      8  N   UNL     1       0.097   7.254  -1.077  0.00  0.00    -0.269 N 
ATOM      9  C   UNL     1       0.252   6.774  -2.318  0.00  0.00    +0.314 C 
ATOM     10  O   UNL     1       0.923   7.412  -3.107  0.00  0.00    -0.252 OA
ATOM     11  N   UNL     1      -0.300   5.620  -2.733  0.00  0.00    -0.214 N 
ATOM     12 BR   UNL     1      -3.167   4.379   3.139  0.00  0.00    -0.050 Br
ATOM     13  H   UNL     1       0.525   8.093  -0.849  0.00  0.00    +0.156 HD
ENDROOT
BRANCH  11  14
ATOM     14  C   UNL     1      -0.101   5.172  -4.043  0.00  0.00    +0.041 A 
ATOM     15  C   UNL     1       1.051   4.468  -4.371  0.00  0.00    +0.024 A 
ATOM     16  C   UNL     1       1.241   4.021  -5.663  0.00  0.00    +0.002 A 
ATOM     17  C   UNL     1       0.292   4.284  -6.634  0.00  0.00    +0.000 A 
ATOM     18  C   UNL     1      -0.853   4.989  -6.313  0.00  0.00    +0.002 A 
ATOM     19  C   UNL     1      -1.052   5.434  -5.021  0.00  0.00    +0.024 A 
ENDBRANCH  11  14
BRANCH   1  21
ATOM     20  N   UNL     1       0.737   3.323  -1.165  0.00  0.00    -0.309 N 
ATOM     21  C   UNL     1      -0.502   3.464  -1.675  0.00  0.00    +0.269 C 
ATOM     22  O   UNL     1      -1.123   2.488  -2.040  0.00  0.00    -0.270 OA
ATOM     23  H   UNL     1       1.234   4.103  -0.873  0.00  0.00    +0.149 HD
BRANCH  20  24
ATOM     24  C   UNL     1       1.335   1.990  -1.051  0.00  0.00    +0.070 C 
ATOM     25  C   UNL     1       1.997   1.613  -2.377  0.00  0.00    +0.028 C 
BRANCH  24  27
ATOM     26  C   UNL     1       1.705   2.250   1.407  0.00  0.00    +0.005 C 
ATOM     27  C   UNL     1       2.386   1.996   0.061  0.00  0.00    +0.018 C 
ENDBRANCH  24  27
ENDBRANCH  20  24
ENDBRANCH   1  21
BRANCH   1  28
ATOM     28  O   UNL     1      -2.419   4.683  -2.360  0.00  0.00    -0.360 OA
ATOM     29  H   UNL     1      -3.015   4.131  -1.835  0.00  0.00    +0.213 HD
ENDBRANCH   1  28
TORSDOF 5
