REMARK  Name = ZINC39499756
REMARK  6 active torsions:
REMARK  status: ('A' for Active; 'I' for Inactive)
REMARK    1  A    between atoms: C_4  and  C_7
REMARK    2  A    between atoms: C_11  and  C_28
REMARK    3  A    between atoms: N_16  and  S_17
REMARK    4  A    between atoms: S_17  and  O_20
REMARK    5  A    between atoms: O_20  and  C_21
REMARK    6  A    between atoms: C_33  and  O_34
REMARK                            x       y       z     vdW  Elec       q    Type
REMARK                         _______ _______ _______ _____ _____    ______ ____
ROOT
ATOM      1  C   UNL     1       3.691  -0.680  -0.037  0.00  0.00    +0.033 C 
ATOM      2  C   UNL     1       3.717  -2.027   0.057  0.00  0.00    +0.062 C 
ATOM      3  C   UNL     1       2.529  -2.902   0.070  0.00  0.00    +0.003 A 
ATOM      4  C   UNL     1       1.164  -2.620  -0.004  0.00  0.00    +0.020 A 
ATOM      5  C   UNL     1       0.241  -3.659   0.031  0.00  0.00    +0.005 A 
ATOM      6  C   UNL     1       0.681  -4.979   0.140  0.00  0.00    +0.049 A 
ATOM      7  C   UNL     1       2.034  -5.255   0.214  0.00  0.00    +0.026 A 
ATOM      8  C   UNL     1       2.953  -4.229   0.179  0.00  0.00    -0.018 A 
ATOM      9  C   UNL     1       4.461  -4.209   0.239  0.00  0.00    +0.170 C 
ATOM     10  N   UNL     1       4.865  -2.801   0.151  0.00  0.00    -0.170 N 
ATOM     11 CL   UNL     1      -0.472  -6.277   0.185  0.00  0.00    -0.083 Cl
ENDROOT
BRANCH   1  15
ATOM     12  C   UNL     1       0.060   1.422   0.585  0.00  0.00    +0.000 A 
ATOM     13  C   UNL     1       0.419   0.398   1.444  0.00  0.00    +0.001 A 
ATOM     14  C   UNL     1       1.597  -0.290   1.249  0.00  0.00    +0.008 A 
ATOM     15  C   UNL     1       2.431   0.049   0.178  0.00  0.00    -0.023 A 
ATOM     16  C   UNL     1       2.062   1.085  -0.685  0.00  0.00    +0.008 A 
ATOM     17  C   UNL     1       0.880   1.764  -0.476  0.00  0.00    +0.001 A 
ENDBRANCH   1  15
BRANCH   5  18
ATOM     18  C   UNL     1      -1.211  -3.365  -0.048  0.00  0.00    +0.025 A 
ATOM     19  C   UNL     1      -1.751  -2.809  -1.205  0.00  0.00    +0.012 A 
ATOM     20  C   UNL     1      -3.102  -2.537  -1.273  0.00  0.00    +0.001 A 
ATOM     21  C   UNL     1      -3.924  -2.815  -0.195  0.00  0.00    +0.004 A 
ATOM     22  C   UNL     1      -3.399  -3.366   0.958  0.00  0.00    +0.046 A 
ATOM     23  C   UNL     1      -2.045  -3.649   1.038  0.00  0.00    +0.125 A 
BRANCH  23  24
ATOM     24  O   UNL     1      -1.528  -4.196   2.169  0.00  0.00    -0.506 OA
ATOM     25  H   UNL     1      -1.232  -3.546   2.821  0.00  0.00    +0.292 HD
ENDBRANCH  23  24
ENDBRANCH   5  18
BRANCH  10  26
ATOM     26  S   UNL     1       6.421  -2.235   0.167  0.00  0.00    +0.210 S 
ATOM     27  O   UNL     1       7.246  -3.301  -0.283  0.00  0.00    -0.115 OA
ATOM     28  O   UNL     1       6.398  -0.967  -0.474  0.00  0.00    -0.115 OA
BRANCH  26  29
ATOM     29  O   UNL     1       6.793  -1.980   1.621  0.00  0.00    -0.331 OA
BRANCH  29  30
ATOM     30  C   UNL     1       7.045  -3.110   2.333  0.00  0.00    +0.158 A 
ATOM     31  C   UNL     1       6.014  -3.755   3.000  0.00  0.00    +0.048 A 
ATOM     32  C   UNL     1       6.272  -4.903   3.723  0.00  0.00    +0.004 A 
ATOM     33  C   UNL     1       7.557  -5.410   3.782  0.00  0.00    +0.000 A 
ATOM     34  C   UNL     1       8.587  -4.768   3.119  0.00  0.00    +0.004 A 
ATOM     35  C   UNL     1       8.332  -3.623   2.389  0.00  0.00    +0.048 A 
ENDBRANCH  29  30
ENDBRANCH  26  29
ENDBRANCH  10  26
TORSDOF 6
