REMARK  Name = ZINC38547411
REMARK  6 active torsions:
REMARK  status: ('A' for Active; 'I' for Inactive)
REMARK    1  A    between atoms: N_7  and  C_8
REMARK    2  A    between atoms: C_8  and  C_10
REMARK    3  A    between atoms: C_8  and  C_20
REMARK    4  A    between atoms: C_13  and  C_16
REMARK    5  A    between atoms: C_24  and  N_25
REMARK    6  A    between atoms: C_26  and  C_28
REMARK                            x       y       z     vdW  Elec       q    Type
REMARK                         _______ _______ _______ _____ _____    ______ ____
ROOT
ATOM      1  C   UNL     1      -0.031  -2.686  -0.141  0.00  0.00    +0.135 C 
ENDROOT
BRANCH   1   8
ATOM      2  C   UNL     1       3.484  -3.666  -2.216  0.00  0.00    +0.005 A 
ATOM      3  C   UNL     1       4.472  -2.699  -2.353  0.00  0.00    +0.018 A 
ATOM      4  C   UNL     1       4.292  -1.461  -1.771  0.00  0.00    +0.084 A 
ATOM      5  N   UNL     1       3.196  -1.187  -1.089  0.00  0.00    -0.350 N 
ATOM      6  C   UNL     1       2.232  -2.081  -0.935  0.00  0.00    +0.097 A 
ATOM      7  C   UNL     1       2.347  -3.349  -1.496  0.00  0.00    +0.041 A 
ATOM      8  N   UNL     1       1.094  -1.750  -0.209  0.00  0.00    -0.320 N 
ATOM      9  H   UNL     1       1.045  -0.898   0.254  0.00  0.00    +0.148 HD
ATOM     10  H   UNL     1       3.094  -0.308  -0.690  0.00  0.00    +0.166 HD
ENDBRANCH   1   8
BRANCH   1  11
ATOM     11  C   UNL     1      -0.823  -2.612  -1.421  0.00  0.00    +0.009 A 
ATOM     12  C   UNL     1      -1.281  -3.782  -2.028  0.00  0.00    -0.030 A 
ATOM     13  C   UNL     1      -1.988  -3.634  -3.180  0.00  0.00    -0.005 A 
ATOM     14  S   UNL     1      -2.029  -1.880  -3.433  0.00  0.00    -0.078 S 
ATOM     15  C   UNL     1      -1.099  -1.406  -1.983  0.00  0.00    +0.078 A 
ATOM     16  C   UNL     1      -2.586  -4.711  -4.027  0.00  0.00    +0.043 C 
ATOM     17  C   UNL     1      -1.974  -6.055  -3.603  0.00  0.00    +0.005 C 
ATOM     18  C   UNL     1      -2.018  -6.154  -2.076  0.00  0.00    +0.005 C 
ATOM     19  C   UNL     1      -1.020  -5.174  -1.459  0.00  0.00    +0.036 C 
BRANCH  15  20
ATOM     20  N   UNL     1      -0.746  -0.128  -1.543  0.00  0.00    -0.273 N 
ATOM     21  C   UNL     1      -1.217   0.960  -2.184  0.00  0.00    +0.284 C 
ATOM     22  O   UNL     1      -2.013   0.831  -3.096  0.00  0.00    -0.266 OA
ATOM     23  H   UNL     1      -0.161  -0.024  -0.776  0.00  0.00    +0.156 HD
BRANCH  21  24
ATOM     24  C   UNL     1      -0.772   2.297  -1.782  0.00  0.00    +0.189 A 
ATOM     25  C   UNL     1      -1.233   3.481  -2.283  0.00  0.00    +0.054 A 
ATOM     26  C   UNL     1      -0.535   4.501  -1.617  0.00  0.00    +0.042 A 
ATOM     27  C   UNL     1       0.311   3.903  -0.750  0.00  0.00    +0.196 A 
ATOM     28  O   UNL     1       0.162   2.575  -0.849  0.00  0.00    -0.458 OA
ENDBRANCH  21  24
ENDBRANCH  15  20
ENDBRANCH   1  11
BRANCH   1  29
ATOM     29  C   UNL     1      -0.918  -2.322   1.021  0.00  0.00    -0.023 A 
ATOM     30  C   UNL     1      -1.088  -0.996   1.373  0.00  0.00    +0.006 A 
ATOM     31  C   UNL     1      -1.902  -0.662   2.439  0.00  0.00    +0.013 A 
ATOM     32  C   UNL     1      -2.547  -1.655   3.153  0.00  0.00    +0.055 A 
ATOM     33  C   UNL     1      -2.378  -2.981   2.801  0.00  0.00    +0.013 A 
ATOM     34  C   UNL     1      -1.568  -3.314   1.732  0.00  0.00    +0.006 A 
BRANCH  32  35
ATOM     35  C   UNL     1      -3.434  -1.291   4.316  0.00  0.00    +0.417 C 
ATOM     36  F   UNL     1      -4.742  -1.093   3.861  0.00  0.00    -0.166 F 
ATOM     37  F   UNL     1      -3.419  -2.327   5.256  0.00  0.00    -0.166 F 
ATOM     38  F   UNL     1      -2.964  -0.115   4.911  0.00  0.00    -0.166 F 
ENDBRANCH  32  35
ENDBRANCH   1  29
TORSDOF 6
