REMARK  Name = ZINC38742405
REMARK  5 active torsions:
REMARK  status: ('A' for Active; 'I' for Inactive)
REMARK    1  A    between atoms: C_1  and  C_2
REMARK    2  A    between atoms: C_2  and  C_3
REMARK    3  A    between atoms: C_2  and  C_4
REMARK    4  A    between atoms: C_6  and  C_10
REMARK    5  A    between atoms: C_16  and  C_19
REMARK                            x       y       z     vdW  Elec       q    Type
REMARK                         _______ _______ _______ _____ _____    ______ ____
ROOT
ATOM      1  C   UNL     1       3.456  -0.884  -3.063  0.00  0.00    +0.181 A 
ATOM      2  N   UNL     1       3.740   0.378  -3.192  0.00  0.00    -0.129 NA
ATOM      3  N   UNL     1       4.979   0.521  -3.510  0.00  0.00    -0.121 NA
ATOM      4  C   UNL     1       5.535  -0.645  -3.613  0.00  0.00    +0.211 A 
ATOM      5  N   UNL     1       4.611  -1.609  -3.300  0.00  0.00    -0.222 N 
ATOM      6  N   UNL     1       4.995  -2.916  -3.274  0.00  0.00    -0.263 N 
ATOM      7  C   UNL     1       6.222  -3.225  -4.056  0.00  0.00    +0.184 C 
ATOM      8  S   UNL     1       7.014  -1.561  -3.993  0.00  0.00    -0.056 S 
ATOM      9  H   UNL     1       5.077  -3.251  -2.326  0.00  0.00    +0.168 HD
ENDROOT
BRANCH   7  10
ATOM     10  C   UNL     1       7.064  -4.274  -3.375  0.00  0.00    +0.004 A 
ATOM     11  C   UNL     1       6.525  -5.040  -2.359  0.00  0.00    +0.027 A 
ATOM     12  C   UNL     1       7.298  -6.002  -1.734  0.00  0.00    +0.041 A 
ATOM     13  C   UNL     1       8.610  -6.198  -2.126  0.00  0.00    +0.021 A 
ATOM     14  C   UNL     1       9.149  -5.431  -3.142  0.00  0.00    +0.022 A 
ATOM     15  C   UNL     1       8.374  -4.473  -3.771  0.00  0.00    +0.047 A 
ATOM     16 CL   UNL     1       9.049  -3.515  -5.052  0.00  0.00    -0.083 Cl
ATOM     17 CL   UNL     1       6.621  -6.965  -0.457  0.00  0.00    -0.084 Cl
ENDBRANCH   7  10
BRANCH   1  20
ATOM     18  C   UNL     1       0.707  -0.490  -1.238  0.00  0.00    +0.064 C 
ATOM     19  C   UNL     1       1.805  -1.250  -1.237  0.00  0.00    +0.034 C 
ATOM     20  C   UNL     1       2.107  -1.457  -2.710  0.00  0.00    +0.222 C 
ATOM     21  N   UNL     1       1.029  -0.708  -3.378  0.00  0.00    -0.172 NA
ATOM     22  N   UNL     1       0.311  -0.220  -2.502  0.00  0.00    -0.158 NA
BRANCH  18  24
ATOM     23  C   UNL     1      -0.019   1.526   0.010  0.00  0.00    +0.014 C 
ATOM     24  C   UNL     1       0.002  -0.004   0.002  0.00  0.00    +0.033 C 
ATOM     25  C   UNL     1      -1.433  -0.534   0.013  0.00  0.00    +0.014 C 
ENDBRANCH  18  24
ENDBRANCH   1  20
TORSDOF 3
