REMARK  Name = ZINC14480593
REMARK  5 active torsions:
REMARK  status: ('A' for Active; 'I' for Inactive)
REMARK    1  A    between atoms: C_1  and  C_2
REMARK    2  A    between atoms: C_2  and  O_3
REMARK    3  A    between atoms: O_3  and  C_4
REMARK    4  A    between atoms: C_7  and  C_10
REMARK    5  A    between atoms: C_21  and  N_26
REMARK                            x       y       z     vdW  Elec       q    Type
REMARK                         _______ _______ _______ _____ _____    ______ ____
ROOT
ATOM      1  C   UNL     1       0.669   3.211  -2.075  0.00  0.00    +0.105 C 
ATOM      2  C   UNL     1       0.692   3.315  -0.547  0.00  0.00    +0.029 C 
ATOM      3  C   UNL     1       1.222   1.957   0.001  0.00  0.00    +0.033 C 
ATOM      4  C   UNL     1      -0.013   1.076   0.008  0.00  0.00    -0.030 C 
ATOM      5  C   UNL     1      -1.100   1.808   0.017  0.00  0.00    -0.023 C 
ATOM      6  C   UNL     1      -0.741   3.275   0.020  0.00  0.00    +0.049 C 
ATOM      7  C   UNL     1      -1.712   4.064  -0.816  0.00  0.00    -0.017 A 
ATOM      8  C   UNL     1      -2.976   4.314  -0.299  0.00  0.00    +0.038 A 
ATOM      9  C   UNL     1      -3.896   5.048  -1.020  0.00  0.00    +0.127 A 
ATOM     10  C   UNL     1      -3.568   5.544  -2.269  0.00  0.00    +0.034 A 
ATOM     11  C   UNL     1      -2.314   5.301  -2.793  0.00  0.00    +0.025 A 
ATOM     12  C   UNL     1      -1.389   4.561  -2.069  0.00  0.00    +0.032 A 
ATOM     13  N   UNL     1      -0.124   4.320  -2.616  0.00  0.00    -0.336 N 
ATOM     14  H   UNL     1       0.221   4.873  -3.334  0.00  0.00    +0.147 HD
ENDROOT
BRANCH   1  18
ATOM     15  C   UNL     1       4.662   3.439  -3.583  0.00  0.00    +0.121 A 
ATOM     16  C   UNL     1       4.037   2.207  -3.454  0.00  0.00    +0.046 A 
ATOM     17  C   UNL     1       2.747   2.136  -2.966  0.00  0.00    +0.009 A 
ATOM     18  C   UNL     1       2.077   3.292  -2.607  0.00  0.00    -0.027 A 
ATOM     19  C   UNL     1       2.696   4.521  -2.740  0.00  0.00    +0.009 A 
ATOM     20  C   UNL     1       3.988   4.597  -3.221  0.00  0.00    +0.046 A 
BRANCH  15  21
ATOM     21  O   UNL     1       5.931   3.512  -4.063  0.00  0.00    -0.492 OA
BRANCH  21  23
ATOM     22  C   UNL     1       7.932   4.696  -4.724  0.00  0.00    +0.048 C 
ATOM     23  C   UNL     1       6.511   4.814  -4.169  0.00  0.00    +0.225 C 
ENDBRANCH  21  23
ENDBRANCH  15  21
ENDBRANCH   1  18
BRANCH   9  24
ATOM     24  N   UNL     1      -5.239   5.305  -0.455  0.00  0.00    +0.056 N 
ATOM     25  O   UNL     1      -5.531   4.869   0.644  0.00  0.00    -0.126 OA
ATOM     26  O   UNL     1      -6.053   5.953  -1.089  0.00  0.00    -0.126 OA
ENDBRANCH   9  24
TORSDOF 4
