REMARK  Name = ZINC15770174
REMARK  6 active torsions:
REMARK  status: ('A' for Active; 'I' for Inactive)
REMARK    1  A    between atoms: C_4  and  C_7
REMARK    2  A    between atoms: N_8  and  N_9
REMARK    3  A    between atoms: C_10  and  C_12
REMARK    4  A    between atoms: C_14  and  C_32
REMARK    5  A    between atoms: C_16  and  C_24
REMARK    6  A    between atoms: C_24  and  C_26
REMARK                            x       y       z     vdW  Elec       q    Type
REMARK                         _______ _______ _______ _____ _____    ______ ____
ROOT
ATOM      1  C   UNL     1      -6.011   3.038   0.146  0.00  0.00    +0.153 C 
ATOM      2  C   UNL     1      -4.969   3.967  -0.526  0.00  0.00    +0.059 C 
ATOM      3  C   UNL     1      -3.631   3.398   0.022  0.00  0.00    +0.092 C 
ATOM      4  C   UNL     1      -4.007   3.027   1.467  0.00  0.00    +0.090 C 
ATOM      5  C   UNL     1      -6.052   2.033   2.509  0.00  0.00    +0.053 C 
ATOM      6  C   UNL     1      -5.268   1.155   3.177  0.00  0.00    +0.013 C 
ATOM      7  C   UNL     1      -3.888   0.932   2.728  0.00  0.00    -0.001 C 
ATOM      8  C   UNL     1      -3.264   1.797   1.925  0.00  0.00    -0.006 C 
ATOM      9  N   UNL     1      -5.445   3.018   1.535  0.00  0.00    -0.384 NA
ATOM     10  H   UNL     1      -5.691   3.932   1.931  0.00  0.00    +0.127 HD
ENDROOT
BRANCH   2  11
ATOM     11  C   UNL     1      -5.031   3.848  -2.027  0.00  0.00    -0.041 A 
ATOM     12  C   UNL     1      -4.522   2.725  -2.653  0.00  0.00    +0.004 A 
ATOM     13  C   UNL     1      -4.581   2.615  -4.030  0.00  0.00    +0.000 A 
ATOM     14  C   UNL     1      -5.142   3.630  -4.781  0.00  0.00    +0.000 A 
ATOM     15  C   UNL     1      -5.647   4.755  -4.156  0.00  0.00    +0.000 A 
ATOM     16  C   UNL     1      -5.590   4.864  -2.779  0.00  0.00    +0.004 A 
ENDBRANCH   2  11
BRANCH   1  18
ATOM     17  N   UNL     1      -7.063   1.841  -1.746  0.00  0.00    -0.205 N 
ATOM     18  C   UNL     1      -6.224   1.803  -0.692  0.00  0.00    +0.252 C 
ATOM     19  O   UNL     1      -5.641   0.776  -0.418  0.00  0.00    -0.272 OA
ATOM     20  H   UNL     1      -7.529   2.663  -1.966  0.00  0.00    +0.177 HD
BRANCH  17  22
ATOM     21  C   UNL     1      -8.069   0.730  -3.540  0.00  0.00    +0.138 C 
ATOM     22  N   UNL     1      -7.261   0.694  -2.525  0.00  0.00    -0.188 NA
BRANCH  21  26
ATOM     23  C   UNL     1      -8.668  -2.746  -5.901  0.00  0.00    +0.000 A 
ATOM     24  C   UNL     1      -9.335  -1.576  -6.217  0.00  0.00    +0.001 A 
ATOM     25  C   UNL     1      -9.146  -0.443  -5.454  0.00  0.00    +0.009 A 
ATOM     26  C   UNL     1      -8.277  -0.478  -4.360  0.00  0.00    -0.005 A 
ATOM     27  C   UNL     1      -7.603  -1.661  -4.051  0.00  0.00    +0.009 A 
ATOM     28  C   UNL     1      -7.806  -2.789  -4.819  0.00  0.00    +0.001 A 
ENDBRANCH  21  26
ENDBRANCH  17  22
ENDBRANCH   1  18
BRANCH   3  29
ATOM     29  C   UNL     1      -2.550   4.449   0.000  0.00  0.00    +0.169 C 
ATOM     30  O   UNL     1      -2.847   5.624   0.021  0.00  0.00    -0.292 OA
BRANCH  29  31
ATOM     31  C   UNL     1      -1.135   4.048  -0.046  0.00  0.00    +0.018 A 
ATOM     32  C   UNL     1      -0.789   2.693  -0.075  0.00  0.00    +0.011 A 
ATOM     33  C   UNL     1       0.540   2.325  -0.114  0.00  0.00    +0.001 A 
ATOM     34  C   UNL     1       1.529   3.293  -0.134  0.00  0.00    +0.000 A 
ATOM     35  C   UNL     1       1.194   4.636  -0.110  0.00  0.00    +0.001 A 
ATOM     36  C   UNL     1      -0.130   5.020  -0.067  0.00  0.00    +0.011 A 
ENDBRANCH  29  31
ENDBRANCH   3  29
TORSDOF 6
