REMARK  Name = ZINC09762859
REMARK  6 active torsions:
REMARK  status: ('A' for Active; 'I' for Inactive)
REMARK    1  A    between atoms: C_3  and  N_10
REMARK    2  A    between atoms: C_5  and  N_7
REMARK    3  A    between atoms: C_11  and  C_13
REMARK    4  A    between atoms: C_18  and  O_32
REMARK    5  A    between atoms: N_23  and  N_24
REMARK    6  A    between atoms: N_24  and  C_25
REMARK                            x       y       z     vdW  Elec       q    Type
REMARK                         _______ _______ _______ _____ _____    ______ ____
ROOT
ATOM      1  C   UNL     1       2.296   5.645   0.223  0.00  0.00    +0.099 A 
ATOM      2  C   UNL     1       3.503   6.369   0.215  0.00  0.00    +0.030 A 
ATOM      3  C   UNL     1       3.437   7.763   0.330  0.00  0.00    +0.018 A 
ATOM      4  C   UNL     1       4.598   8.561   0.331  0.00  0.00    +0.015 A 
ATOM      5  C   UNL     1       4.484   9.910   0.445  0.00  0.00    +0.046 A 
ATOM      6  C   UNL     1       3.232  10.525   0.562  0.00  0.00    +0.120 A 
ATOM      7  C   UNL     1       2.062   9.784   0.566  0.00  0.00    +0.092 A 
ATOM      8  C   UNL     1       2.125   8.403   0.452  0.00  0.00    +0.141 A 
ATOM      9  O   UNL     1       1.012   7.650   0.452  0.00  0.00    -0.437 OA
ATOM     10  C   UNL     1       1.077   6.317   0.337  0.00  0.00    +0.224 A 
ATOM     11  N   UNL     1      -0.075   5.599   0.337  0.00  0.00    -0.276 N 
ATOM     12  H   UNL     1      -0.039   4.503   0.247  0.00  0.00    +0.187 HD
ENDROOT
BRANCH   1  14
ATOM     13  N   UNL     1       1.307   3.528  -0.513  0.00  0.00    -0.281 N 
ATOM     14  C   UNL     1       2.319   4.170   0.104  0.00  0.00    +0.253 C 
ATOM     15  O   UNL     1       3.250   3.537   0.562  0.00  0.00    -0.270 OA
ATOM     16  H   UNL     1       0.501   4.104  -0.993  0.00  0.00    +0.155 HD
BRANCH  13  19
ATOM     17  C   UNL     1       0.045   0.075  -0.518  0.00  0.00    +0.004 A 
ATOM     18  C   UNL     1       0.068   1.456  -0.488  0.00  0.00    +0.023 A 
ATOM     19  C   UNL     1       1.281   2.131  -0.544  0.00  0.00    +0.036 A 
ATOM     20  C   UNL     1       2.468   1.414  -0.629  0.00  0.00    +0.056 A 
ATOM     21  C   UNL     1       2.438   0.034  -0.658  0.00  0.00    +0.128 A 
ATOM     22  C   UNL     1       1.229  -0.635  -0.603  0.00  0.00    +0.033 A 
BRANCH  21  23
ATOM     23  N   UNL     1       3.702  -0.731  -0.749  0.00  0.00    +0.056 N 
ATOM     24  O   UNL     1       4.854  -0.095  -0.801  0.00  0.00    -0.126 OA
ATOM     25  O   UNL     1       3.675  -2.047  -0.777  0.00  0.00    -0.126 OA
ENDBRANCH  21  23
ENDBRANCH  13  19
ENDBRANCH   1  14
BRANCH  11  26
ATOM     26  N   UNL     1      -1.211   6.201   0.441  0.00  0.00    -0.258 N 
ATOM     27  H   UNL     1      -1.246   7.297   0.530  0.00  0.00    +0.172 HD
BRANCH  26  28
ATOM     28  C   UNL     1      -2.380   5.471   0.441  0.00  0.00    +0.046 A 
ATOM     29  C   UNL     1      -2.338   4.080   0.322  0.00  0.00    +0.026 A 
ATOM     30  C   UNL     1      -3.510   3.355   0.329  0.00  0.00    +0.022 A 
ATOM     31  C   UNL     1      -4.730   4.005   0.441  0.00  0.00    +0.041 A 
ATOM     32  C   UNL     1      -4.778   5.387   0.553  0.00  0.00    +0.022 A 
ATOM     33  C   UNL     1      -3.612   6.121   0.553  0.00  0.00    +0.026 A 
ATOM     34 CL   UNL     1      -6.203   3.086   0.441  0.00  0.00    -0.084 Cl
ENDBRANCH  26  28
ENDBRANCH  11  26
BRANCH   6  35
ATOM     35  O   UNL     1       3.163  11.874   0.674  0.00  0.00    -0.507 OA
ATOM     36  H   UNL     1       2.185  12.369   0.766  0.00  0.00    +0.292 HD
ENDBRANCH   6  35
TORSDOF 6
