REMARK  Name = ZINC22107928
REMARK  13 active torsions:
REMARK  status: ('A' for Active; 'I' for Inactive)
REMARK    1  A    between atoms: C_1  and  C_2
REMARK    2  A    between atoms: C_2  and  O_3
REMARK    3  A    between atoms: O_3  and  C_4
REMARK    4  A    between atoms: C_6  and  C_20
REMARK    5  A    between atoms: C_9  and  O_10
REMARK    6  A    between atoms: O_10  and  C_11
REMARK    7  A    between atoms: C_11  and  C_12
REMARK    8  A    between atoms: C_20  and  N_21
REMARK    9  A    between atoms: N_21  and  C_22
REMARK   10  A    between atoms: C_22  and  C_23
REMARK   11  A    between atoms: C_23  and  S_24
REMARK   12  A    between atoms: S_24  and  C_25
REMARK   13  A    between atoms: N_29  and  C_30
REMARK                            x       y       z     vdW  Elec       q    Type
REMARK                         _______ _______ _______ _____ _____    ______ ____
ROOT
ATOM      1  C   UNL     1       1.218  -0.680  -0.013  0.00  0.00    +0.164 A 
ATOM      2  C   UNL     1       2.405   0.035  -0.021  0.00  0.00    +0.051 A 
ATOM      3  C   UNL     1       2.380   1.417  -0.013  0.00  0.00    -0.059 A 
ATOM      4  C   UNL     1       1.172   2.090   0.002  0.00  0.00    +0.025 A 
ATOM      5  C   UNL     1      -0.017   1.382   0.010  0.00  0.00    +0.086 A 
ATOM      6  C   UNL     1       0.002  -0.004   0.002  0.00  0.00    +0.181 A 
ATOM      7 CL   UNL     1      -1.532   2.230   0.021  0.00  0.00    -0.080 Cl
ENDROOT
BRANCH   1   8
ATOM      8  O   UNL     1       1.242  -2.040  -0.020  0.00  0.00    -0.489 OA
BRANCH   8  10
ATOM      9  C   UNL     1       2.352  -4.186  -0.042  0.00  0.00    +0.048 C 
ATOM     10  C   UNL     1       2.526  -2.666  -0.036  0.00  0.00    +0.226 C 
ENDBRANCH   8  10
ENDBRANCH   1   8
BRANCH   6  11
ATOM     11  O   UNL     1      -1.166  -0.702   0.010  0.00  0.00    -0.482 OA
BRANCH  11  12
ATOM     12  C   UNL     1      -1.735  -1.028  -1.260  0.00  0.00    +0.267 C 
BRANCH  12  13
ATOM     13  C   UNL     1      -3.016  -1.795  -1.054  0.00  0.00    +0.025 A 
ATOM     14  C   UNL     1      -3.454  -2.078   0.227  0.00  0.00    +0.010 A 
ATOM     15  C   UNL     1      -4.631  -2.776   0.416  0.00  0.00    +0.001 A 
ATOM     16  C   UNL     1      -5.366  -3.203  -0.675  0.00  0.00    +0.003 A 
ATOM     17  C   UNL     1      -4.927  -2.927  -1.955  0.00  0.00    +0.039 A 
ATOM     18  C   UNL     1      -3.751  -2.222  -2.146  0.00  0.00    +0.130 A 
ATOM     19  F   UNL     1      -3.320  -1.951  -3.398  0.00  0.00    -0.205 F 
ENDBRANCH  12  13
ENDBRANCH  11  12
ENDBRANCH   6  11
BRANCH   3  20
ATOM     20  C   UNL     1       3.672   2.193  -0.021  0.00  0.00    -0.047 C 
BRANCH  20  21
ATOM     21  N   UNL     1       4.079   2.452  -1.409  0.00  0.00    +0.382 N 
ATOM     22  H   UNL     1       4.221   1.496  -1.934  0.00  0.00    -0.085 HD
ATOM     23  H   UNL     1       3.297   3.036  -1.917  0.00  0.00    -0.085 HD
BRANCH  21  24
ATOM     24  C   UNL     1       5.337   3.208  -1.456  0.00  0.00    -0.071 C 
BRANCH  24  25
ATOM     25  C   UNL     1       5.728   3.458  -2.914  0.00  0.00    +0.058 C 
BRANCH  25  26
ATOM     26  S   UNL     1       7.279   4.390  -2.972  0.00  0.00    -0.086 S 
BRANCH  26  27
ATOM     27  C   UNL     1       7.484   4.533  -4.716  0.00  0.00    +0.214 A 
ATOM     28  N   UNL     1       6.677   4.059  -5.641  0.00  0.00    -0.101 NA
ATOM     29  N   UNL     1       7.121   4.339  -6.812  0.00  0.00    -0.022 NA
ATOM     30  N   UNL     1       8.225   5.000  -6.729  0.00  0.00    -0.038 NA
ATOM     31  N   UNL     1       8.503   5.157  -5.360  0.00  0.00    -0.187 N 
BRANCH  31  32
ATOM     32  C   UNL     1       9.598   5.816  -4.783  0.00  0.00    +0.070 A 
ATOM     33  C   UNL     1       9.441   6.520  -3.597  0.00  0.00    +0.028 A 
ATOM     34  C   UNL     1      10.523   7.163  -3.029  0.00  0.00    +0.002 A 
ATOM     35  C   UNL     1      11.759   7.116  -3.646  0.00  0.00    +0.000 A 
ATOM     36  C   UNL     1      11.918   6.420  -4.830  0.00  0.00    +0.002 A 
ATOM     37  C   UNL     1      10.841   5.770  -5.401  0.00  0.00    +0.028 A 
ENDBRANCH  31  32
ENDBRANCH  26  27
ENDBRANCH  25  26
ENDBRANCH  24  25
ENDBRANCH  21  24
ENDBRANCH  20  21
ENDBRANCH   3  20
TORSDOF 12
