REMARK  Name = ZINC38596010
REMARK  8 active torsions:
REMARK  status: ('A' for Active; 'I' for Inactive)
REMARK    1  A    between atoms: C_1  and  C_2
REMARK    2  A    between atoms: C_2  and  C_4
REMARK    3  A    between atoms: C_2  and  N_24
REMARK    4  A    between atoms: C_4  and  C_6
REMARK    5  A    between atoms: C_4  and  N_11
REMARK    6  A    between atoms: N_14  and  C_17
REMARK    7  A    between atoms: C_17  and  C_18
REMARK    8  A    between atoms: C_25  and  C_27
REMARK                            x       y       z     vdW  Elec       q    Type
REMARK                         _______ _______ _______ _____ _____    ______ ____
ROOT
ATOM      1  C   UNL     1      -0.370   1.724  -0.023  0.00  0.00    +0.030 C 
ATOM      2  C   UNL     1      -0.114   0.217  -0.093  0.00  0.00    +0.092 C 
ENDROOT
BRANCH   2   3
ATOM      3  N   UNL     1       0.854  -0.162   0.939  0.00  0.00    -0.310 N 
ATOM      4  C   UNL     1       2.175  -0.057   0.695  0.00  0.00    +0.225 C 
ATOM      5  O   UNL     1       2.563   0.351  -0.379  0.00  0.00    -0.275 OA
ATOM      6  H   UNL     1       0.544  -0.489   1.798  0.00  0.00    +0.149 HD
BRANCH   4   7
ATOM      7  C   UNL     1       3.171  -0.448   1.757  0.00  0.00    +0.142 C 
ATOM      8  C   UNL     1       2.939   0.387   2.987  0.00  0.00    +0.011 A 
ATOM      9  C   UNL     1       1.892   0.071   3.834  0.00  0.00    +0.008 A 
ATOM     10  C   UNL     1       1.663   0.826   4.968  0.00  0.00    +0.001 A 
ATOM     11  C   UNL     1       2.482   1.900   5.262  0.00  0.00    +0.004 A 
ATOM     12  C   UNL     1       3.529   2.220   4.421  0.00  0.00    +0.046 A 
ATOM     13  C   UNL     1       3.762   1.463   3.278  0.00  0.00    +0.133 A 
ATOM     14  O   UNL     1       4.794   1.792   2.466  0.00  0.00    -0.455 OA
ATOM     15  C   UNL     1       5.306   0.872   1.613  0.00  0.00    +0.133 A 
ATOM     16  C   UNL     1       4.566  -0.236   1.232  0.00  0.00    +0.011 A 
ATOM     17  C   UNL     1       5.110  -1.162   0.360  0.00  0.00    +0.008 A 
ATOM     18  C   UNL     1       6.389  -0.986  -0.132  0.00  0.00    +0.001 A 
ATOM     19  C   UNL     1       7.130   0.118   0.246  0.00  0.00    +0.004 A 
ATOM     20  C   UNL     1       6.592   1.046   1.116  0.00  0.00    +0.046 A 
ENDBRANCH   4   7
ENDBRANCH   2   3
BRANCH   2  21
ATOM     21  C   UNL     1      -1.427  -0.534   0.139  0.00  0.00    +0.113 C 
BRANCH  21  22
ATOM     22  N   UNL     1      -2.432  -0.073  -0.829  0.00  0.00    -0.297 NA
ATOM     23  C   UNL     1      -3.731  -0.716  -0.585  0.00  0.00    +0.066 C 
ATOM     24  C   UNL     1      -4.762  -0.166  -1.573  0.00  0.00    -0.063 C 
ATOM     25  N   UNL     1      -4.315  -0.432  -2.946  0.00  0.00    +0.384 N 
ATOM     26  C   UNL     1      -3.028   0.236  -3.183  0.00  0.00    -0.063 C 
ATOM     27  C   UNL     1      -1.983  -0.311  -2.208  0.00  0.00    +0.066 C 
ATOM     28  H   UNL     1      -4.207  -1.427  -3.077  0.00  0.00    -0.081 HD
BRANCH  25  29
ATOM     29  C   UNL     1      -5.314   0.080  -3.894  0.00  0.00    -0.043 C 
BRANCH  29  30
ATOM     30  C   UNL     1      -4.917  -0.301  -5.297  0.00  0.00    -0.064 A 
ATOM     31  C   UNL     1      -4.111   0.541  -6.040  0.00  0.00    +0.002 A 
ATOM     32  C   UNL     1      -3.746   0.191  -7.327  0.00  0.00    +0.000 A 
ATOM     33  C   UNL     1      -4.188  -1.001  -7.870  0.00  0.00    +0.000 A 
ATOM     34  C   UNL     1      -4.993  -1.843  -7.127  0.00  0.00    +0.000 A 
ATOM     35  C   UNL     1      -5.354  -1.496  -5.839  0.00  0.00    +0.002 A 
ENDBRANCH  29  30
ENDBRANCH  25  29
ENDBRANCH  21  22
BRANCH  21  36
ATOM     36  C   UNL     1      -1.918  -0.269   1.538  0.00  0.00    +0.009 A 
ATOM     37  C   UNL     1      -1.819  -1.051   2.640  0.00  0.00    +0.013 A 
ATOM     38  C   UNL     1      -2.348  -0.598   3.834  0.00  0.00    +0.008 A 
ATOM     39  C   UNL     1      -2.950   0.617   3.867  0.00  0.00    +0.045 A 
ATOM     40  S   UNL     1      -2.773   1.162   2.177  0.00  0.00    -0.100 S 
ENDBRANCH  21  36
ENDBRANCH   2  21
TORSDOF 7
