REMARK  Name = ZINC66161847
REMARK  3 active torsions:
REMARK  status: ('A' for Active; 'I' for Inactive)
REMARK    1  A    between atoms: C_6  and  N_7
REMARK    2  A    between atoms: C_13  and  N_16
REMARK    3  A    between atoms: C_24  and  C_26
REMARK                            x       y       z     vdW  Elec       q    Type
REMARK                         _______ _______ _______ _____ _____    ______ ____
ROOT
ATOM      1  C   UNL     1       0.100   1.285   0.743  0.00  0.00    +0.025 A 
ATOM      2  C   UNL     1       1.253   2.040   0.754  0.00  0.00    +0.025 A 
ATOM      3  C   UNL     1       2.353   1.658  -0.017  0.00  0.00    +0.040 A 
ATOM      4  C   UNL     1       2.270   0.512  -0.792  0.00  0.00    -0.023 A 
ATOM      5  C   UNL     1       1.115  -0.245  -0.803  0.00  0.00    +0.028 A 
ATOM      6  C   UNL     1       0.024   0.138  -0.035  0.00  0.00    +0.035 A 
ATOM      7  C   UNL     1       3.583   0.327  -1.519  0.00  0.00    +0.056 C 
ATOM      8  C   UNL     1       4.447   1.516  -1.069  0.00  0.00    +0.119 C 
ATOM      9  N   UNL     1       3.602   2.277  -0.145  0.00  0.00    -0.267 N 
ATOM     10  C   UNL     1       3.973   3.408   0.488  0.00  0.00    +0.254 C 
ATOM     11  O   UNL     1       3.232   3.918   1.306  0.00  0.00    -0.270 OA
ENDROOT
BRANCH   6  12
ATOM     12  N   UNL     1      -1.149  -0.629  -0.046  0.00  0.00    -0.269 N 
ATOM     13  C   UNL     1      -2.348  -0.029   0.091  0.00  0.00    +0.306 C 
ATOM     14  O   UNL     1      -2.420   1.185   0.129  0.00  0.00    -0.252 OA
ATOM     15  N   UNL     1      -3.467  -0.773   0.185  0.00  0.00    -0.287 N 
ATOM     16  C   UNL     1      -3.523  -2.242   0.161  0.00  0.00    +0.108 C 
ATOM     17  C   UNL     1      -5.009  -2.646   0.272  0.00  0.00    +0.005 C 
ATOM     18  C   UNL     1      -5.752  -1.374  -0.216  0.00  0.00    -0.049 C 
ATOM     19  C   UNL     1      -4.837  -0.250   0.338  0.00  0.00    +0.094 C 
ATOM     20  H   UNL     1      -1.097  -1.591  -0.152  0.00  0.00    +0.156 HD
BRANCH  18  21
ATOM     21  N   UNL     1      -7.096  -1.292   0.370  0.00  0.00    +0.383 N 
ATOM     22  C   UNL     1      -7.822  -0.117  -0.175  0.00  0.00    -0.078 C 
ATOM     23  C   UNL     1      -9.310  -0.477   0.064  0.00  0.00    -0.020 C 
ATOM     24  C   UNL     1      -9.346  -1.998  -0.209  0.00  0.00    -0.020 C 
ATOM     25  C   UNL     1      -7.895  -2.475  -0.018  0.00  0.00    -0.078 C 
ATOM     26  H   UNL     1      -7.035  -1.229   1.375  0.00  0.00    -0.081 HD
ENDBRANCH  18  21
ENDBRANCH   6  12
BRANCH  10  27
ATOM     27  C   UNL     1       5.277   4.026   0.188  0.00  0.00    +0.075 A 
ATOM     28  C   UNL     1       5.790   5.308   0.694  0.00  0.00    +0.054 A 
ATOM     29  C   UNL     1       7.009   5.455   0.155  0.00  0.00    +0.195 A 
ATOM     30  O   UNL     1       7.279   4.394  -0.621  0.00  0.00    -0.470 OA
ATOM     31  C   UNL     1       6.262   3.527  -0.613  0.00  0.00    +0.207 A 
ENDBRANCH  10  27
TORSDOF 3
