REMARK  Name = ZINC06172616
REMARK  7 active torsions:
REMARK  status: ('A' for Active; 'I' for Inactive)
REMARK    1  A    between atoms: C_1  and  C_2
REMARK    2  A    between atoms: C_5  and  S_8
REMARK    3  A    between atoms: S_8  and  N_11
REMARK    4  A    between atoms: C_18  and  N_62
REMARK    5  A    between atoms: C_21  and  C_22
REMARK    6  A    between atoms: C_22  and  O_23
REMARK    7  A    between atoms: O_23  and  C_24
REMARK                            x       y       z     vdW  Elec       q    Type
REMARK                         _______ _______ _______ _____ _____    ______ ____
ROOT
ATOM      1  N   UNL     1      -0.974   1.939   0.284  0.00  0.00    -0.177 N 
ATOM      2  C   UNL     1      -0.474   3.235   0.161  0.00  0.00    +0.058 A 
ATOM      3  C   UNL     1      -1.001   4.452   0.591  0.00  0.00    +0.025 A 
ATOM      4  C   UNL     1      -0.317   5.626   0.352  0.00  0.00    +0.002 A 
ATOM      5  C   UNL     1       0.894   5.606  -0.314  0.00  0.00    +0.000 A 
ATOM      6  C   UNL     1       1.423   4.402  -0.744  0.00  0.00    +0.004 A 
ATOM      7  C   UNL     1       0.747   3.227  -0.507  0.00  0.00    -0.032 A 
ATOM      8  C   UNL     1       1.054   1.787  -0.845  0.00  0.00    +0.012 C 
ATOM      9  C   UNL     1      -0.121   1.009  -0.291  0.00  0.00    +0.024 C 
ATOM     10  C   UNL     1      -0.298  -0.298  -0.345  0.00  0.00    +0.033 C 
ENDROOT
BRANCH   8  16
ATOM     11  C   UNL     1       2.241   1.580   1.257  0.00  0.00    -0.049 C 
ATOM     12  C   UNL     1       3.534   1.071   1.898  0.00  0.00    +0.141 C 
ATOM     13  O   UNL     1       4.651   1.732   1.298  0.00  0.00    -0.383 OA
ATOM     14  C   UNL     1       4.742   1.540  -0.116  0.00  0.00    +0.141 C 
ATOM     15  C   UNL     1       3.461   2.055  -0.779  0.00  0.00    -0.049 C 
ATOM     16  N   UNL     1       2.306   1.336  -0.199  0.00  0.00    +0.391 N 
ATOM     17  H   UNL     1       2.423   0.329  -0.364  0.00  0.00    -0.080 HD
ENDBRANCH   8  16
BRANCH   1  18
ATOM     18  S   UNL     1      -2.405   1.559   1.025  0.00  0.00    +0.079 S 
ATOM     19  O   UNL     1      -2.099   0.608   2.035  0.00  0.00    -0.149 OA
ATOM     20  O   UNL     1      -3.055   2.790   1.310  0.00  0.00    -0.149 OA
BRANCH  18  25
ATOM     21  C   UNL     1      -5.822  -1.291  -3.050  0.00  0.00    +0.044 C 
ATOM     22  C   UNL     1      -4.968  -0.580  -2.033  0.00  0.00    -0.050 A 
ATOM     23  C   UNL     1      -4.978  -0.992  -0.713  0.00  0.00    +0.005 A 
ATOM     24  C   UNL     1      -4.195  -0.339   0.221  0.00  0.00    +0.029 A 
ATOM     25  C   UNL     1      -3.403   0.726  -0.165  0.00  0.00    +0.109 A 
ATOM     26  C   UNL     1      -3.397   1.142  -1.484  0.00  0.00    +0.029 A 
ATOM     27  C   UNL     1      -4.176   0.486  -2.418  0.00  0.00    +0.005 A 
ENDBRANCH  18  25
ENDBRANCH   1  18
BRANCH  10  28
ATOM     28  C   UNL     1      -1.068  -0.999   0.745  0.00  0.00    +0.258 C 
BRANCH  28  29
ATOM     29  O   UNL     1      -0.321  -0.951   1.962  0.00  0.00    -0.486 OA
BRANCH  29  30
ATOM     30  C   UNL     1      -0.819  -1.644   3.020  0.00  0.00    +0.139 A 
ATOM     31  C   UNL     1      -2.003  -2.356   2.889  0.00  0.00    +0.048 A 
ATOM     32  C   UNL     1      -2.508  -3.059   3.965  0.00  0.00    +0.023 A 
ATOM     33  C   UNL     1      -1.835  -3.056   5.173  0.00  0.00    +0.043 A 
ATOM     34  C   UNL     1      -0.654  -2.347   5.307  0.00  0.00    +0.043 A 
ATOM     35  C   UNL     1      -0.142  -1.646   4.231  0.00  0.00    +0.084 A 
ATOM     36 CL   UNL     1       1.344  -0.764   4.397  0.00  0.00    -0.080 Cl
ATOM     37 CL   UNL     1      -2.472  -3.941   6.524  0.00  0.00    -0.083 Cl
ENDBRANCH  29  30
ENDBRANCH  28  29
ENDBRANCH  10  28
TORSDOF 6
