REMARK  Name = ZINC02124493
REMARK  10 active torsions:
REMARK  status: ('A' for Active; 'I' for Inactive)
REMARK    1  A    between atoms: C_1  and  C_2
REMARK    2  A    between atoms: C_3  and  C_26
REMARK    3  A    between atoms: C_16  and  C_18
REMARK    4  A    between atoms: C_16  and  C_22
REMARK    5  A    between atoms: C_16  and  N_64
REMARK    6  A    between atoms: C_18  and  C_19
REMARK    7  A    between atoms: C_19  and  C_20
REMARK    8  A    between atoms: C_19  and  C_21
REMARK    9  A    between atoms: C_22  and  O_24
REMARK   10  A    between atoms: O_24  and  C_25
REMARK                            x       y       z     vdW  Elec       q    Type
REMARK                         _______ _______ _______ _____ _____    ______ ____
ROOT
ATOM      1  C   UNL     1      -3.964   0.252   1.734  0.00  0.00    +0.087 C 
ATOM      2  C   UNL     1      -4.471  -0.453   0.501  0.00  0.00    +0.114 A 
ATOM      3  C   UNL     1      -3.757  -0.349  -0.649  0.00  0.00    +0.067 A 
ATOM      4  C   UNL     1      -4.255  -1.032  -1.855  0.00  0.00    +0.200 A 
ATOM      5  O   UNL     1      -3.660  -0.970  -2.917  0.00  0.00    -0.286 OA
ATOM      6  C   UNL     1      -5.506  -1.799  -1.714  0.00  0.00    +0.065 A 
ATOM      7  C   UNL     1      -6.061  -2.487  -2.794  0.00  0.00    +0.019 A 
ATOM      8  C   UNL     1      -7.223  -3.183  -2.628  0.00  0.00    +0.046 A 
ATOM      9  C   UNL     1      -7.861  -3.212  -1.387  0.00  0.00    +0.123 A 
ATOM     10  C   UNL     1      -7.321  -2.536  -0.307  0.00  0.00    +0.021 A 
ATOM     11  C   UNL     1      -6.139  -1.820  -0.459  0.00  0.00    +0.144 A 
ATOM     12  O   UNL     1      -5.604  -1.155   0.584  0.00  0.00    -0.459 OA
ATOM     13  C   UNL     1      -7.997  -2.566   1.040  0.00  0.00    -0.030 C 
ATOM     14  C   UNL     1      -9.446  -4.230   0.067  0.00  0.00    +0.158 C 
ATOM     15  O   UNL     1      -9.018  -3.912  -1.259  0.00  0.00    -0.509 OA
ATOM     16  N   UNL     1      -9.399  -2.990   0.869  0.00  0.00    +0.414 N 
ATOM     17  H   UNL     1      -9.916  -2.252   0.376  0.00  0.00    -0.075 HD
ENDROOT
BRANCH   3  18
ATOM     18  C   UNL     1      -2.503   0.442  -0.692  0.00  0.00    -0.007 A 
ATOM     19  C   UNL     1      -2.539   1.821  -0.492  0.00  0.00    +0.012 A 
ATOM     20  C   UNL     1      -1.373   2.556  -0.538  0.00  0.00    +0.050 A 
ATOM     21  C   UNL     1      -0.159   1.925  -0.774  0.00  0.00    +0.162 A 
ATOM     22  C   UNL     1      -0.116   0.549  -0.971  0.00  0.00    +0.163 A 
ATOM     23  C   UNL     1      -1.286  -0.192  -0.932  0.00  0.00    +0.058 A 
ATOM     24  O   UNL     1       1.066  -0.085  -1.204  0.00  0.00    -0.485 OA
ATOM     25  C   UNL     1       2.168   0.735  -1.609  0.00  0.00    +0.270 C 
ATOM     26  C   UNL     1       2.218   1.961  -0.686  0.00  0.00    +0.270 C 
ATOM     27  O   UNL     1       0.981   2.670  -0.815  0.00  0.00    -0.485 OA
ENDBRANCH   3  18
BRANCH  16  28
ATOM     28  C   UNL     1     -10.026  -3.216   2.191  0.00  0.00    +0.048 C 
BRANCH  28  29
ATOM     29  C   UNL     1      -9.317  -4.328   2.921  0.00  0.00    +0.293 C 
ATOM     30  O   UNL     1      -8.294  -4.789   2.473  0.00  0.00    -0.253 OA
BRANCH  29  31
ATOM     31  O   UNL     1      -9.822  -4.806   4.070  0.00  0.00    -0.469 OA
ATOM     32  C   UNL     1      -9.086  -5.876   4.718  0.00  0.00    +0.280 C 
ENDBRANCH  29  31
ENDBRANCH  28  29
BRANCH  28  33
ATOM     33  C   UNL     1      -9.938  -1.929   3.014  0.00  0.00    -0.001 C 
BRANCH  33  34
ATOM     34  C   UNL     1     -10.805  -0.849   2.364  0.00  0.00    -0.018 C 
ATOM     35  C   UNL     1     -10.856   0.380   3.274  0.00  0.00    +0.007 C 
ATOM     36  C   UNL     1     -10.205  -0.458   1.012  0.00  0.00    +0.007 C 
ENDBRANCH  33  34
ENDBRANCH  28  33
ENDBRANCH  16  28
TORSDOF 6
