REMARK  Name = ZINC41021066
REMARK  10 active torsions:
REMARK  status: ('A' for Active; 'I' for Inactive)
REMARK    1  A    between atoms: C_1  and  C_2
REMARK    2  A    between atoms: C_5  and  C_8
REMARK    3  A    between atoms: C_11  and  C_13
REMARK    4  A    between atoms: C_13  and  C_14
REMARK    5  A    between atoms: C_14  and  C_15
REMARK    6  A    between atoms: N_17  and  C_18
REMARK    7  A    between atoms: C_18  and  C_19
REMARK    8  A    between atoms: C_19  and  C_21
REMARK    9  A    between atoms: C_19  and  N_28
REMARK   10  A    between atoms: C_24  and  C_27
REMARK                            x       y       z     vdW  Elec       q    Type
REMARK                         _______ _______ _______ _____ _____    ______ ____
ROOT
ATOM      1  C   UNL     1       0.764 -10.299   5.174  0.00  0.00    +0.213 C 
ATOM      2  O   UNL     1       0.201 -10.057   4.127  0.00  0.00    -0.276 OA
ATOM      3  N   UNL     1       2.052 -10.697   5.169  0.00  0.00    -0.317 N 
ATOM      4  H   UNL     1       2.503 -10.890   6.006  0.00  0.00    +0.149 HD
ENDROOT
BRANCH   1   5
ATOM      5  C   UNL     1       0.025 -10.153   6.479  0.00  0.00    +0.105 C 
BRANCH   5   6
ATOM      6  C   UNL     1      -1.408  -9.692   6.205  0.00  0.00    +0.105 C 
BRANCH   6  10
ATOM      7  C   UNL     1      -3.360  -9.995   9.256  0.00  0.00    +0.155 A 
ATOM      8  C   UNL     1      -2.949  -8.703   9.320  0.00  0.00    +0.161 A 
ATOM      9  N   UNL     1      -2.205  -8.462   8.230  0.00  0.00    -0.221 NA
ATOM     10  C   UNL     1      -2.147  -9.547   7.510  0.00  0.00    +0.197 A 
ATOM     11  O   UNL     1      -2.846 -10.514   8.120  0.00  0.00    -0.440 OA
BRANCH   7  16
ATOM     12  C   UNL     1      -6.644 -12.742  13.101  0.00  0.00    +0.044 C 
ATOM     13  C   UNL     1      -5.784 -12.023  12.095  0.00  0.00    -0.050 A 
ATOM     14  C   UNL     1      -5.451 -10.695  12.297  0.00  0.00    +0.004 A 
ATOM     15  C   UNL     1      -4.664 -10.031  11.379  0.00  0.00    +0.012 A 
ATOM     16  C   UNL     1      -4.203 -10.701  10.244  0.00  0.00    +0.019 A 
ATOM     17  C   UNL     1      -4.543 -12.040  10.047  0.00  0.00    +0.012 A 
ATOM     18  C   UNL     1      -5.326 -12.694  10.975  0.00  0.00    +0.004 A 
ENDBRANCH   7  16
ENDBRANCH   6  10
ENDBRANCH   5   6
ENDBRANCH   1   5
BRANCH   3  19
ATOM     19  C   UNL     1       2.771 -10.838   3.900  0.00  0.00    +0.093 C 
BRANCH  19  20
ATOM     20  C   UNL     1       4.234 -11.188   4.179  0.00  0.00    -0.020 C 
BRANCH  20  21
ATOM     21  C   UNL     1       4.309 -12.532   4.856  0.00  0.00    -0.059 A 
ATOM     22  C   UNL     1       4.217 -13.690   4.106  0.00  0.00    +0.002 A 
ATOM     23  C   UNL     1       4.285 -14.923   4.728  0.00  0.00    +0.003 A 
ATOM     24  C   UNL     1       4.447 -14.998   6.098  0.00  0.00    -0.050 A 
ATOM     25  C   UNL     1       4.540 -13.840   6.848  0.00  0.00    +0.003 A 
ATOM     26  C   UNL     1       4.476 -12.607   6.226  0.00  0.00    +0.002 A 
ATOM     27  C   UNL     1       4.521 -16.342   6.776  0.00  0.00    +0.044 C 
ENDBRANCH  20  21
BRANCH  20  28
ATOM     28  N   UNL     1       4.976 -11.236   2.912  0.00  0.00    +0.385 N 
ATOM     29  C   UNL     1       6.366 -11.626   3.175  0.00  0.00    -0.078 C 
ATOM     30  C   UNL     1       7.123 -11.756   1.852  0.00  0.00    -0.019 C 
ATOM     31  C   UNL     1       7.098 -10.410   1.122  0.00  0.00    -0.004 C 
ATOM     32  C   UNL     1       5.644  -9.977   0.918  0.00  0.00    -0.019 C 
ATOM     33  C   UNL     1       4.942  -9.913   2.277  0.00  0.00    -0.078 C 
ATOM     34  H   UNL     1       4.549 -11.913   2.299  0.00  0.00    -0.081 HD
ENDBRANCH  20  28
ENDBRANCH  19  20
ENDBRANCH   3  19
TORSDOF 8
