REMARK  Name = ZINC39210358
REMARK  9 active torsions:
REMARK  status: ('A' for Active; 'I' for Inactive)
REMARK    1  A    between atoms: C_1  and  C_2
REMARK    2  A    between atoms: C_4  and  C_32
REMARK    3  A    between atoms: N_5  and  C_7
REMARK    4  A    between atoms: C_10  and  C_13
REMARK    5  A    between atoms: C_13  and  O_15
REMARK    6  A    between atoms: O_15  and  C_16
REMARK    7  A    between atoms: C_16  and  C_17
REMARK    8  A    between atoms: C_19  and  O_20
REMARK    9  A    between atoms: C_29  and  C_31
REMARK                            x       y       z     vdW  Elec       q    Type
REMARK                         _______ _______ _______ _____ _____    ______ ____
ROOT
ATOM      1  C   UNL     1       0.797  -7.258   5.964  0.00  0.00    +0.269 C 
ENDROOT
BRANCH   1   2
ATOM      2  C   UNL     1       1.066  -7.293   7.446  0.00  0.00    +0.007 A 
ATOM      3  C   UNL     1       0.202  -6.684   8.335  0.00  0.00    +0.095 A 
ATOM      4  C   UNL     1       0.465  -6.728   9.696  0.00  0.00    +0.285 A 
ATOM      5  O   UNL     1       1.547  -7.351  10.176  0.00  0.00    -0.425 OA
ATOM      6  C   UNL     1       2.424  -7.962   9.353  0.00  0.00    +0.141 A 
ATOM      7  C   UNL     1       2.202  -7.954   7.957  0.00  0.00    +0.024 A 
ATOM      8  C   UNL     1       3.111  -8.594   7.096  0.00  0.00    +0.014 A 
ATOM      9  C   UNL     1       4.201  -9.225   7.608  0.00  0.00    +0.024 A 
ATOM     10  C   UNL     1       4.426  -9.243   8.996  0.00  0.00    +0.037 A 
ATOM     11  C   UNL     1       3.539  -8.602   9.863  0.00  0.00    +0.070 A 
ATOM     12  N   UNL     1       5.521  -9.879   9.496  0.00  0.00    -0.286 N 
ATOM     13  C   UNL     1       5.584 -10.172  10.780  0.00  0.00    +0.214 C 
ATOM     14  O   UNL     1       4.615  -9.987  11.495  0.00  0.00    -0.276 OA
ATOM     15  C   UNL     1       6.854 -10.736  11.363  0.00  0.00    +0.109 C 
ATOM     16  H   UNL     1       6.255 -10.116   8.908  0.00  0.00    +0.155 HD
BRANCH   4  17
ATOM     17  O   UNL     1      -0.386  -6.130  10.552  0.00  0.00    -0.480 OA
ATOM     18  H   UNL     1      -0.128  -6.207  11.481  0.00  0.00    +0.295 HD
ENDBRANCH   4  17
ENDBRANCH   1   2
BRANCH   1  19
ATOM     19  O   UNL     1       0.856  -5.907   5.501  0.00  0.00    -0.456 OA
BRANCH  19  20
ATOM     20  C   UNL     1       0.536  -5.687   4.211  0.00  0.00    +0.340 C 
ATOM     21  O   UNL     1       0.305  -6.626   3.474  0.00  0.00    -0.245 OA
BRANCH  20  25
ATOM     22  C   UNL     1       0.334  -1.717   2.719  0.00  0.00    +0.066 A 
ATOM     23  C   UNL     1      -0.032  -2.783   1.905  0.00  0.00    +0.028 A 
ATOM     24  C   UNL     1       0.033  -4.072   2.385  0.00  0.00    +0.017 A 
ATOM     25  C   UNL     1       0.466  -4.308   3.692  0.00  0.00    +0.059 A 
ATOM     26  C   UNL     1       0.833  -3.233   4.508  0.00  0.00    +0.017 A 
ATOM     27  C   UNL     1       0.771  -1.948   4.019  0.00  0.00    +0.028 A 
BRANCH  22  32
ATOM     28  C   UNL     1       1.549   2.990   1.752  0.00  0.00    +0.069 C 
ATOM     29  C   UNL     1       0.815   1.675   1.806  0.00  0.00    +0.079 A 
ATOM     30  C   UNL     1      -0.425   1.404   1.216  0.00  0.00    +0.085 A 
ATOM     31  C   UNL     1      -0.745   0.117   1.488  0.00  0.00    +0.060 A 
ATOM     32  N   UNL     1       0.267  -0.409   2.228  0.00  0.00    -0.235 N 
ATOM     33  N   UNL     1       1.232   0.590   2.407  0.00  0.00    -0.170 NA
ATOM     34  C   UNL     1      -1.994  -0.601   1.049  0.00  0.00    +0.067 C 
ATOM     35 CL   UNL     1      -1.386   2.522   0.299  0.00  0.00    -0.080 Cl
ENDBRANCH  22  32
ENDBRANCH  20  25
ENDBRANCH  19  20
ENDBRANCH   1  19
TORSDOF 6
