REMARK  Name = ZINC20849020
REMARK  11 active torsions:
REMARK  status: ('A' for Active; 'I' for Inactive)
REMARK    1  A    between atoms: C_1  and  C_2
REMARK    2  A    between atoms: C_2  and  O_3
REMARK    3  A    between atoms: O_3  and  C_4
REMARK    4  A    between atoms: N_12  and  O_13
REMARK    5  A    between atoms: O_13  and  C_14
REMARK    6  A    between atoms: C_14  and  C_16
REMARK    7  A    between atoms: C_16  and  C_17
REMARK    8  A    between atoms: C_16  and  C_18
REMARK    9  A    between atoms: C_19  and  C_21
REMARK   10  A    between atoms: C_23  and  C_26
REMARK   11  A    between atoms: C_29  and  C_32
REMARK                            x       y       z     vdW  Elec       q    Type
REMARK                         _______ _______ _______ _____ _____    ______ ____
ROOT
ATOM      1  C   UNL     1       2.364   3.970   0.271  0.00  0.00    +0.163 A 
ATOM      2  C   UNL     1       3.568   3.348  -0.014  0.00  0.00    +0.049 A 
ATOM      3  C   UNL     1       3.611   1.990  -0.289  0.00  0.00    +0.004 A 
ATOM      4  C   UNL     1       2.457   1.240  -0.284  0.00  0.00    +0.012 A 
ATOM      5  C   UNL     1       1.231   1.853   0.000  0.00  0.00    +0.022 A 
ATOM      6  C   UNL     1       1.187   3.230   0.282  0.00  0.00    +0.179 A 
ATOM      7  O   UNL     1      -0.001   3.823   0.563  0.00  0.00    -0.432 OA
ATOM      8  C   UNL     1      -1.114   3.251   0.031  0.00  0.00    +0.240 A 
ATOM      9  N   UNL     1      -2.078   3.982  -0.457  0.00  0.00    -0.184 N 
ATOM     10  C   UNL     1      -1.198   1.772   0.017  0.00  0.00    +0.102 A 
ATOM     11  C   UNL     1      -0.013   1.076   0.008  0.00  0.00    +0.030 A 
ATOM     12  H   UNL     1      -2.971   3.501  -0.883  0.00  0.00    +0.211 HD
ENDROOT
BRANCH  10  13
ATOM     13  C   UNL     1      -2.496   1.077   0.018  0.00  0.00    +0.264 A 
ATOM     14  N   UNL     1      -3.692   1.641   0.032  0.00  0.00    -0.187 NA
ATOM     15  C   UNL     1      -4.572   0.620   0.023  0.00  0.00    +0.202 A 
ATOM     16  N   UNL     1      -3.882  -0.492   0.014  0.00  0.00    -0.056 NA
ATOM     17  O   UNL     1      -2.693  -0.251   0.011  0.00  0.00    -0.332 OA
BRANCH  15  18
ATOM     18  C   UNL     1      -6.052   0.735   0.029  0.00  0.00    +0.022 A 
ATOM     19  C   UNL     1      -6.656   1.990   0.044  0.00  0.00    +0.012 A 
ATOM     20  C   UNL     1      -8.032   2.092   0.044  0.00  0.00    +0.004 A 
ATOM     21  C   UNL     1      -8.812   0.950   0.041  0.00  0.00    -0.050 A 
ATOM     22  C   UNL     1      -8.219  -0.299   0.031  0.00  0.00    +0.004 A 
ATOM     23  C   UNL     1      -6.843  -0.412   0.025  0.00  0.00    +0.012 A 
ATOM     24  C   UNL     1     -10.315   1.067   0.047  0.00  0.00    +0.044 C 
ENDBRANCH  15  18
ENDBRANCH  10  13
BRANCH   1  25
ATOM     25  O   UNL     1       2.332   5.303   0.539  0.00  0.00    -0.489 OA
BRANCH  25  27
ATOM     26  C   UNL     1       3.345   7.477   0.834  0.00  0.00    +0.048 C 
ATOM     27  C   UNL     1       3.579   6.000   0.510  0.00  0.00    +0.226 C 
ENDBRANCH  25  27
ENDBRANCH   1  25
BRANCH   9  28
ATOM     28  O   UNL     1      -1.989   5.197  -0.441  0.00  0.00    -0.339 OA
BRANCH  28  29
ATOM     29  C   UNL     1      -3.015   5.889  -0.958  0.00  0.00    +0.336 C 
ATOM     30  O   UNL     1      -3.973   5.303  -1.414  0.00  0.00    -0.248 OA
BRANCH  29  31
ATOM     31  C   UNL     1      -2.976   7.395  -0.972  0.00  0.00    +0.094 C 
ATOM     32  C   UNL     1      -4.258   7.932  -1.612  0.00  0.00    +0.019 C 
ATOM     33  C   UNL     1      -2.864   7.916   0.462  0.00  0.00    +0.019 C 
ENDBRANCH  29  31
ENDBRANCH  28  29
ENDBRANCH   9  28
TORSDOF 7
