REMARK  Name = ZINC14017140
REMARK  5 active torsions:
REMARK  status: ('A' for Active; 'I' for Inactive)
REMARK    1  A    between atoms: C_7  and  N_13
REMARK    2  A    between atoms: C_8  and  C_10
REMARK    3  A    between atoms: C_14  and  C_16
REMARK    4  A    between atoms: N_21  and  S_23
REMARK    5  A    between atoms: S_23  and  C_26
REMARK                            x       y       z     vdW  Elec       q    Type
REMARK                         _______ _______ _______ _____ _____    ______ ____
ROOT
ATOM      1  N   UNL     1      -2.611   0.313   5.642  0.00  0.00    -0.282 N 
ATOM      2  C   UNL     1      -2.514  -0.040   4.345  0.00  0.00    +0.222 C 
ATOM      3  O   UNL     1      -3.424  -0.639   3.810  0.00  0.00    -0.275 OA
ATOM      4  H   UNL     1      -1.854   0.721   6.091  0.00  0.00    +0.155 HD
ENDROOT
BRANCH   1  11
ATOM      5  C   UNL     1      -5.777  -3.047   5.434  0.00  0.00    +0.001 A 
ATOM      6  C   UNL     1      -6.807  -2.836   6.340  0.00  0.00    +0.004 A 
ATOM      7  C   UNL     1      -6.805  -1.730   7.163  0.00  0.00    +0.047 A 
ATOM      8  C   UNL     1      -5.761  -0.814   7.089  0.00  0.00    +0.138 A 
ATOM      9  C   UNL     1      -4.724  -1.031   6.165  0.00  0.00    +0.042 A 
ATOM     10  C   UNL     1      -4.742  -2.160   5.344  0.00  0.00    +0.013 A 
ATOM     11  C   UNL     1      -3.795   0.091   6.337  0.00  0.00    +0.092 A 
ATOM     12  C   UNL     1      -4.335   0.878   7.316  0.00  0.00    +0.211 A 
ATOM     13  O   UNL     1      -5.493   0.330   7.748  0.00  0.00    -0.448 OA
BRANCH  12  14
ATOM     14  C   UNL     1      -3.751   2.121   7.818  0.00  0.00    +0.279 C 
ATOM     15  O   UNL     1      -2.759   2.585   7.287  0.00  0.00    -0.267 OA
ATOM     16  N   UNL     1      -4.310   2.752   8.869  0.00  0.00    -0.323 N 
ATOM     17  H   UNL     1      -5.101   2.382   9.293  0.00  0.00    +0.145 HD
ATOM     18  H   UNL     1      -3.923   3.576   9.202  0.00  0.00    +0.145 HD
ENDBRANCH  12  14
ENDBRANCH   1  11
BRANCH   2  19
ATOM     19  C   UNL     1      -1.277   0.309   3.559  0.00  0.00    +0.091 C 
ATOM     20  C   UNL     1      -0.057  -0.348   4.209  0.00  0.00    +0.015 C 
ATOM     21  C   UNL     1       1.205   0.033   3.431  0.00  0.00    +0.018 C 
ATOM     22  C   UNL     1       1.087  -0.487   1.990  0.00  0.00    +0.109 C 
ATOM     23  N   UNL     1      -0.160   0.029   1.408  0.00  0.00    -0.176 NA
ATOM     24  C   UNL     1      -1.422  -0.203   2.123  0.00  0.00    +0.122 C 
BRANCH  23  25
ATOM     25  S   UNL     1      -0.142   0.850  -0.030  0.00  0.00    +0.061 S 
ATOM     26  O   UNL     1      -1.441   0.715  -0.591  0.00  0.00    -0.153 OA
ATOM     27  O   UNL     1       1.031   0.440  -0.718  0.00  0.00    -0.153 OA
BRANCH  25  28
ATOM     28  C   UNL     1       0.067   2.558   0.348  0.00  0.00    +0.106 A 
ATOM     29  C   UNL     1      -1.040   3.361   0.552  0.00  0.00    +0.030 A 
ATOM     30  C   UNL     1      -0.876   4.700   0.855  0.00  0.00    +0.022 A 
ATOM     31  C   UNL     1       0.395   5.239   0.942  0.00  0.00    +0.041 A 
ATOM     32  C   UNL     1       1.502   4.436   0.732  0.00  0.00    +0.022 A 
ATOM     33  C   UNL     1       1.337   3.096   0.436  0.00  0.00    +0.030 A 
ATOM     34 CL   UNL     1       0.601   6.922   1.314  0.00  0.00    -0.084 Cl
ENDBRANCH  25  28
ENDBRANCH  23  25
ENDBRANCH   2  19
TORSDOF 5
