REMARK  Name = ZINC28314048
REMARK  13 active torsions:
REMARK  status: ('A' for Active; 'I' for Inactive)
REMARK    1  A    between atoms: C_1  and  C_2
REMARK    2  A    between atoms: C_2  and  O_3
REMARK    3  A    between atoms: O_3  and  C_4
REMARK    4  A    between atoms: C_4  and  C_5
REMARK    5  A    between atoms: C_5  and  C_6
REMARK    6  A    between atoms: C_6  and  N_7
REMARK    7  A    between atoms: C_10  and  C_23
REMARK    8  A    between atoms: N_14  and  C_15
REMARK    9  A    between atoms: C_18  and  C_22
REMARK   10  A    between atoms: C_20  and  C_21
REMARK   11  A    between atoms: C_23  and  C_24
REMARK   12  A    between atoms: N_26  and  C_27
REMARK   13  A    between atoms: C_31  and  N_33
REMARK                            x       y       z     vdW  Elec       q    Type
REMARK                         _______ _______ _______ _____ _____    ______ ____
ROOT
ATOM      1  N   UNL     1      -4.818  -4.465   0.251  0.00  0.00    -0.250 N 
ATOM      2  C   UNL     1      -4.341  -3.827  -0.804  0.00  0.00    +0.235 C 
ATOM      3  O   UNL     1      -4.990  -3.683  -1.819  0.00  0.00    -0.274 OA
ATOM      4  C   UNL     1      -2.928  -3.284  -0.666  0.00  0.00    +0.149 C 
ATOM      5  S   UNL     1      -2.533  -3.823   1.045  0.00  0.00    -0.077 S 
ATOM      6  C   UNL     1      -4.085  -4.630   1.407  0.00  0.00    +0.164 C 
ATOM      7  N   UNL     1      -4.444  -5.238   2.514  0.00  0.00    -0.226 NA
ENDROOT
BRANCH   7   8
ATOM      8  C   UNL     1      -3.620  -5.212   3.607  0.00  0.00    +0.069 A 
ATOM      9  C   UNL     1      -3.089  -4.000   4.056  0.00  0.00    +0.028 A 
ATOM     10  C   UNL     1      -2.264  -3.980   5.161  0.00  0.00    +0.005 A 
ATOM     11  C   UNL     1      -1.953  -5.158   5.818  0.00  0.00    -0.050 A 
ATOM     12  C   UNL     1      -2.471  -6.362   5.375  0.00  0.00    +0.008 A 
ATOM     13  C   UNL     1      -3.302  -6.396   4.275  0.00  0.00    -0.025 A 
ATOM     14  C   UNL     1      -3.865  -7.708   3.793  0.00  0.00    +0.046 C 
ATOM     15  C   UNL     1      -1.046  -5.128   7.021  0.00  0.00    +0.044 C 
ENDBRANCH   7   8
BRANCH   1  16
ATOM     16  C   UNL     1      -6.175  -5.014   0.189  0.00  0.00    +0.118 C 
BRANCH  16  17
ATOM     17  C   UNL     1      -6.121  -6.447  -0.344  0.00  0.00    +0.047 C 
BRANCH  17  18
ATOM     18  C   UNL     1      -7.537  -7.022  -0.408  0.00  0.00    +0.161 C 
BRANCH  18  19
ATOM     19  O   UNL     1      -7.487  -8.360  -0.907  0.00  0.00    -0.380 OA
BRANCH  19  21
ATOM     20  C   UNL     1      -8.590 -10.412  -1.548  0.00  0.00    +0.034 C 
ATOM     21  C   UNL     1      -8.764  -8.992  -1.007  0.00  0.00    +0.156 C 
ENDBRANCH  19  21
ENDBRANCH  18  19
ENDBRANCH  17  18
ENDBRANCH  16  17
ENDBRANCH   1  16
BRANCH   4  22
ATOM     22  C   UNL     1      -2.905  -1.759  -0.786  0.00  0.00    +0.120 C 
BRANCH  22  23
ATOM     23  C   UNL     1      -1.478  -1.275  -0.766  0.00  0.00    +0.219 C 
ATOM     24  O   UNL     1      -0.569  -2.071  -0.667  0.00  0.00    -0.275 OA
ATOM     25  N   UNL     1      -1.212   0.043  -0.860  0.00  0.00    -0.285 N 
ATOM     26  H   UNL     1      -2.037   0.771  -0.876  0.00  0.00    +0.155 HD
BRANCH  25  27
ATOM     27  C   UNL     1       0.113   0.486  -0.936  0.00  0.00    +0.036 A 
ATOM     28  C   UNL     1       1.068  -0.286  -1.584  0.00  0.00    +0.023 A 
ATOM     29  C   UNL     1       2.374   0.157  -1.663  0.00  0.00    +0.004 A 
ATOM     30  C   UNL     1       2.731   1.366  -1.093  0.00  0.00    +0.033 A 
ATOM     31  C   UNL     1       1.784   2.134  -0.443  0.00  0.00    +0.128 A 
ATOM     32  C   UNL     1       0.476   1.696  -0.360  0.00  0.00    +0.056 A 
BRANCH  31  33
ATOM     33  N   UNL     1       2.171   3.426   0.166  0.00  0.00    +0.056 N 
ATOM     34  O   UNL     1       3.324   3.812   0.094  0.00  0.00    -0.126 OA
ATOM     35  O   UNL     1       1.337   4.103   0.740  0.00  0.00    -0.126 OA
ENDBRANCH  31  33
ENDBRANCH  25  27
ENDBRANCH  22  23
ENDBRANCH   4  22
TORSDOF 10
