REMARK  Name = ZINC34847083
REMARK  8 active torsions:
REMARK  status: ('A' for Active; 'I' for Inactive)
REMARK    1  A    between atoms: C_1  and  C_2
REMARK    2  A    between atoms: C_7  and  N_8
REMARK    3  A    between atoms: N_8  and  C_9
REMARK    4  A    between atoms: C_9  and  C_10
REMARK    5  A    between atoms: N_12  and  N_13
REMARK    6  A    between atoms: C_14  and  C_15
REMARK    7  A    between atoms: C_17  and  N_22
REMARK    8  A    between atoms: C_20  and  O_21
REMARK                            x       y       z     vdW  Elec       q    Type
REMARK                         _______ _______ _______ _____ _____    ______ ____
ROOT
ATOM      1  C   UNL     1       0.045   0.214   4.831  0.00  0.00    +0.249 C 
ATOM      2  O   UNL     1       0.027   1.408   4.618  0.00  0.00    -0.272 OA
ATOM      3  N   UNL     1       0.063  -0.245   6.098  0.00  0.00    -0.206 N 
ATOM      4  H   UNL     1       0.078  -1.200   6.269  0.00  0.00    +0.177 HD
ENDROOT
BRANCH   3   5
ATOM      5  N   UNL     1       0.061   0.658   7.170  0.00  0.00    -0.188 NA
ATOM      6  C   UNL     1       0.079   0.217   8.390  0.00  0.00    +0.142 C 
BRANCH   6   7
ATOM      7  C   UNL     1       0.076   1.166   9.518  0.00  0.00    +0.038 A 
ATOM      8  C   UNL     1       0.101   0.696  10.832  0.00  0.00    +0.045 A 
ATOM      9  C   UNL     1       0.099   1.589  11.882  0.00  0.00    +0.127 A 
ATOM     10  C   UNL     1       0.073   2.952  11.639  0.00  0.00    +0.036 A 
ATOM     11  C   UNL     1       0.048   3.430  10.343  0.00  0.00    +0.048 A 
ATOM     12  C   UNL     1       0.055   2.547   9.276  0.00  0.00    +0.126 A 
BRANCH   9  13
ATOM     13  N   UNL     1       0.125   1.090  13.275  0.00  0.00    +0.056 N 
ATOM     14  O   UNL     1       0.148  -0.100  13.491  0.00  0.00    -0.126 OA
ATOM     15  O   UNL     1       0.124   1.871  14.198  0.00  0.00    -0.126 OA
ENDBRANCH   9  13
BRANCH  12  16
ATOM     16  O   UNL     1       0.037   3.016   8.002  0.00  0.00    -0.506 OA
ATOM     17  H   UNL     1      -0.852   3.139   7.641  0.00  0.00    +0.292 HD
ENDBRANCH  12  16
ENDBRANCH   6   7
ENDBRANCH   3   5
BRANCH   1  18
ATOM     18  C   UNL     1       0.047  -0.757   3.679  0.00  0.00    +0.199 C 
BRANCH  18  19
ATOM     19  N   UNL     1       0.025  -0.016   2.415  0.00  0.00    -0.335 N 
ATOM     20  H   UNL     1       0.012   0.954   2.422  0.00  0.00    +0.147 HD
BRANCH  19  27
ATOM     21  C   UNL     1      -0.018   1.503   0.010  0.00  0.00    +0.045 C 
ATOM     22  C   UNL     1       0.002  -0.004   0.002  0.00  0.00    -0.029 A 
ATOM     23  C   UNL     1       0.006  -0.689  -1.198  0.00  0.00    +0.019 A 
ATOM     24  C   UNL     1       0.024  -2.072  -1.206  0.00  0.00    +0.014 A 
ATOM     25  C   UNL     1       0.039  -2.774  -0.014  0.00  0.00    +0.016 A 
ATOM     26  C   UNL     1       0.035  -2.095   1.189  0.00  0.00    +0.024 A 
ATOM     27  C   UNL     1       0.023  -0.706   1.200  0.00  0.00    +0.031 A 
ATOM     28  I   UNL     1       0.030  -3.106  -3.028  0.00  0.00    -0.044 I 
ENDBRANCH  19  27
ENDBRANCH  18  19
ENDBRANCH   1  18
TORSDOF 7
