REMARK  Name = ZINC03168568
REMARK  10 active torsions:
REMARK  status: ('A' for Active; 'I' for Inactive)
REMARK    1  A    between atoms: C_4  and  C_7
REMARK    2  A    between atoms: P_9  and  N_20
REMARK    3  A    between atoms: C_12  and  C_14
REMARK    4  A    between atoms: N_20  and  C_21
REMARK    5  A    between atoms: C_21  and  C_22
REMARK    6  A    between atoms: C_22  and  C_23
REMARK    7  A    between atoms: C_23  and  N_24
REMARK    8  A    between atoms: N_27  and  C_29
REMARK    9  A    between atoms: C_29  and  C_30
REMARK   10  A    between atoms: C_33  and  N_36
REMARK                            x       y       z     vdW  Elec       q    Type
REMARK                         _______ _______ _______ _____ _____    ______ ____
ROOT
ATOM      1  N   UNL     1       4.885   0.806  -2.867  0.00  0.00    -0.260 NA
ATOM      2  H   UNL     1       4.902  -0.162  -3.153  0.00  0.00    +0.130 HD
ENDROOT
BRANCH   1   5
ATOM      3  C   UNL     1       6.853   2.536  -5.532  0.00  0.00    +0.140 C 
ATOM      4  C   UNL     1       6.915   1.404  -4.822  0.00  0.00    +0.106 C 
ATOM      5  P   UNL     1       6.392   1.524  -3.075  0.00  0.00    +0.199 P 
ATOM      6  O   UNL     1       7.392   0.880  -2.195  0.00  0.00    -0.295 OA
ATOM      7  C   UNL     1       6.295   3.315  -2.719  0.00  0.00    +0.106 C 
ATOM      8  C   UNL     1       6.336   4.125  -3.787  0.00  0.00    +0.140 C 
ATOM      9  O   UNL     1       6.428   3.707  -5.052  0.00  0.00    -0.454 OA
BRANCH   3  13
ATOM     10  C   UNL     1       8.091   2.395  -9.594  0.00  0.00    +0.000 A 
ATOM     11  C   UNL     1       7.644   3.586  -9.052  0.00  0.00    +0.001 A 
ATOM     12  C   UNL     1       7.240   3.638  -7.733  0.00  0.00    +0.011 A 
ATOM     13  C   UNL     1       7.284   2.487  -6.947  0.00  0.00    +0.017 A 
ATOM     14  C   UNL     1       7.742   1.290  -7.498  0.00  0.00    +0.011 A 
ATOM     15  C   UNL     1       8.137   1.250  -8.820  0.00  0.00    +0.001 A 
ENDBRANCH   3  13
BRANCH   8  16
ATOM     16  C   UNL     1       6.276   5.584  -3.546  0.00  0.00    +0.017 A 
ATOM     17  C   UNL     1       6.173   6.075  -2.245  0.00  0.00    +0.011 A 
ATOM     18  C   UNL     1       6.124   7.437  -2.026  0.00  0.00    +0.001 A 
ATOM     19  C   UNL     1       6.165   8.314  -3.095  0.00  0.00    +0.000 A 
ATOM     20  C   UNL     1       6.261   7.833  -4.389  0.00  0.00    +0.001 A 
ATOM     21  C   UNL     1       6.317   6.473  -4.620  0.00  0.00    +0.011 A 
ENDBRANCH   8  16
ENDBRANCH   1   5
BRANCH   1  22
ATOM     22  C   UNL     1       4.427   0.935  -1.477  0.00  0.00    +0.090 C 
BRANCH  22  23
ATOM     23  C   UNL     1       2.958   1.363  -1.461  0.00  0.00    +0.037 C 
BRANCH  23  24
ATOM     24  C   UNL     1       2.482   1.497  -0.013  0.00  0.00    +0.124 C 
BRANCH  24  25
ATOM     25  N   UNL     1       1.075   1.907   0.002  0.00  0.00    -0.338 N 
ATOM     26  C   UNL     1      -0.013   1.076   0.008  0.00  0.00    +0.104 A 
ATOM     27  C   UNL     1      -1.105   1.864   0.017  0.00  0.00    +0.105 A 
ATOM     28  N   UNL     1      -0.695   3.141   0.025  0.00  0.00    -0.334 N 
ATOM     29  C   UNL     1       0.610   3.174   0.013  0.00  0.00    +0.176 A 
BRANCH  28  30
ATOM     30  C   UNL     1      -1.573   4.313   0.038  0.00  0.00    +0.157 C 
BRANCH  30  31
ATOM     31  C   UNL     1      -1.887   4.722  -1.378  0.00  0.00    -0.028 A 
ATOM     32  C   UNL     1      -1.077   5.632  -2.031  0.00  0.00    +0.007 A 
ATOM     33  C   UNL     1      -1.363   6.003  -3.331  0.00  0.00    +0.033 A 
ATOM     34  C   UNL     1      -2.464   5.472  -3.975  0.00  0.00    +0.126 A 
ATOM     35  C   UNL     1      -3.278   4.567  -3.320  0.00  0.00    +0.033 A 
ATOM     36  C   UNL     1      -2.990   4.192  -2.022  0.00  0.00    +0.007 A 
BRANCH  34  37
ATOM     37  N   UNL     1      -2.773   5.873  -5.366  0.00  0.00    +0.056 N 
ATOM     38  O   UNL     1      -3.744   5.405  -5.934  0.00  0.00    -0.126 OA
ATOM     39  O   UNL     1      -2.056   6.671  -5.943  0.00  0.00    -0.126 OA
ENDBRANCH  34  37
ENDBRANCH  30  31
ENDBRANCH  28  30
ENDBRANCH  24  25
ENDBRANCH  23  24
ENDBRANCH  22  23
ENDBRANCH   1  22
TORSDOF 10
