REMARK  Name = ZINC34740730
REMARK  9 active torsions:
REMARK  status: ('A' for Active; 'I' for Inactive)
REMARK    1  A    between atoms: C_1  and  C_2
REMARK    2  A    between atoms: C_5  and  C_8
REMARK    3  A    between atoms: N_11  and  C_26
REMARK    4  A    between atoms: C_13  and  C_15
REMARK    5  A    between atoms: C_15  and  N_16
REMARK    6  A    between atoms: N_16  and  C_17
REMARK    7  A    between atoms: C_23  and  C_25
REMARK    8  A    between atoms: C_26  and  C_27
REMARK    9  A    between atoms: C_32  and  O_33
REMARK                            x       y       z     vdW  Elec       q    Type
REMARK                         _______ _______ _______ _____ _____    ______ ____
ROOT
ATOM      1  C   UNL     1       0.036  -4.135   0.036  0.00  0.00    +0.005 C 
ATOM      2  C   UNL     1      -1.054  -4.773   0.924  0.00  0.00    -0.070 C 
ATOM      3  N   UNL     1      -0.433  -6.018   1.443  0.00  0.00    +0.383 N 
ATOM      4  C   UNL     1       0.972  -5.631   1.736  0.00  0.00    -0.073 C 
ATOM      5  C   UNL     1       1.370  -4.699   0.568  0.00  0.00    -0.005 C 
ATOM      6  H   UNL     1      -0.460  -6.745   0.744  0.00  0.00    -0.081 HD
ENDROOT
BRANCH   1  11
ATOM      7  C   UNL     1      -0.064   1.619   0.561  0.00  0.00    +0.044 C 
ATOM      8  C   UNL     1      -0.038   0.118   0.424  0.00  0.00    -0.050 A 
ATOM      9  C   UNL     1       0.072  -0.460  -0.826  0.00  0.00    +0.003 A 
ATOM     10  C   UNL     1       0.096  -1.836  -0.952  0.00  0.00    +0.004 A 
ATOM     11  C   UNL     1       0.011  -2.635   0.173  0.00  0.00    -0.046 A 
ATOM     12  C   UNL     1      -0.098  -2.057   1.424  0.00  0.00    +0.004 A 
ATOM     13  C   UNL     1      -0.118  -0.680   1.550  0.00  0.00    +0.003 A 
ENDBRANCH   1  11
BRANCH   5  14
ATOM     14  C   UNL     1       2.263  -3.565   1.073  0.00  0.00    +0.110 C 
BRANCH  14  15
ATOM     15  N   UNL     1       3.576  -4.103   1.440  0.00  0.00    -0.298 N 
ATOM     16  C   UNL     1       4.573  -4.122   0.533  0.00  0.00    +0.213 C 
ATOM     17  O   UNL     1       5.686  -4.474   0.864  0.00  0.00    -0.276 OA
ATOM     18  C   UNL     1       4.306  -3.705  -0.890  0.00  0.00    +0.109 C 
BRANCH  15  19
ATOM     19  C   UNL     1       3.804  -4.620   2.791  0.00  0.00    +0.076 C 
ATOM     20  C   UNL     1       4.926  -3.823   3.460  0.00  0.00    +0.022 C 
ATOM     21  C   UNL     1       5.164  -4.363   4.871  0.00  0.00    +0.002 C 
ATOM     22  C   UNL     1       5.564  -5.838   4.792  0.00  0.00    +0.000 C 
ATOM     23  C   UNL     1       4.442  -6.635   4.124  0.00  0.00    +0.002 C 
ATOM     24  C   UNL     1       4.203  -6.095   2.712  0.00  0.00    +0.022 C 
ENDBRANCH  15  19
ENDBRANCH  14  15
ENDBRANCH   5  14
BRANCH   3  25
ATOM     25  C   UNL     1      -1.110  -6.458   2.670  0.00  0.00    -0.039 C 
BRANCH  25  26
ATOM     26  C   UNL     1      -2.522  -6.873   2.344  0.00  0.00    -0.022 A 
ATOM     27  C   UNL     1      -3.570  -6.004   2.579  0.00  0.00    +0.005 A 
ATOM     28  C   UNL     1      -4.865  -6.385   2.280  0.00  0.00    +0.000 A 
ATOM     29  C   UNL     1      -5.115  -7.635   1.744  0.00  0.00    +0.004 A 
ATOM     30  C   UNL     1      -4.070  -8.506   1.506  0.00  0.00    +0.045 A 
ATOM     31  C   UNL     1      -2.769  -8.125   1.800  0.00  0.00    +0.118 A 
BRANCH  31  32
ATOM     32  O   UNL     1      -1.739  -8.979   1.562  0.00  0.00    -0.507 OA
ATOM     33  H   UNL     1      -1.530  -9.561   2.305  0.00  0.00    +0.292 HD
ENDBRANCH  31  32
ENDBRANCH  25  26
ENDBRANCH   3  25
TORSDOF 7
