REMARK  Name = ZINC22679452
REMARK  15 active torsions:
REMARK  status: ('A' for Active; 'I' for Inactive)
REMARK    1  A    between atoms: C_1  and  C_2
REMARK    2  A    between atoms: C_2  and  C_3
REMARK    3  A    between atoms: C_2  and  C_4
REMARK    4  A    between atoms: C_7  and  C_10
REMARK    5  A    between atoms: C_12  and  C_15
REMARK    6  A    between atoms: C_15  and  C_16
REMARK    7  A    between atoms: C_16  and  C_17
REMARK    8  A    between atoms: N_19  and  C_20
REMARK    9  A    between atoms: C_20  and  C_21
REMARK   10  A    between atoms: C_21  and  C_23
REMARK   11  A    between atoms: C_21  and  N_31
REMARK   12  A    between atoms: C_28  and  O_29
REMARK   13  A    between atoms: O_29  and  C_30
REMARK   14  A    between atoms: N_31  and  C_32
REMARK   15  A    between atoms: N_31  and  C_33
REMARK                            x       y       z     vdW  Elec       q    Type
REMARK                         _______ _______ _______ _____ _____    ______ ____
ROOT
ATOM      1  C   UNL     1      -0.011  -5.137   1.565  0.00  0.00    +0.213 C 
ATOM      2  O   UNL     1      -0.451  -4.730   2.619  0.00  0.00    -0.276 OA
ATOM      3  N   UNL     1       0.523  -4.273   0.679  0.00  0.00    -0.317 N 
ATOM      4  H   UNL     1       0.921  -4.642  -0.278  0.00  0.00    +0.149 HD
ENDROOT
BRANCH   1   5
ATOM      5  C   UNL     1      -0.061  -6.609   1.245  0.00  0.00    +0.105 C 
BRANCH   5   6
ATOM      6  C   UNL     1      -0.710  -7.362   2.409  0.00  0.00    +0.108 C 
BRANCH   6   9
ATOM      7  C   UNL     1      -0.314 -10.898   1.898  0.00  0.00    +0.202 A 
ATOM      8  N   UNL     1       0.161  -9.722   2.369  0.00  0.00    -0.191 NA
ATOM      9  C   UNL     1      -0.760  -8.834   2.089  0.00  0.00    +0.228 A 
ATOM     10  O   UNL     1      -1.755  -9.479   1.472  0.00  0.00    -0.338 OA
ATOM     11  N   UNL     1      -1.483 -10.656   1.365  0.00  0.00    -0.056 NA
BRANCH   7  15
ATOM     12  C   UNL     1       1.634 -14.672   2.105  0.00  0.00    -0.045 A 
ATOM     13  C   UNL     1       0.390 -14.571   1.510  0.00  0.00    +0.004 A 
ATOM     14  C   UNL     1      -0.247 -13.348   1.440  0.00  0.00    +0.012 A 
ATOM     15  C   UNL     1       0.366 -12.215   1.970  0.00  0.00    +0.022 A 
ATOM     16  C   UNL     1       1.621 -12.322   2.565  0.00  0.00    +0.012 A 
ATOM     17  C   UNL     1       2.247 -13.550   2.634  0.00  0.00    +0.004 A 
BRANCH  12  19
ATOM     18  C   UNL     1       3.662 -15.934   1.440  0.00  0.00    +0.012 C 
ATOM     19  C   UNL     1       2.325 -16.010   2.179  0.00  0.00    +0.013 C 
ATOM     20  C   UNL     1       2.571 -16.377   3.643  0.00  0.00    +0.012 C 
ENDBRANCH  12  19
ENDBRANCH   7  15
ENDBRANCH   6   9
ENDBRANCH   5   6
ENDBRANCH   1   5
BRANCH   3  21
ATOM     21  C   UNL     1       0.572  -2.842   0.990  0.00  0.00    +0.093 C 
BRANCH  21  22
ATOM     22  C   UNL     1       1.336  -2.107  -0.113  0.00  0.00    -0.017 C 
BRANCH  22  23
ATOM     23  C   UNL     1       1.269  -0.622   0.134  0.00  0.00    -0.018 A 
ATOM     24  C   UNL     1       2.369   0.046   0.636  0.00  0.00    +0.005 A 
ATOM     25  C   UNL     1       2.308   1.408   0.863  0.00  0.00    +0.000 A 
ATOM     26  C   UNL     1       1.147   2.106   0.587  0.00  0.00    +0.004 A 
ATOM     27  C   UNL     1       0.044   1.443   0.085  0.00  0.00    +0.046 A 
ATOM     28  C   UNL     1       0.103   0.076  -0.143  0.00  0.00    +0.122 A 
BRANCH  28  29
ATOM     29  O   UNL     1      -0.981  -0.579  -0.636  0.00  0.00    -0.495 OA
ATOM     30  C   UNL     1      -2.148   0.204  -0.898  0.00  0.00    +0.277 C 
ENDBRANCH  28  29
ENDBRANCH  22  23
BRANCH  22  31
ATOM     31  N   UNL     1       2.740  -2.541  -0.109  0.00  0.00    +0.382 N 
ATOM     32  C   UNL     1       3.231  -2.722   1.264  0.00  0.00    -0.096 C 
ATOM     33  C   UNL     1       2.913  -3.769  -0.896  0.00  0.00    -0.096 C 
ATOM     34  H   UNL     1       3.340  -1.749  -0.581  0.00  0.00    -0.082 HD
ENDBRANCH  22  31
ENDBRANCH  21  22
ENDBRANCH   3  21
TORSDOF 10
