REMARK  Name = ZINC17074018
REMARK  5 active torsions:
REMARK  status: ('A' for Active; 'I' for Inactive)
REMARK    1  A    between atoms: C_1  and  C_2
REMARK    2  A    between atoms: C_5  and  O_25
REMARK    3  A    between atoms: C_6  and  N_8
REMARK    4  A    between atoms: C_17  and  S_18
REMARK    5  A    between atoms: C_20  and  C_24
REMARK                            x       y       z     vdW  Elec       q    Type
REMARK                         _______ _______ _______ _____ _____    ______ ____
ROOT
ATOM      1  N   UNL     1      -1.202  -0.724   0.009  0.00  0.00    -0.252 N 
ATOM      2  C   UNL     1      -1.782  -1.051  -1.160  0.00  0.00    +0.268 A 
ATOM      3  O   UNL     1      -1.269  -0.727  -2.217  0.00  0.00    -0.267 OA
ATOM      4  C   UNL     1      -3.007  -1.790  -1.145  0.00  0.00    +0.076 A 
ATOM      5  C   UNL     1      -3.801  -2.253  -2.286  0.00  0.00    -0.023 A 
ATOM      6  C   UNL     1      -4.932  -2.932  -2.008  0.00  0.00    -0.004 A 
ATOM      7  S   UNL     1      -5.009  -2.995  -0.239  0.00  0.00    -0.073 S 
ATOM      8  C   UNL     1      -3.516  -2.107   0.125  0.00  0.00    +0.117 A 
ATOM      9  N   UNL     1      -2.897  -1.750   1.244  0.00  0.00    -0.216 NA
ATOM     10  C   UNL     1      -1.766  -1.074   1.203  0.00  0.00    +0.174 A 
ATOM     11  C   UNL     1      -5.909  -3.508  -2.988  0.00  0.00    +0.046 C 
ATOM     12  C   UNL     1      -5.246  -3.537  -4.373  0.00  0.00    -0.009 C 
ATOM     13  C   UNL     1      -4.601  -2.173  -4.637  0.00  0.00    +0.008 C 
ATOM     14  C   UNL     1      -3.384  -1.989  -3.730  0.00  0.00    +0.037 C 
ATOM     15  C   UNL     1      -6.302  -3.820  -5.442  0.00  0.00    +0.008 C 
ENDROOT
BRANCH   1  21
ATOM     16  C   UNL     1       3.716  -0.700  -0.038  0.00  0.00    +0.044 C 
ATOM     17  C   UNL     1       2.400   0.034  -0.021  0.00  0.00    -0.048 A 
ATOM     18  C   UNL     1       2.380   1.416  -0.013  0.00  0.00    +0.007 A 
ATOM     19  C   UNL     1       1.176   2.094   0.002  0.00  0.00    +0.048 A 
ATOM     20  C   UNL     1      -0.017   1.389   0.010  0.00  0.00    +0.141 A 
ATOM     21  C   UNL     1       0.002  -0.004   0.002  0.00  0.00    +0.093 A 
ATOM     22  C   UNL     1       1.215  -0.677  -0.013  0.00  0.00    +0.033 A 
BRANCH  20  23
ATOM     23  O   UNL     1      -1.202   2.054   0.019  0.00  0.00    -0.505 OA
ATOM     24  H   UNL     1      -1.541   2.242   0.905  0.00  0.00    +0.292 HD
ENDBRANCH  20  23
ENDBRANCH   1  21
BRANCH  10  25
ATOM     25  S   UNL     1      -0.972  -0.616   2.708  0.00  0.00    -0.105 S 
ATOM     26  H   UNL     1      -1.877  -1.167   3.639  0.00  0.00    +0.110 HD
ENDBRANCH  10  25
TORSDOF 3
