REMARK  Name = ZINC12920884
REMARK  12 active torsions:
REMARK  status: ('A' for Active; 'I' for Inactive)
REMARK    1  A    between atoms: C_1  and  C_2
REMARK    2  A    between atoms: C_7  and  N_8
REMARK    3  A    between atoms: C_9  and  C_11
REMARK    4  A    between atoms: C_11  and  N_12
REMARK    5  A    between atoms: C_13  and  C_15
REMARK    6  A    between atoms: C_15  and  N_60
REMARK    7  A    between atoms: C_16  and  N_60
REMARK    8  A    between atoms: C_17  and  C_18
REMARK    9  A    between atoms: C_17  and  N_60
REMARK   10  A    between atoms: C_19  and  C_30
REMARK   11  A    between atoms: N_21  and  C_24
REMARK   12  A    between atoms: C_22  and  C_23
REMARK                            x       y       z     vdW  Elec       q    Type
REMARK                         _______ _______ _______ _____ _____    ______ ____
ROOT
ATOM      1  C   UNL     1       4.187   1.639  -0.138  0.00  0.00    +0.019 C 
ENDROOT
BRANCH   1   3
ATOM      2  N   UNL     1       1.850   1.848   0.645  0.00  0.00    -0.308 N 
ATOM      3  C   UNL     1       3.038   2.442   0.416  0.00  0.00    +0.197 C 
ATOM      4  O   UNL     1       3.182   3.622   0.654  0.00  0.00    -0.278 OA
ATOM      5  H   UNL     1       1.735   0.904   0.454  0.00  0.00    +0.149 HD
BRANCH   2   6
ATOM      6  C   UNL     1       0.733   2.629   1.183  0.00  0.00    +0.200 C 
BRANCH   6   8
ATOM      7  N   UNL     1      -1.625   2.243   1.824  0.00  0.00    -0.284 N 
ATOM      8  C   UNL     1      -0.471   1.737   1.346  0.00  0.00    +0.234 C 
ATOM      9  O   UNL     1      -0.402   0.564   1.043  0.00  0.00    -0.274 OA
ATOM     10  H   UNL     1      -1.660   3.161   2.134  0.00  0.00    +0.155 HD
BRANCH   7  17
ATOM     11  C   UNL     1      -3.716   3.001   3.598  0.00  0.00    +0.046 C 
ATOM     12  C   UNL     1      -3.817   1.777   2.725  0.00  0.00    -0.028 A 
ATOM     13  C   UNL     1      -4.950   0.989   2.768  0.00  0.00    +0.020 A 
ATOM     14  C   UNL     1      -5.041  -0.139   1.971  0.00  0.00    +0.018 A 
ATOM     15  C   UNL     1      -3.999  -0.477   1.125  0.00  0.00    +0.017 A 
ATOM     16  C   UNL     1      -2.866   0.311   1.074  0.00  0.00    +0.024 A 
ATOM     17  C   UNL     1      -2.772   1.443   1.873  0.00  0.00    +0.036 A 
ATOM     18 BR   UNL     1      -6.591  -1.220   2.038  0.00  0.00    -0.050 Br
ENDBRANCH   7  17
ENDBRANCH   6   8
ENDBRANCH   2   6
ENDBRANCH   1   3
BRANCH   1  20
ATOM     19  C   UNL     1       5.853   2.971   1.008  0.00  0.00    -0.095 C 
ATOM     20  N   UNL     1       5.352   2.532  -0.311  0.00  0.00    +0.386 N 
ATOM     21  H   UNL     1       5.063   3.357  -0.850  0.00  0.00    -0.081 HD
BRANCH  20  22
ATOM     22  C   UNL     1       6.422   1.828  -1.049  0.00  0.00    -0.039 C 
BRANCH  22  23
ATOM     23  C   UNL     1       7.501   2.819  -1.404  0.00  0.00    -0.020 A 
ATOM     24  C   UNL     1       7.558   3.591  -2.570  0.00  0.00    +0.062 A 
ATOM     25  N   UNL     1       8.636   4.331  -2.518  0.00  0.00    -0.171 NA
ATOM     26  N   UNL     1       9.306   4.046  -1.322  0.00  0.00    -0.237 N 
ATOM     27  C   UNL     1       8.588   3.114  -0.655  0.00  0.00    +0.043 A 
ATOM     28  C   UNL     1       8.937   2.512   0.682  0.00  0.00    +0.066 C 
ATOM     29  C   UNL     1       6.548   3.577  -3.689  0.00  0.00    +0.068 C 
BRANCH  26  30
ATOM     30  C   UNL     1      10.508   4.625  -0.891  0.00  0.00    +0.066 A 
ATOM     31  C   UNL     1      10.739   5.979  -1.093  0.00  0.00    +0.028 A 
ATOM     32  C   UNL     1      11.921   6.548  -0.662  0.00  0.00    +0.002 A 
ATOM     33  C   UNL     1      12.880   5.769  -0.041  0.00  0.00    +0.000 A 
ATOM     34  C   UNL     1      12.655   4.419   0.157  0.00  0.00    +0.002 A 
ATOM     35  C   UNL     1      11.472   3.845  -0.266  0.00  0.00    +0.028 A 
ENDBRANCH  26  30
ENDBRANCH  22  23
ENDBRANCH  20  22
ENDBRANCH   1  20
TORSDOF 8
