REMARK  Name = ZINC33051183
REMARK  9 active torsions:
REMARK  status: ('A' for Active; 'I' for Inactive)
REMARK    1  A    between atoms: C_1  and  C_2
REMARK    2  A    between atoms: N_5  and  C_7
REMARK    3  A    between atoms: C_18  and  C_29
REMARK    4  A    between atoms: N_24  and  C_25
REMARK    5  A    between atoms: C_25  and  C_26
REMARK    6  A    between atoms: C_26  and  C_27
REMARK    7  A    between atoms: C_26  and  C_28
REMARK    8  A    between atoms: C_32  and  S_35
REMARK    9  A    between atoms: S_35  and  C_36
REMARK                            x       y       z     vdW  Elec       q    Type
REMARK                         _______ _______ _______ _____ _____    ______ ____
ROOT
ATOM      1  C   UNL     1       1.427   9.217   0.708  0.00  0.00    +0.068 C 
ATOM      2  C   UNL     1       0.705   7.932   0.394  0.00  0.00    +0.067 A 
ATOM      3  C   UNL     1      -0.439   7.811  -0.389  0.00  0.00    +0.035 A 
ATOM      4  C   UNL     1      -0.759   6.485  -0.448  0.00  0.00    +0.146 A 
ATOM      5  N   UNL     1       0.125   5.806   0.305  0.00  0.00    -0.215 N 
ATOM      6  N   UNL     1       1.044   6.737   0.819  0.00  0.00    -0.169 NA
ATOM      7  N   UNL     1      -1.823   6.044  -1.244  0.00  0.00    -0.303 N 
ATOM      8  C   UNL     1      -2.807   5.152  -0.984  0.00  0.00    +0.093 A 
ATOM      9  C   UNL     1      -3.640   5.132  -2.049  0.00  0.00    +0.020 A 
ATOM     10  C   UNL     1      -3.129   6.035  -3.007  0.00  0.00    +0.025 A 
ATOM     11  C   UNL     1      -2.001   6.560  -2.502  0.00  0.00    +0.050 A 
ATOM     12  C   UNL     1      -1.030   7.503  -3.150  0.00  0.00    +0.155 C 
ATOM     13  N   UNL     1      -1.084   8.848  -2.532  0.00  0.00    -0.269 N 
ATOM     14  C   UNL     1      -1.246   8.885  -1.059  0.00  0.00    +0.151 C 
ATOM     15  C   UNL     1      -0.992   9.974  -3.267  0.00  0.00    +0.303 C 
ATOM     16  O   UNL     1      -0.861   9.903  -4.474  0.00  0.00    -0.253 OA
ATOM     17  N   UNL     1      -1.046  11.178  -2.664  0.00  0.00    -0.299 N 
ATOM     18  H   UNL     1      -1.165  11.242  -1.573  0.00  0.00    +0.150 HD
ENDROOT
BRANCH   5  19
ATOM     19  C   UNL     1       0.127   4.424   0.540  0.00  0.00    +0.068 A 
ATOM     20  C   UNL     1      -0.152   3.542  -0.496  0.00  0.00    +0.028 A 
ATOM     21  C   UNL     1      -0.150   2.181  -0.262  0.00  0.00    +0.002 A 
ATOM     22  C   UNL     1       0.131   1.696   1.002  0.00  0.00    +0.000 A 
ATOM     23  C   UNL     1       0.403   2.572   2.037  0.00  0.00    +0.002 A 
ATOM     24  C   UNL     1       0.407   3.934   1.808  0.00  0.00    +0.028 A 
ENDBRANCH   5  19
BRANCH  12  25
ATOM     25  C   UNL     1       0.365   6.950  -3.004  0.00  0.00    -0.021 A 
ATOM     26  C   UNL     1       1.416   7.799  -2.709  0.00  0.00    +0.007 A 
ATOM     27  C   UNL     1       2.694   7.295  -2.569  0.00  0.00    +0.015 A 
ATOM     28  C   UNL     1       2.925   5.936  -2.737  0.00  0.00    +0.008 A 
ATOM     29  C   UNL     1       1.867   5.086  -3.040  0.00  0.00    +0.015 A 
ATOM     30  C   UNL     1       0.591   5.596  -3.172  0.00  0.00    +0.007 A 
BRANCH  28  31
ATOM     31  S   UNL     1       4.555   5.289  -2.567  0.00  0.00    -0.129 S 
ATOM     32  C   UNL     1       5.566   6.745  -2.180  0.00  0.00    +0.090 C 
ENDBRANCH  28  31
ENDBRANCH  12  25
BRANCH  17  33
ATOM     33  C   UNL     1      -0.947  12.402  -3.463  0.00  0.00    +0.108 C 
BRANCH  33  34
ATOM     34  C   UNL     1      -1.035  13.621  -2.542  0.00  0.00    -0.000 C 
ATOM     35  C   UNL     1      -0.807  14.895  -3.359  0.00  0.00    +0.009 C 
ATOM     36  C   UNL     1      -2.421  13.672  -1.895  0.00  0.00    +0.009 C 
ENDBRANCH  33  34
ENDBRANCH  17  33
TORSDOF 5
