REMARK  Name = ZINC39836006
REMARK  8 active torsions:
REMARK  status: ('A' for Active; 'I' for Inactive)
REMARK    1  A    between atoms: C_1  and  C_2
REMARK    2  A    between atoms: C_9  and  O_27
REMARK    3  A    between atoms: C_10  and  C_13
REMARK    4  A    between atoms: N_17  and  C_21
REMARK    5  A    between atoms: C_21  and  C_22
REMARK    6  A    between atoms: C_22  and  C_23
REMARK    7  A    between atoms: C_23  and  C_24
REMARK    8  A    between atoms: O_27  and  C_28
REMARK                            x       y       z     vdW  Elec       q    Type
REMARK                         _______ _______ _______ _____ _____    ______ ____
ROOT
ATOM      1  C   UNL     1      -0.092   1.192  -0.252  0.00  0.00    +0.047 C 
ATOM      2  C   UNL     1      -0.063  -0.312  -0.167  0.00  0.00    -0.007 A 
ATOM      3  C   UNL     1      -0.071  -1.065  -1.304  0.00  0.00    +0.008 A 
ATOM      4  C   UNL     1      -0.045  -2.462  -1.208  0.00  0.00    +0.019 A 
ATOM      5  C   UNL     1      -0.012  -3.058   0.005  0.00  0.00    +0.096 A 
ATOM      6  N   UNL     1      -0.004  -2.315   1.148  0.00  0.00    -0.267 N 
ATOM      7  C   UNL     1      -0.023  -0.950   1.086  0.00  0.00    +0.147 A 
ATOM      8  N   UNL     1      -0.010  -0.205   2.193  0.00  0.00    -0.194 NA
ATOM      9  C   UNL     1       0.028  -0.752   3.397  0.00  0.00    +0.235 A 
ATOM     10  C   UNL     1       0.056  -2.159   3.524  0.00  0.00    +0.103 A 
ATOM     11  C   UNL     1       0.029  -2.941   2.344  0.00  0.00    +0.269 A 
ATOM     12  O   UNL     1       0.051  -4.158   2.406  0.00  0.00    -0.266 OA
ENDROOT
BRANCH  10  13
ATOM     13  C   UNL     1       0.096  -2.771   4.799  0.00  0.00    +0.039 C 
ATOM     14  C   UNL     1       1.200  -3.477   5.182  0.00  0.00    +0.077 C 
ATOM     15  C   UNL     1       2.454  -3.627   4.523  0.00  0.00    +0.258 C 
ATOM     16  O   UNL     1       2.668  -3.083   3.454  0.00  0.00    -0.269 OA
ATOM     17  N   UNL     1       3.377  -4.372   5.104  0.00  0.00    -0.255 N 
ATOM     18  C   UNL     1       3.139  -4.976   6.290  0.00  0.00    +0.121 C 
ATOM     19  S   UNL     1       4.177  -5.976   7.213  0.00  0.00    -0.027 S 
ATOM     20  S   UNL     1       1.468  -4.458   6.652  0.00  0.00    -0.061 S 
BRANCH  17  21
ATOM     21  C   UNL     1       4.678  -4.548   4.453  0.00  0.00    +0.115 C 
BRANCH  21  22
ATOM     22  C   UNL     1       5.634  -3.447   4.918  0.00  0.00    +0.031 C 
BRANCH  22  23
ATOM     23  C   UNL     1       6.992  -3.630   4.239  0.00  0.00    +0.126 C 
BRANCH  23  24
ATOM     24  C   UNL     1       7.933  -2.546   4.697  0.00  0.00    +0.356 C 
ATOM     25  O   UNL     1       7.553  -1.704   5.493  0.00  0.00    -0.246 OA
ATOM     26  O   UNL     1       9.075  -2.510   4.271  0.00  0.00    -0.246 OA
ENDBRANCH  23  24
ENDBRANCH  22  23
ENDBRANCH  21  22
ENDBRANCH  17  21
ENDBRANCH  10  13
BRANCH   9  27
ATOM     27  O   UNL     1       0.041   0.030   4.500  0.00  0.00    -0.434 OA
BRANCH  27  28
ATOM     28  C   UNL     1       0.118   1.377   4.326  0.00  0.00    +0.165 A 
ATOM     29  C   UNL     1       1.335   2.027   4.468  0.00  0.00    +0.049 A 
ATOM     30  C   UNL     1       1.411   3.395   4.291  0.00  0.00    +0.004 A 
ATOM     31  C   UNL     1       0.276   4.117   3.972  0.00  0.00    +0.003 A 
ATOM     32  C   UNL     1      -0.939   3.473   3.829  0.00  0.00    +0.042 A 
ATOM     33  C   UNL     1      -1.020   2.103   4.000  0.00  0.00    +0.165 A 
ATOM     34  F   UNL     1      -2.207   1.472   3.856  0.00  0.00    -0.202 F 
ENDBRANCH  27  28
ENDBRANCH   9  27
TORSDOF 7
