REMARK  Name = ZINC24717410
REMARK  5 active torsions:
REMARK  status: ('A' for Active; 'I' for Inactive)
REMARK    1  A    between atoms: C_1  and  C_2
REMARK    2  A    between atoms: N_15  and  C_16
REMARK    3  A    between atoms: C_16  and  C_18
REMARK    4  A    between atoms: C_16  and  C_25
REMARK    5  A    between atoms: N_29  and  C_30
REMARK                            x       y       z     vdW  Elec       q    Type
REMARK                         _______ _______ _______ _____ _____    ______ ____
ROOT
ATOM      1  C   UNL     1      -1.367  -3.728   6.704  0.00  0.00    +0.069 C 
ATOM      2  C   UNL     1      -0.261  -3.405   5.733  0.00  0.00    +0.081 A 
ATOM      3  C   UNL     1      -0.431  -3.080   4.392  0.00  0.00    +0.108 A 
ATOM      4  C   UNL     1       0.827  -2.854   3.849  0.00  0.00    +0.177 A 
ATOM      5  N   UNL     1       1.207  -2.509   2.606  0.00  0.00    -0.211 NA
ATOM      6  C   UNL     1       2.472  -2.343   2.284  0.00  0.00    +0.131 A 
ATOM      7  C   UNL     1       3.499  -2.531   3.317  0.00  0.00    +0.040 A 
ATOM      8  C   UNL     1       4.857  -2.366   3.041  0.00  0.00    +0.013 A 
ATOM      9  C   UNL     1       5.776  -2.552   4.036  0.00  0.00    +0.001 A 
ATOM     10  C   UNL     1       5.372  -2.903   5.316  0.00  0.00    +0.002 A 
ATOM     11  C   UNL     1       4.034  -3.071   5.609  0.00  0.00    +0.028 A 
ATOM     12  C   UNL     1       3.085  -2.887   4.613  0.00  0.00    +0.078 A 
ATOM     13  N   UNL     1       1.732  -3.044   4.858  0.00  0.00    -0.212 N 
ATOM     14  N   UNL     1       1.020  -3.386   6.014  0.00  0.00    -0.168 NA
ATOM     15  N   UNL     1       2.827  -1.993   0.996  0.00  0.00    -0.315 N 
ATOM     16 CL   UNL     1      -1.945  -2.974   3.549  0.00  0.00    -0.078 Cl
ATOM     17  H   UNL     1       3.887  -1.853   0.737  0.00  0.00    +0.148 HD
ENDROOT
BRANCH  15  18
ATOM     18  C   UNL     1       1.793  -1.809  -0.025  0.00  0.00    +0.169 C 
BRANCH  18  19
ATOM     19  C   UNL     1       2.376  -2.092  -1.386  0.00  0.00    +0.015 A 
ATOM     20  C   UNL     1       3.726  -1.903  -1.613  0.00  0.00    +0.009 A 
ATOM     21  C   UNL     1       4.261  -2.168  -2.860  0.00  0.00    +0.001 A 
ATOM     22  C   UNL     1       3.445  -2.611  -3.884  0.00  0.00    +0.003 A 
ATOM     23  C   UNL     1       2.094  -2.795  -3.661  0.00  0.00    +0.039 A 
ATOM     24  C   UNL     1       1.557  -2.535  -2.411  0.00  0.00    +0.129 A 
ATOM     25  F   UNL     1       0.236  -2.715  -2.191  0.00  0.00    -0.205 F 
ENDBRANCH  18  19
BRANCH  18  26
ATOM     26  C   UNL     1       1.290  -0.389   0.020  0.00  0.00    +0.112 A 
ATOM     27  N   UNL     1       2.033   0.679   0.110  0.00  0.00    -0.348 N 
ATOM     28  C   UNL     1       1.247   1.766   0.125  0.00  0.00    +0.102 A 
ATOM     29  C   UNL     1      -0.033   1.355   0.041  0.00  0.00    +0.104 A 
ATOM     30  N   UNL     1      -0.006  -0.012  -0.025  0.00  0.00    -0.337 N 
ATOM     31  C   UNL     1      -1.167  -0.900  -0.127  0.00  0.00    +0.150 C 
ATOM     32  H   UNL     1       3.128   0.585   0.160  0.00  0.00    +0.167 HD
ENDBRANCH  18  26
ENDBRANCH  15  18
TORSDOF 3
