REMARK  Name = ZINC46791109
REMARK  8 active torsions:
REMARK  status: ('A' for Active; 'I' for Inactive)
REMARK    1  A    between atoms: C_1  and  C_2
REMARK    2  A    between atoms: N_5  and  C_8
REMARK    3  A    between atoms: C_8  and  C_9
REMARK    4  A    between atoms: C_14  and  C_15
REMARK    5  A    between atoms: C_15  and  N_16
REMARK    6  A    between atoms: C_17  and  C_19
REMARK    7  A    between atoms: C_19  and  C_20
REMARK    8  A    between atoms: C_20  and  N_21
REMARK                            x       y       z     vdW  Elec       q    Type
REMARK                         _______ _______ _______ _____ _____    ______ ____
ROOT
ATOM      1  N   UNL     1      -3.193  -4.878   3.388  0.00  0.00    -0.311 N 
ATOM      2  C   UNL     1      -4.517  -4.655   3.270  0.00  0.00    +0.215 C 
ATOM      3  O   UNL     1      -4.975  -3.566   3.545  0.00  0.00    -0.276 OA
ATOM      4  H   UNL     1      -2.827  -5.749   3.168  0.00  0.00    +0.149 HD
ENDROOT
BRANCH   1   5
ATOM      5  C   UNL     1      -2.307  -3.806   3.848  0.00  0.00    +0.139 C 
BRANCH   5  11
ATOM      6  C   UNL     1      -0.143  -4.380   2.730  0.00  0.00    -0.059 A 
ATOM      7  C   UNL     1       1.161  -4.838   2.771  0.00  0.00    +0.002 A 
ATOM      8  C   UNL     1       1.718  -5.231   3.973  0.00  0.00    +0.000 A 
ATOM      9  C   UNL     1       0.971  -5.166   5.135  0.00  0.00    +0.000 A 
ATOM     10  C   UNL     1      -0.332  -4.708   5.094  0.00  0.00    +0.005 A 
ATOM     11  C   UNL     1      -0.888  -4.311   3.892  0.00  0.00    -0.029 A 
BRANCH   6  12
ATOM     12  C   UNL     1      -0.750  -3.952   1.419  0.00  0.00    -0.043 C 
BRANCH  12  17
ATOM     13  C   UNL     1      -0.019   1.526   0.010  0.00  0.00    +0.007 C 
ATOM     14  C   UNL     1       0.002  -0.004   0.002  0.00  0.00    -0.018 C 
ATOM     15  C   UNL     1      -1.434  -0.536   0.023  0.00  0.00    -0.016 C 
ATOM     16  C   UNL     1      -1.405  -2.064   0.095  0.00  0.00    -0.078 C 
ATOM     17  N   UNL     1      -0.707  -2.487   1.315  0.00  0.00    +0.382 N 
ATOM     18  C   UNL     1       0.691  -2.042   1.269  0.00  0.00    -0.078 C 
ATOM     19  C   UNL     1       0.743  -0.513   1.242  0.00  0.00    -0.016 C 
ATOM     20  H   UNL     1      -1.162  -2.082   2.119  0.00  0.00    -0.081 HD
ENDBRANCH  12  17
ENDBRANCH   6  12
ENDBRANCH   5  11
ENDBRANCH   1   5
BRANCH   2  21
ATOM     21  C   UNL     1      -5.428  -5.758   2.797  0.00  0.00    +0.117 C 
BRANCH  21  22
ATOM     22  C   UNL     1      -6.869  -5.246   2.752  0.00  0.00    +0.135 C 
BRANCH  22  23
ATOM     23  N   UNL     1      -7.755  -6.318   2.292  0.00  0.00    -0.298 N 
ATOM     24  C   UNL     1      -7.999  -6.466   0.964  0.00  0.00    +0.202 A 
ATOM     25  N   UNL     1      -8.771  -7.391   0.479  0.00  0.00    -0.237 NA
ATOM     26  C   UNL     1      -9.397  -8.288   1.281  0.00  0.00    +0.078 A 
ATOM     27  C   UNL     1     -10.227  -9.283   0.759  0.00  0.00    +0.029 A 
ATOM     28  C   UNL     1     -10.842 -10.173   1.610  0.00  0.00    +0.017 A 
ATOM     29  C   UNL     1     -10.648 -10.095   2.983  0.00  0.00    +0.019 A 
ATOM     30  C   UNL     1      -9.834  -9.121   3.522  0.00  0.00    +0.030 A 
ATOM     31  C   UNL     1      -9.201  -8.211   2.678  0.00  0.00    +0.066 A 
ATOM     32  C   UNL     1      -8.318  -7.156   3.194  0.00  0.00    +0.262 A 
ATOM     33  O   UNL     1      -8.104  -7.037   4.387  0.00  0.00    -0.267 OA
ATOM     34 BR   UNL     1     -11.509 -11.333   4.124  0.00  0.00    -0.050 Br
ENDBRANCH  22  23
ENDBRANCH  21  22
ENDBRANCH   2  21
TORSDOF 7
