REMARK  Name = ZINC19529636
REMARK  10 active torsions:
REMARK  status: ('A' for Active; 'I' for Inactive)
REMARK    1  A    between atoms: C_1  and  C_2
REMARK    2  A    between atoms: C_2  and  O_3
REMARK    3  A    between atoms: O_3  and  C_4
REMARK    4  A    between atoms: C_4  and  C_6
REMARK    5  A    between atoms: C_6  and  C_32
REMARK    6  A    between atoms: C_11  and  C_14
REMARK    7  A    between atoms: C_17  and  O_20
REMARK    8  A    between atoms: N_23  and  C_26
REMARK    9  A    between atoms: C_32  and  C_33
REMARK   10  A    between atoms: C_36  and  O_39
REMARK                            x       y       z     vdW  Elec       q    Type
REMARK                         _______ _______ _______ _____ _____    ______ ____
ROOT
ATOM      1  C   UNL     1       1.515  -2.304  -2.582  0.00  0.00    +0.133 C 
ATOM      2  C   UNL     1       2.192  -3.636  -2.199  0.00  0.00    +0.121 C 
ATOM      3  C   UNL     1       3.506  -3.667  -3.024  0.00  0.00    +0.111 C 
ATOM      4  C   UNL     1       3.491  -2.358  -3.842  0.00  0.00    +0.098 C 
ATOM      5  N   UNL     1       2.626  -1.437  -3.050  0.00  0.00    -0.293 NA
ATOM      6  C   UNL     1       4.585  -3.598  -1.967  0.00  0.00    +0.232 C 
ATOM      7  O   UNL     1       5.778  -3.596  -2.183  0.00  0.00    -0.274 OA
ATOM      8  N   UNL     1       4.018  -3.537  -0.757  0.00  0.00    -0.210 N 
ATOM      9  C   UNL     1       2.665  -3.559  -0.764  0.00  0.00    +0.232 C 
ATOM     10  O   UNL     1       1.944  -3.520   0.210  0.00  0.00    -0.274 OA
ATOM     11  H   UNL     1       2.280  -0.686  -3.628  0.00  0.00    +0.124 HD
ENDROOT
BRANCH   4  12
ATOM     12  C   UNL     1       4.883  -1.790  -3.948  0.00  0.00    -0.029 A 
ATOM     13  C   UNL     1       5.420  -1.077  -2.892  0.00  0.00    +0.009 A 
ATOM     14  C   UNL     1       6.695  -0.554  -2.988  0.00  0.00    +0.046 A 
ATOM     15  C   UNL     1       7.437  -0.746  -4.144  0.00  0.00    +0.117 A 
ATOM     16  C   UNL     1       6.896  -1.462  -5.202  0.00  0.00    +0.046 A 
ATOM     17  C   UNL     1       5.622  -1.987  -5.100  0.00  0.00    +0.009 A 
BRANCH  15  18
ATOM     18  O   UNL     1       8.692  -0.232  -4.241  0.00  0.00    -0.507 OA
ATOM     19  H   UNL     1       9.386  -0.830  -3.932  0.00  0.00    +0.292 HD
ENDBRANCH  15  18
ENDBRANCH   4  12
BRANCH   8  20
ATOM     20  C   UNL     1       4.764  -3.465   0.428  0.00  0.00    +0.044 A 
ATOM     21  C   UNL     1       5.509  -2.329   0.712  0.00  0.00    +0.024 A 
ATOM     22  C   UNL     1       6.244  -2.261   1.880  0.00  0.00    +0.002 A 
ATOM     23  C   UNL     1       6.237  -3.323   2.766  0.00  0.00    +0.000 A 
ATOM     24  C   UNL     1       5.496  -4.456   2.485  0.00  0.00    +0.002 A 
ATOM     25  C   UNL     1       4.755  -4.528   1.321  0.00  0.00    +0.024 A 
ENDBRANCH   8  20
BRANCH   1  26
ATOM     26  C   UNL     1       0.841  -1.693  -1.381  0.00  0.00    +0.329 C 
ATOM     27  O   UNL     1      -0.339  -1.874  -1.193  0.00  0.00    -0.249 OA
BRANCH  26  28
ATOM     28  O   UNL     1       1.551  -0.946  -0.521  0.00  0.00    -0.464 OA
BRANCH  28  30
ATOM     29  C   UNL     1       1.814   0.416   1.458  0.00  0.00    +0.048 C 
ATOM     30  C   UNL     1       0.847  -0.398   0.596  0.00  0.00    +0.229 C 
ENDBRANCH  28  30
ENDBRANCH  26  28
ENDBRANCH   1  26
BRANCH   1  31
ATOM     31  C   UNL     1       0.501  -2.524  -3.707  0.00  0.00    +0.069 C 
BRANCH  31  32
ATOM     32  C   UNL     1      -0.026  -1.192  -4.176  0.00  0.00    -0.045 A 
ATOM     33  C   UNL     1      -1.146  -0.644  -3.578  0.00  0.00    +0.007 A 
ATOM     34  C   UNL     1      -1.632   0.576  -4.006  0.00  0.00    +0.045 A 
ATOM     35  C   UNL     1      -0.994   1.253  -5.035  0.00  0.00    +0.117 A 
ATOM     36  C   UNL     1       0.131   0.702  -5.633  0.00  0.00    +0.045 A 
ATOM     37  C   UNL     1       0.615  -0.517  -5.198  0.00  0.00    +0.007 A 
BRANCH  35  38
ATOM     38  O   UNL     1      -1.470   2.454  -5.458  0.00  0.00    -0.507 OA
ATOM     39  H   UNL     1      -1.093   3.212  -4.992  0.00  0.00    +0.292 HD
ENDBRANCH  35  38
ENDBRANCH  31  32
ENDBRANCH   1  31
TORSDOF 9
