REMARK  Name = ZINC16929403
REMARK  9 active torsions:
REMARK  status: ('A' for Active; 'I' for Inactive)
REMARK    1  A    between atoms: C_1  and  C_2
REMARK    2  A    between atoms: C_2  and  C_3
REMARK    3  A    between atoms: C_3  and  C_5
REMARK    4  A    between atoms: C_3  and  O_7
REMARK    5  A    between atoms: O_7  and  C_8
REMARK    6  A    between atoms: C_11  and  C_14
REMARK    7  A    between atoms: N_18  and  C_22
REMARK    8  A    between atoms: C_25  and  C_29
REMARK    9  A    between atoms: C_26  and  O_28
REMARK                            x       y       z     vdW  Elec       q    Type
REMARK                         _______ _______ _______ _____ _____    ______ ____
ROOT
ATOM      1  C   UNL     1       3.998  -2.274   0.587  0.00  0.00    +0.028 C 
ATOM      2  C   UNL     1       3.743  -0.951   0.757  0.00  0.00    +0.077 C 
ATOM      3  C   UNL     1       2.459  -0.225   0.701  0.00  0.00    +0.263 C 
ATOM      4  O   UNL     1       1.409  -0.799   0.476  0.00  0.00    -0.269 OA
ATOM      5  N   UNL     1       2.507   1.080   0.907  0.00  0.00    -0.223 N 
ATOM      6  C   UNL     1       3.672   1.713   1.151  0.00  0.00    +0.125 C 
ATOM      7  S   UNL     1       3.938   3.380   1.434  0.00  0.00    -0.027 S 
ATOM      8  S   UNL     1       4.871   0.390   1.109  0.00  0.00    -0.061 S 
ENDROOT
BRANCH   1  12
ATOM      9  C   UNL     1       8.002  -3.656   0.401  0.00  0.00    +0.122 A 
ATOM     10  C   UNL     1       6.971  -4.553   0.654  0.00  0.00    +0.046 A 
ATOM     11  C   UNL     1       5.669  -4.110   0.716  0.00  0.00    +0.011 A 
ATOM     12  C   UNL     1       5.384  -2.752   0.523  0.00  0.00    -0.024 A 
ATOM     13  C   UNL     1       6.426  -1.854   0.262  0.00  0.00    +0.011 A 
ATOM     14  C   UNL     1       7.725  -2.307   0.208  0.00  0.00    +0.046 A 
BRANCH   9  15
ATOM     15  O   UNL     1       9.284  -4.099   0.341  0.00  0.00    -0.477 OA
BRANCH  15  16
ATOM     16  C   UNL     1       9.487  -5.511   0.417  0.00  0.00    +0.285 C 
BRANCH  16  17
ATOM     17  C   UNL     1       9.400  -5.954   1.855  0.00  0.00    +0.396 C 
ATOM     18  O   UNL     1       9.186  -5.143   2.725  0.00  0.00    -0.242 OA
ATOM     19  O   UNL     1       9.560  -7.249   2.170  0.00  0.00    -0.242 OA
ENDBRANCH  16  17
BRANCH  16  21
ATOM     20  C   UNL     1      10.915  -5.524  -1.633  0.00  0.00    +0.008 C 
ATOM     21  C   UNL     1      10.868  -5.859  -0.141  0.00  0.00    +0.053 C 
ENDBRANCH  16  21
ENDBRANCH  15  16
ENDBRANCH   9  15
ENDBRANCH   1  12
BRANCH   5  22
ATOM     22  C   UNL     1       1.323   1.822   0.866  0.00  0.00    +0.046 A 
ATOM     23  C   UNL     1       0.731   2.115  -0.359  0.00  0.00    +0.025 A 
ATOM     24  C   UNL     1      -0.423   2.843  -0.412  0.00  0.00    +0.020 A 
ATOM     25  C   UNL     1      -1.024   3.291   0.770  0.00  0.00    +0.105 A 
ATOM     26  C   UNL     1      -0.430   2.998   2.008  0.00  0.00    +0.133 A 
ATOM     27  C   UNL     1       0.743   2.263   2.047  0.00  0.00    +0.070 A 
BRANCH  25  28
ATOM     28  C   UNL     1      -2.270   4.072   0.715  0.00  0.00    +0.390 C 
ATOM     29  O   UNL     1      -2.788   4.464   1.742  0.00  0.00    -0.240 OA
ATOM     30  O   UNL     1      -2.838   4.351  -0.475  0.00  0.00    -0.240 OA
ENDBRANCH  25  28
BRANCH  26  31
ATOM     31  O   UNL     1      -1.002   3.431   3.158  0.00  0.00    -0.506 OA
ATOM     32  H   UNL     1      -0.699   4.304   3.444  0.00  0.00    +0.292 HD
ENDBRANCH  26  31
ENDBRANCH   5  22
TORSDOF 8
