REMARK  Name = ZINC34755109
REMARK  11 active torsions:
REMARK  status: ('A' for Active; 'I' for Inactive)
REMARK    1  A    between atoms: C_1  and  C_2
REMARK    2  A    between atoms: C_4  and  C_9
REMARK    3  A    between atoms: C_12  and  C_23
REMARK    4  A    between atoms: N_19  and  C_20
REMARK    5  A    between atoms: C_20  and  C_21
REMARK    6  A    between atoms: C_20  and  C_22
REMARK    7  A    between atoms: N_25  and  C_26
REMARK    8  A    between atoms: C_29  and  O_34
REMARK    9  A    between atoms: C_30  and  O_32
REMARK   10  A    between atoms: O_32  and  C_33
REMARK   11  A    between atoms: O_34  and  C_35
REMARK                            x       y       z     vdW  Elec       q    Type
REMARK                         _______ _______ _______ _____ _____    ______ ____
ROOT
ATOM      1  C   UNL     1      -0.424  -2.886  -2.263  0.00  0.00    +0.037 C 
ATOM      2  C   UNL     1      -1.554  -3.881  -2.536  0.00  0.00    +0.024 C 
ATOM      3  C   UNL     1      -1.341  -4.535  -3.904  0.00  0.00    +0.093 C 
ATOM      4  C   UNL     1      -0.014  -5.300  -3.898  0.00  0.00    +0.122 C 
ATOM      5  N   UNL     1       1.060  -4.381  -3.495  0.00  0.00    -0.284 N 
ATOM      6  C   UNL     1       0.914  -3.631  -2.240  0.00  0.00    +0.117 C 
ATOM      7  C   UNL     1       2.158  -4.229  -4.261  0.00  0.00    +0.302 C 
ATOM      8  O   UNL     1       2.310  -4.921  -5.249  0.00  0.00    -0.253 OA
ATOM      9  N   UNL     1       3.087  -3.309  -3.933  0.00  0.00    -0.297 N 
ATOM     10  H   UNL     1       3.002  -2.808  -3.107  0.00  0.00    +0.150 HD
ENDROOT
BRANCH   1  14
ATOM     11  C   UNL     1      -1.171   1.262   0.435  0.00  0.00    +0.047 C 
ATOM     12  C   UNL     1      -1.010  -0.235   0.360  0.00  0.00    -0.015 A 
ATOM     13  C   UNL     1      -0.800  -0.847  -0.861  0.00  0.00    +0.010 A 
ATOM     14  C   UNL     1      -0.652  -2.220  -0.931  0.00  0.00    -0.042 A 
ATOM     15  C   UNL     1      -0.714  -2.982   0.222  0.00  0.00    +0.007 A 
ATOM     16  C   UNL     1      -0.923  -2.372   1.444  0.00  0.00    +0.039 A 
ATOM     17  C   UNL     1      -1.066  -0.996   1.515  0.00  0.00    +0.126 A 
ATOM     18  F   UNL     1      -1.265  -0.399   2.710  0.00  0.00    -0.205 F 
ENDBRANCH   1  14
BRANCH   3  19
ATOM     19  C   UNL     1      -1.305  -3.470  -4.970  0.00  0.00    +0.222 C 
ATOM     20  O   UNL     1      -1.436  -2.303  -4.666  0.00  0.00    -0.275 OA
ATOM     21  N   UNL     1      -1.126  -3.815  -6.260  0.00  0.00    -0.285 N 
ATOM     22  H   UNL     1      -1.095  -4.751  -6.513  0.00  0.00    +0.155 HD
BRANCH  21  23
ATOM     23  C   UNL     1      -0.985  -2.821  -7.237  0.00  0.00    +0.037 A 
ATOM     24  C   UNL     1      -0.357  -1.623  -6.923  0.00  0.00    +0.027 A 
ATOM     25  C   UNL     1      -0.216  -0.641  -7.886  0.00  0.00    +0.051 A 
ATOM     26  C   UNL     1      -0.703  -0.850  -9.167  0.00  0.00    +0.162 A 
ATOM     27  C   UNL     1      -1.333  -2.050  -9.484  0.00  0.00    +0.163 A 
ATOM     28  C   UNL     1      -1.468  -3.035  -8.521  0.00  0.00    +0.072 A 
BRANCH  27  29
ATOM     29  O   UNL     1      -1.811  -2.256 -10.741  0.00  0.00    -0.491 OA
ATOM     30  C   UNL     1      -2.446  -3.510 -10.996  0.00  0.00    +0.277 C 
ENDBRANCH  27  29
BRANCH  26  31
ATOM     31  O   UNL     1      -0.564   0.117 -10.113  0.00  0.00    -0.491 OA
ATOM     32  C   UNL     1       0.092   1.323  -9.717  0.00  0.00    +0.277 C 
ENDBRANCH  26  31
ENDBRANCH  21  23
ENDBRANCH   3  19
BRANCH   9  33
ATOM     33  C   UNL     1       4.224  -3.066  -4.824  0.00  0.00    +0.068 C 
ATOM     34  C   UNL     1       3.820  -2.059  -5.903  0.00  0.00    +0.027 C 
ATOM     35  C   UNL     1       5.395  -2.505  -4.015  0.00  0.00    +0.027 C 
ENDBRANCH   9  33
TORSDOF 6
