REMARK  Name = ZINC27811081
REMARK  10 active torsions:
REMARK  status: ('A' for Active; 'I' for Inactive)
REMARK    1  A    between atoms: C_1  and  C_2
REMARK    2  A    between atoms: C_5  and  C_8
REMARK    3  A    between atoms: N_12  and  C_16
REMARK    4  A    between atoms: C_16  and  C_17
REMARK    5  A    between atoms: C_17  and  N_18
REMARK    6  A    between atoms: C_19  and  C_21
REMARK    7  A    between atoms: C_23  and  N_30
REMARK    8  A    between atoms: C_26  and  N_27
REMARK    9  A    between atoms: N_27  and  C_28
REMARK   10  A    between atoms: N_27  and  C_29
REMARK                            x       y       z     vdW  Elec       q    Type
REMARK                         _______ _______ _______ _____ _____    ______ ____
ROOT
ATOM      1  C   UNL     1       4.181   7.904   1.911  0.00  0.00    +0.124 C 
ENDROOT
BRANCH   1   2
ATOM      2  N   UNL     1       4.476   9.334   2.036  0.00  0.00    -0.310 N 
ATOM      3  C   UNL     1       4.573   9.898   3.256  0.00  0.00    +0.246 C 
ATOM      4  O   UNL     1       4.415   9.220   4.254  0.00  0.00    -0.270 OA
ATOM      5  H   UNL     1       4.619   9.947   1.134  0.00  0.00    +0.149 HD
BRANCH   3   6
ATOM      6  C   UNL     1       4.869  11.336   3.383  0.00  0.00    +0.060 A 
ATOM      7  C   UNL     1       5.052  12.119   2.240  0.00  0.00    +0.047 A 
ATOM      8  C   UNL     1       5.329  13.463   2.365  0.00  0.00    +0.127 A 
ATOM      9  C   UNL     1       5.428  14.044   3.619  0.00  0.00    +0.034 A 
ATOM     10  C   UNL     1       5.251  13.285   4.757  0.00  0.00    +0.026 A 
ATOM     11  C   UNL     1       4.965  11.929   4.651  0.00  0.00    +0.042 A 
BRANCH  11  12
ATOM     12  N   UNL     1       4.780  11.163   5.795  0.00  0.00    -0.335 N 
ATOM     13  C   UNL     1       5.980  11.185   6.643  0.00  0.00    +0.129 C 
ATOM     14  C   UNL     1       3.598  11.612   6.543  0.00  0.00    +0.129 C 
ENDBRANCH  11  12
BRANCH   8  15
ATOM     15  N   UNL     1       5.521  14.290   1.152  0.00  0.00    +0.056 N 
ATOM     16  O   UNL     1       5.434  13.783   0.049  0.00  0.00    -0.126 OA
ATOM     17  O   UNL     1       5.766  15.479   1.259  0.00  0.00    -0.126 OA
ENDBRANCH   8  15
ENDBRANCH   3   6
ENDBRANCH   1   2
BRANCH   1  18
ATOM     18  C   UNL     1       4.127   7.523   0.430  0.00  0.00    +0.136 C 
BRANCH  18  23
ATOM     19  C   UNL     1       1.177   3.557   0.009  0.00  0.00    +0.028 C 
ATOM     20  C   UNL     1       2.343   4.243   0.104  0.00  0.00    +0.080 C 
ATOM     21  C   UNL     1       2.573   5.698   0.230  0.00  0.00    +0.260 C 
ATOM     22  O   UNL     1       1.650   6.490   0.263  0.00  0.00    -0.269 OA
ATOM     23  N   UNL     1       3.832   6.093   0.305  0.00  0.00    -0.227 N 
ATOM     24  C   UNL     1       4.851   5.211   0.267  0.00  0.00    +0.286 C 
ATOM     25  O   UNL     1       6.046   5.434   0.326  0.00  0.00    -0.262 OA
ATOM     26  S   UNL     1       4.024   3.636   0.120  0.00  0.00    -0.026 S 
BRANCH  19  31
ATOM     27  C   UNL     1       1.239  -2.064  -1.190  0.00  0.00    +0.044 C 
ATOM     28  C   UNL     1       1.223  -0.590  -0.876  0.00  0.00    -0.050 A 
ATOM     29  C   UNL     1       0.037   0.022  -0.508  0.00  0.00    +0.004 A 
ATOM     30  C   UNL     1       0.014   1.370  -0.218  0.00  0.00    +0.008 A 
ATOM     31  C   UNL     1       1.193   2.119  -0.297  0.00  0.00    -0.024 A 
ATOM     32  C   UNL     1       2.388   1.492  -0.669  0.00  0.00    +0.008 A 
ATOM     33  C   UNL     1       2.394   0.144  -0.956  0.00  0.00    +0.004 A 
ENDBRANCH  19  31
ENDBRANCH  18  23
ENDBRANCH   1  18
TORSDOF 7
