REMARK  Name = ZINC38596152
REMARK  12 active torsions:
REMARK  status: ('A' for Active; 'I' for Inactive)
REMARK    1  A    between atoms: C_1  and  C_2
REMARK    2  A    between atoms: C_2  and  C_4
REMARK    3  A    between atoms: C_2  and  N_24
REMARK    4  A    between atoms: C_4  and  C_6
REMARK    5  A    between atoms: C_4  and  N_11
REMARK    6  A    between atoms: N_14  and  C_17
REMARK    7  A    between atoms: C_17  and  C_18
REMARK    8  A    between atoms: N_24  and  S_25
REMARK    9  A    between atoms: S_25  and  C_28
REMARK   10  A    between atoms: C_31  and  C_34
REMARK   11  A    between atoms: C_34  and  C_35
REMARK   12  A    between atoms: C_34  and  C_36
REMARK                            x       y       z     vdW  Elec       q    Type
REMARK                         _______ _______ _______ _____ _____    ______ ____
ROOT
ATOM      1  C   UNL     1      -1.433  -0.534   0.013  0.00  0.00    +0.112 C 
ENDROOT
BRANCH   1   2
ATOM      2  N   UNL     1      -2.178   0.048  -1.111  0.00  0.00    -0.297 NA
ATOM      3  C   UNL     1      -1.507  -0.231  -2.389  0.00  0.00    +0.066 C 
ATOM      4  C   UNL     1      -2.281   0.441  -3.526  0.00  0.00    -0.063 C 
ATOM      5  N   UNL     1      -3.656  -0.073  -3.553  0.00  0.00    +0.384 N 
ATOM      6  C   UNL     1      -4.321   0.235  -2.280  0.00  0.00    -0.063 C 
ATOM      7  C   UNL     1      -3.565  -0.439  -1.133  0.00  0.00    +0.066 C 
ATOM      8  H   UNL     1      -3.639  -1.073  -3.690  0.00  0.00    -0.081 HD
BRANCH   5   9
ATOM      9  C   UNL     1      -4.393   0.559  -4.655  0.00  0.00    -0.043 C 
BRANCH   9  10
ATOM     10  C   UNL     1      -5.765  -0.057  -4.761  0.00  0.00    -0.064 A 
ATOM     11  C   UNL     1      -5.965  -1.166  -5.562  0.00  0.00    +0.002 A 
ATOM     12  C   UNL     1      -7.223  -1.730  -5.659  0.00  0.00    +0.000 A 
ATOM     13  C   UNL     1      -8.280  -1.187  -4.955  0.00  0.00    +0.000 A 
ATOM     14  C   UNL     1      -8.080  -0.079  -4.152  0.00  0.00    +0.000 A 
ATOM     15  C   UNL     1      -6.821   0.483  -4.052  0.00  0.00    +0.002 A 
ENDBRANCH   9  10
ENDBRANCH   5   9
ENDBRANCH   1   2
BRANCH   1  16
ATOM     16  C   UNL     1      -2.100  -0.151   1.309  0.00  0.00    +0.008 A 
ATOM     17  C   UNL     1      -2.297  -0.900   2.421  0.00  0.00    +0.013 A 
ATOM     18  C   UNL     1      -2.940  -0.334   3.506  0.00  0.00    +0.008 A 
ATOM     19  C   UNL     1      -3.354   0.954   3.425  0.00  0.00    +0.045 A 
ATOM     20  S   UNL     1      -2.829   1.409   1.781  0.00  0.00    -0.100 S 
ENDBRANCH   1  16
BRANCH   1  22
ATOM     21  C   UNL     1      -0.019   1.526   0.010  0.00  0.00    +0.027 C 
ATOM     22  C   UNL     1       0.002  -0.004   0.002  0.00  0.00    +0.095 C 
BRANCH  22  23
ATOM     23  N   UNL     1       0.711  -0.489   1.189  0.00  0.00    -0.185 NA
ATOM     24  H   UNL     1       0.236  -0.593   2.029  0.00  0.00    +0.148 HD
BRANCH  23  25
ATOM     25  S   UNL     1       2.322  -0.861   1.097  0.00  0.00    +0.059 S 
ATOM     26  O   UNL     1       2.719  -1.271   2.398  0.00  0.00    -0.153 OA
ATOM     27  O   UNL     1       2.483  -1.690  -0.045  0.00  0.00    -0.153 OA
BRANCH  25  28
ATOM     28  C   UNL     1       3.183   0.638   0.757  0.00  0.00    +0.105 A 
ATOM     29  C   UNL     1       3.403   1.027  -0.551  0.00  0.00    +0.029 A 
ATOM     30  C   UNL     1       4.079   2.203  -0.819  0.00  0.00    +0.006 A 
ATOM     31  C   UNL     1       4.535   2.990   0.222  0.00  0.00    -0.045 A 
ATOM     32  C   UNL     1       4.315   2.601   1.530  0.00  0.00    +0.006 A 
ATOM     33  C   UNL     1       3.635   1.427   1.798  0.00  0.00    +0.029 A 
BRANCH  31  34
ATOM     34  C   UNL     1       5.273   4.271  -0.069  0.00  0.00    +0.013 C 
ATOM     35  C   UNL     1       4.511   5.449   0.543  0.00  0.00    +0.012 C 
ATOM     36  C   UNL     1       6.676   4.201   0.538  0.00  0.00    +0.012 C 
ENDBRANCH  31  34
ENDBRANCH  25  28
ENDBRANCH  23  25
ENDBRANCH  22  23
ENDBRANCH   1  22
TORSDOF 9
