REMARK  Name = ZINC32944169
REMARK  10 active torsions:
REMARK  status: ('A' for Active; 'I' for Inactive)
REMARK    1  A    between atoms: C_1  and  C_2
REMARK    2  A    between atoms: C_5  and  C_37
REMARK    3  A    between atoms: C_6  and  C_8
REMARK    4  A    between atoms: C_9  and  C_10
REMARK    5  A    between atoms: C_11  and  S_16
REMARK    6  A    between atoms: C_12  and  C_15
REMARK    7  A    between atoms: S_16  and  N_19
REMARK    8  A    between atoms: C_23  and  C_26
REMARK    9  A    between atoms: N_28  and  C_29
REMARK   10  A    between atoms: C_29  and  C_30
REMARK                            x       y       z     vdW  Elec       q    Type
REMARK                         _______ _______ _______ _____ _____    ______ ____
ROOT
ATOM      1  S   UNL     1      -4.979   1.433  -0.921  0.00  0.00    +0.066 S 
ATOM      2  O   UNL     1      -4.778   0.150  -1.498  0.00  0.00    -0.153 OA
ATOM      3  O   UNL     1      -6.181   1.789  -0.253  0.00  0.00    -0.153 OA
ENDROOT
BRANCH   1   5
ATOM      4  C   UNL     1      -5.263   3.882  -2.300  0.00  0.00    +0.187 A 
ATOM      5  C   UNL     1      -4.756   2.608  -2.216  0.00  0.00    +0.174 A 
ATOM      6  C   UNL     1      -4.022   2.457  -3.408  0.00  0.00    +0.107 A 
ATOM      7  N   UNL     1      -4.137   3.579  -4.062  0.00  0.00    -0.081 NA
ATOM      8  O   UNL     1      -4.816   4.383  -3.468  0.00  0.00    -0.353 OA
ATOM      9  C   UNL     1      -3.252   1.237  -3.843  0.00  0.00    +0.071 C 
BRANCH   4  11
ATOM     10  C   UNL     1      -6.533   5.819  -1.546  0.00  0.00    +0.012 C 
ATOM     11  C   UNL     1      -6.114   4.559  -1.318  0.00  0.00    +0.051 C 
BRANCH  10  17
ATOM     12  C   UNL     1      -8.976   5.778   2.802  0.00  0.00    +0.044 C 
ATOM     13  C   UNL     1      -8.567   6.485   1.535  0.00  0.00    -0.050 A 
ATOM     14  C   UNL     1      -8.997   7.779   1.298  0.00  0.00    +0.003 A 
ATOM     15  C   UNL     1      -8.627   8.437   0.138  0.00  0.00    +0.004 A 
ATOM     16  C   UNL     1      -7.826   7.806  -0.791  0.00  0.00    -0.043 A 
ATOM     17  C   UNL     1      -7.388   6.499  -0.558  0.00  0.00    -0.022 A 
ATOM     18  C   UNL     1      -7.772   5.839   0.613  0.00  0.00    +0.011 A 
ATOM     19  C   UNL     1      -7.423   8.524  -2.053  0.00  0.00    +0.044 C 
ENDBRANCH  10  17
ENDBRANCH   4  11
ENDBRANCH   1   5
BRANCH   1  20
ATOM     20  N   UNL     1      -3.749   1.662   0.164  0.00  0.00    -0.176 NA
ATOM     21  C   UNL     1      -3.905   2.597   1.287  0.00  0.00    +0.109 C 
ATOM     22  C   UNL     1      -2.738   3.589   1.268  0.00  0.00    +0.018 C 
ATOM     23  C   UNL     1      -1.417   2.816   1.274  0.00  0.00    +0.015 C 
ATOM     24  C   UNL     1      -1.330   1.944   0.019  0.00  0.00    +0.091 C 
ATOM     25  C   UNL     1      -2.481   0.934   0.023  0.00  0.00    +0.122 C 
BRANCH  24  26
ATOM     26  C   UNL     1      -0.014   1.209   0.009  0.00  0.00    +0.218 C 
ATOM     27  O   UNL     1       0.002  -0.004   0.002  0.00  0.00    -0.275 OA
ATOM     28  N   UNL     1       1.143   1.898   0.001  0.00  0.00    -0.311 N 
ATOM     29  H   UNL     1       1.129   2.998   0.007  0.00  0.00    +0.149 HD
BRANCH  28  30
ATOM     30  C   UNL     1       2.422   1.183  -0.015  0.00  0.00    +0.139 C 
BRANCH  30  31
ATOM     31  C   UNL     1       3.554   2.178  -0.020  0.00  0.00    -0.030 A 
ATOM     32  C   UNL     1       4.065   2.636  -1.220  0.00  0.00    +0.006 A 
ATOM     33  C   UNL     1       5.100   3.553  -1.226  0.00  0.00    +0.020 A 
ATOM     34  C   UNL     1       5.631   4.003  -0.030  0.00  0.00    +0.041 A 
ATOM     35  C   UNL     1       5.123   3.540   1.170  0.00  0.00    +0.020 A 
ATOM     36  C   UNL     1       4.084   2.628   1.175  0.00  0.00    +0.006 A 
ATOM     37 CL   UNL     1       6.935   5.150  -0.036  0.00  0.00    -0.084 Cl
ENDBRANCH  30  31
ENDBRANCH  28  30
ENDBRANCH  24  26
ENDBRANCH   1  20
TORSDOF 7
