REMARK  Name = ZINC09157989
REMARK  12 active torsions:
REMARK  status: ('A' for Active; 'I' for Inactive)
REMARK    1  A    between atoms: C_1  and  C_2
REMARK    2  A    between atoms: C_7  and  N_12
REMARK    3  A    between atoms: C_9  and  C_11
REMARK    4  A    between atoms: C_18  and  C_20
REMARK    5  A    between atoms: C_18  and  C_21
REMARK    6  A    between atoms: C_22  and  C_25
REMARK    7  A    between atoms: C_22  and  N_29
REMARK    8  A    between atoms: C_30  and  C_32
REMARK    9  A    between atoms: C_35  and  O_38
REMARK   10  A    between atoms: O_38  and  C_39
REMARK   11  A    between atoms: C_39  and  C_40
REMARK   12  A    between atoms: C_39  and  C_41
REMARK                            x       y       z     vdW  Elec       q    Type
REMARK                         _______ _______ _______ _____ _____    ______ ____
ROOT
ATOM      1  N   UNL     1      -2.167  -1.677  -1.880  0.00  0.00    -0.269 N 
ATOM      2  C   UNL     1      -1.488  -2.666  -1.243  0.00  0.00    +0.024 C 
ATOM      3  C   UNL     1      -0.933  -2.217  -0.080  0.00  0.00    +0.053 C 
ATOM      4  C   UNL     1      -0.171  -3.023   0.774  0.00  0.00    +0.164 C 
ATOM      5  O   UNL     1       0.281  -2.582   1.812  0.00  0.00    -0.292 OA
ATOM      6  C   UNL     1       0.071  -4.460   0.365  0.00  0.00    +0.086 C 
ATOM      7  C   UNL     1      -1.119  -4.972  -0.448  0.00  0.00    -0.023 C 
ATOM      8  C   UNL     1      -1.327  -4.104  -1.693  0.00  0.00    +0.058 C 
ATOM      9  C   UNL     1      -2.380  -4.927   0.418  0.00  0.00    +0.011 C 
ATOM     10  C   UNL     1      -0.850  -6.416  -0.876  0.00  0.00    +0.011 C 
ATOM     11  C   UNL     1      -1.305  -0.766   0.041  0.00  0.00    +0.237 C 
ATOM     12  C   UNL     1      -2.127  -0.508  -1.210  0.00  0.00    +0.257 C 
ATOM     13  O   UNL     1      -2.643   0.538  -1.539  0.00  0.00    -0.272 OA
ENDROOT
BRANCH   1  19
ATOM     14  C   UNL     1      -1.846   1.478  -4.780  0.00  0.00    +0.008 C 
ATOM     15  C   UNL     1      -2.439   0.533  -3.733  0.00  0.00    -0.009 C 
ATOM     16  C   UNL     1      -3.925   0.843  -3.548  0.00  0.00    +0.003 C 
ATOM     17  C   UNL     1      -4.518  -0.103  -2.501  0.00  0.00    +0.002 C 
ATOM     18  C   UNL     1      -4.353  -1.550  -2.970  0.00  0.00    +0.023 C 
ATOM     19  C   UNL     1      -2.866  -1.860  -3.154  0.00  0.00    +0.084 C 
ATOM     20  C   UNL     1      -2.274  -0.915  -4.201  0.00  0.00    +0.010 C 
ATOM     21  C   UNL     1      -0.787  -1.225  -4.386  0.00  0.00    +0.009 C 
ENDBRANCH   1  19
BRANCH  11  22
ATOM     22  C   UNL     1      -2.145  -0.527   1.297  0.00  0.00    +0.424 C 
ATOM     23  F   UNL     1      -2.521   0.820   1.358  0.00  0.00    -0.167 F 
ATOM     24  F   UNL     1      -3.290  -1.329   1.252  0.00  0.00    -0.167 F 
ATOM     25  F   UNL     1      -1.392  -0.852   2.431  0.00  0.00    -0.167 F 
ENDBRANCH  11  22
BRANCH  11  26
ATOM     26  N   UNL     1      -0.106   0.076   0.055  0.00  0.00    -0.287 N 
ATOM     27  C   UNL     1      -0.225   1.417   0.111  0.00  0.00    +0.245 C 
ATOM     28  O   UNL     1      -1.328   1.929   0.145  0.00  0.00    -0.270 OA
ATOM     29  H   UNL     1       0.773  -0.332   0.024  0.00  0.00    +0.151 HD
BRANCH  27  30
ATOM     30  C   UNL     1       0.983   2.266   0.124  0.00  0.00    +0.037 A 
ATOM     31  C   UNL     1       2.251   1.680   0.086  0.00  0.00    +0.016 A 
ATOM     32  C   UNL     1       3.375   2.475   0.094  0.00  0.00    +0.046 A 
ATOM     33  C   UNL     1       3.250   3.858   0.151  0.00  0.00    +0.121 A 
ATOM     34  C   UNL     1       1.991   4.444   0.196  0.00  0.00    +0.046 A 
ATOM     35  C   UNL     1       0.861   3.656   0.182  0.00  0.00    +0.016 A 
BRANCH  33  36
ATOM     36  O   UNL     1       4.361   4.638   0.164  0.00  0.00    -0.489 OA
BRANCH  36  37
ATOM     37  C   UNL     1       4.165   6.042   0.344  0.00  0.00    +0.167 C 
ATOM     38  C   UNL     1       5.431   6.660   0.940  0.00  0.00    +0.051 C 
ATOM     39  C   UNL     1       3.868   6.693  -1.009  0.00  0.00    +0.051 C 
ENDBRANCH  36  37
ENDBRANCH  33  36
ENDBRANCH  27  30
ENDBRANCH  11  26
TORSDOF 6
