REMARK  Name = ZINC03389021
REMARK  14 active torsions:
REMARK  status: ('A' for Active; 'I' for Inactive)
REMARK    1  A    between atoms: C_1  and  C_2
REMARK    2  A    between atoms: C_2  and  C_3
REMARK    3  A    between atoms: C_2  and  C_4
REMARK    4  A    between atoms: C_4  and  N_5
REMARK    5  A    between atoms: C_6  and  N_29
REMARK    6  A    between atoms: C_7  and  N_14
REMARK    7  A    between atoms: N_14  and  C_15
REMARK    8  A    between atoms: C_15  and  C_16
REMARK    9  A    between atoms: C_16  and  C_17
REMARK   10  A    between atoms: C_16  and  C_18
REMARK   11  A    between atoms: C_19  and  C_21
REMARK   12  A    between atoms: C_21  and  N_66
REMARK   13  A    between atoms: C_22  and  N_66
REMARK   14  A    between atoms: C_23  and  N_66
REMARK                            x       y       z     vdW  Elec       q    Type
REMARK                         _______ _______ _______ _____ _____    ______ ____
ROOT
ATOM      1  N   UNL     1      -0.755   1.782   0.688  0.00  0.00    -0.266 N 
ATOM      2  C   UNL     1      -1.741   1.177   1.383  0.00  0.00    +0.203 C 
ATOM      3  O   UNL     1      -2.267   1.750   2.315  0.00  0.00    -0.277 OA
ENDROOT
BRANCH   1   6
ATOM      4  N   UNL     1       1.502   4.420   1.892  0.00  0.00    -0.280 N 
ATOM      5  C   UNL     1       1.052   3.182   1.494  0.00  0.00    +0.127 A 
ATOM      6  C   UNL     1      -0.265   3.037   1.107  0.00  0.00    +0.140 A 
ATOM      7  C   UNL     1      -1.112   4.161   1.144  0.00  0.00    +0.277 A 
ATOM      8  O   UNL     1      -2.281   4.059   0.813  0.00  0.00    -0.266 OA
ATOM      9  N   UNL     1      -0.622   5.349   1.548  0.00  0.00    -0.273 N 
ATOM     10  H   UNL     1      -1.222   6.148   1.574  0.00  0.00    +0.173 HD
ATOM     11  C   UNL     1       0.666   5.473   1.915  0.00  0.00    +0.331 A 
ATOM     12  O   UNL     1       1.082   6.558   2.275  0.00  0.00    -0.246 OA
BRANCH   5  13
ATOM     13  N   UNL     1       1.905   2.105   1.475  0.00  0.00    -0.343 N 
ATOM     14  H   UNL     1       1.583   1.236   1.187  0.00  0.00    +0.144 HD
ATOM     15  H   UNL     1       2.829   2.213   1.751  0.00  0.00    +0.144 HD
ENDBRANCH   5  13
BRANCH   4  16
ATOM     16  C   UNL     1       2.899   4.590   2.300  0.00  0.00    +0.131 C 
BRANCH  16  18
ATOM     17  C   UNL     1       2.693   2.871   4.101  0.00  0.00    +0.009 C 
ATOM     18  C   UNL     1       3.026   4.334   3.803  0.00  0.00    +0.003 C 
ATOM     19  C   UNL     1       4.459   4.632   4.251  0.00  0.00    +0.009 C 
ENDBRANCH  16  18
ENDBRANCH   4  16
ENDBRANCH   1   6
BRANCH   1  20
ATOM     20  C   UNL     1      -0.195   1.137  -0.502  0.00  0.00    +0.117 C 
BRANCH  20  21
ATOM     21  C   UNL     1      -1.069   1.460  -1.716  0.00  0.00    +0.001 C 
ATOM     22  C   UNL     1      -1.012   2.962  -2.000  0.00  0.00    +0.009 C 
ATOM     23  C   UNL     1      -0.554   0.690  -2.934  0.00  0.00    +0.009 C 
ENDBRANCH  20  21
ENDBRANCH   1  20
BRANCH   2  24
ATOM     24  C   UNL     1      -2.187  -0.212   1.004  0.00  0.00    +0.019 C 
BRANCH  24  26
ATOM     25  C   UNL     1      -2.767  -0.800   3.280  0.00  0.00    -0.095 C 
ATOM     26  N   UNL     1      -3.283  -0.624   1.906  0.00  0.00    +0.385 N 
ATOM     27  H   UNL     1      -4.003   0.108   1.912  0.00  0.00    -0.081 HD
BRANCH  26  28
ATOM     28  C   UNL     1      -3.885  -1.885   1.426  0.00  0.00    -0.068 C 
ATOM     29  C   UNL     1      -4.476  -1.655   0.034  0.00  0.00    -0.015 C 
ATOM     30  C   UNL     1      -5.123  -2.948  -0.466  0.00  0.00    -0.002 C 
ATOM     31  C   UNL     1      -6.236  -3.366   0.497  0.00  0.00    -0.000 C 
ATOM     32  C   UNL     1      -5.646  -3.596   1.890  0.00  0.00    -0.002 C 
ATOM     33  C   UNL     1      -4.998  -2.303   2.389  0.00  0.00    -0.015 C 
ENDBRANCH  26  28
ENDBRANCH  24  26
ENDBRANCH   2  24
TORSDOF 9
