REMARK  Name = ZINC32857478
REMARK  5 active torsions:
REMARK  status: ('A' for Active; 'I' for Inactive)
REMARK    1  A    between atoms: C_1  and  C_2
REMARK    2  A    between atoms: C_2  and  C_4
REMARK    3  A    between atoms: C_2  and  N_14
REMARK    4  A    between atoms: C_15  and  C_17
REMARK    5  A    between atoms: C_17  and  C_18
REMARK                            x       y       z     vdW  Elec       q    Type
REMARK                         _______ _______ _______ _____ _____    ______ ____
ROOT
ATOM      1  N   UNL     1       1.143   1.898   0.001  0.00  0.00    -0.306 N 
ATOM      2  C   UNL     1      -0.014   1.209   0.009  0.00  0.00    +0.215 C 
ATOM      3  O   UNL     1       0.002  -0.004   0.002  0.00  0.00    -0.276 OA
ATOM      4  H   UNL     1       1.129   2.998   0.007  0.00  0.00    +0.149 HD
ENDROOT
BRANCH   1   6
ATOM      5  C   UNL     1       2.792   0.832  -1.457  0.00  0.00    +0.036 C 
ATOM      6  C   UNL     1       2.422   1.183  -0.015  0.00  0.00    +0.136 C 
BRANCH   6   7
ATOM      7  C   UNL     1       3.495   2.058   0.580  0.00  0.00    +0.128 A 
ATOM      8  N   UNL     1       4.635   1.604   1.167  0.00  0.00    -0.340 N 
ATOM      9  H   UNL     1       4.826   0.523   1.234  0.00  0.00    +0.167 HD
ATOM     10  C   UNL     1       5.353   2.709   1.579  0.00  0.00    +0.066 A 
ATOM     11  C   UNL     1       6.570   2.886   2.224  0.00  0.00    +0.028 A 
ATOM     12  C   UNL     1       7.014   4.160   2.506  0.00  0.00    +0.002 A 
ATOM     13  C   UNL     1       6.254   5.265   2.149  0.00  0.00    +0.002 A 
ATOM     14  C   UNL     1       5.055   5.110   1.514  0.00  0.00    +0.030 A 
ATOM     15  C   UNL     1       4.584   3.828   1.218  0.00  0.00    +0.089 A 
ATOM     16  N   UNL     1       3.463   3.359   0.613  0.00  0.00    -0.231 NA
ENDBRANCH   6   7
ENDBRANCH   1   6
BRANCH   2  17
ATOM     17  C   UNL     1      -1.330   1.944   0.019  0.00  0.00    +0.119 C 
BRANCH  17  18
ATOM     18  C   UNL     1      -2.479   0.934   0.019  0.00  0.00    +0.146 C 
ATOM     19  C   UNL     1      -3.792   1.661   0.153  0.00  0.00    +0.231 C 
ATOM     20  O   UNL     1      -4.306   1.727   1.249  0.00  0.00    -0.274 OA
ATOM     21  N   UNL     1      -4.414   2.234  -0.873  0.00  0.00    -0.284 N 
ATOM     22  C   UNL     1      -4.042   2.165  -2.212  0.00  0.00    +0.048 A 
ATOM     23  C   UNL     1      -4.572   3.086  -3.111  0.00  0.00    +0.044 A 
ATOM     24  C   UNL     1      -4.213   3.042  -4.445  0.00  0.00    +0.043 A 
ATOM     25  C   UNL     1      -3.325   2.084  -4.901  0.00  0.00    +0.021 A 
ATOM     26  C   UNL     1      -2.793   1.162  -4.019  0.00  0.00    +0.018 A 
ATOM     27  C   UNL     1      -3.152   1.199  -2.682  0.00  0.00    +0.030 A 
ATOM     28  S   UNL     1      -2.486   0.017  -1.552  0.00  0.00    -0.110 S 
ATOM     29 CL   UNL     1      -4.883   4.196  -5.556  0.00  0.00    -0.083 Cl
ATOM     30  H   UNL     1      -5.319   2.835  -0.701  0.00  0.00    +0.155 HD
ENDBRANCH  17  18
ENDBRANCH   2  17
TORSDOF 4
