REMARK  Name = ZINC40327351
REMARK  7 active torsions:
REMARK  status: ('A' for Active; 'I' for Inactive)
REMARK    1  A    between atoms: C_1  and  C_2
REMARK    2  A    between atoms: C_3  and  N_9
REMARK    3  A    between atoms: C_4  and  C_8
REMARK    4  A    between atoms: N_5  and  C_7
REMARK    5  A    between atoms: N_9  and  S_10
REMARK    6  A    between atoms: S_10  and  C_13
REMARK    7  A    between atoms: C_14  and  N_21
REMARK                            x       y       z     vdW  Elec       q    Type
REMARK                         _______ _______ _______ _____ _____    ______ ____
ROOT
ATOM      1  S   UNL     1      -0.083   1.522  -3.168  0.00  0.00    +0.075 S 
ATOM      2  O   UNL     1      -0.191   1.642  -4.580  0.00  0.00    -0.150 OA
ATOM      3  O   UNL     1      -0.831   2.334  -2.274  0.00  0.00    -0.150 OA
ENDROOT
BRANCH   1   4
ATOM      4  C   UNL     1       1.616   1.769  -2.771  0.00  0.00    +0.143 A 
ATOM      5  C   UNL     1       1.978   2.188  -1.497  0.00  0.00    +0.054 A 
ATOM      6  C   UNL     1       3.318   2.382  -1.187  0.00  0.00    +0.040 A 
ATOM      7  C   UNL     1       4.287   2.157  -2.147  0.00  0.00    +0.021 A 
ATOM      8  C   UNL     1       3.924   1.740  -3.415  0.00  0.00    +0.032 A 
ATOM      9  C   UNL     1       2.590   1.541  -3.725  0.00  0.00    +0.047 A 
ATOM     10 BR   UNL     1       2.098   0.964  -5.457  0.00  0.00    -0.048 Br
ATOM     11 BR   UNL     1       6.112   2.420  -1.727  0.00  0.00    -0.050 Br
BRANCH   5  12
ATOM     12  N   UNL     1       0.997   2.415  -0.529  0.00  0.00    -0.356 N 
ATOM     13  H   UNL     1       0.101   2.066  -0.657  0.00  0.00    +0.142 HD
ATOM     14  H   UNL     1       1.212   2.920   0.270  0.00  0.00    +0.142 HD
ENDBRANCH   5  12
ENDBRANCH   1   4
BRANCH   1  15
ATOM     15  N   UNL     1      -0.448  -0.050  -2.797  0.00  0.00    -0.213 N 
ATOM     16  H   UNL     1      -0.655  -0.680  -3.506  0.00  0.00    +0.174 HD
BRANCH  15  19
ATOM     17  C   UNL     1      -2.251   1.177  -0.574  0.00  0.00    +0.069 C 
ATOM     18  C   UNL     1      -1.255   0.055  -0.429  0.00  0.00    +0.082 A 
ATOM     19  C   UNL     1      -0.458  -0.473  -1.454  0.00  0.00    +0.091 A 
ATOM     20  C   UNL     1       0.301  -1.464  -0.923  0.00  0.00    +0.058 A 
ATOM     21  N   UNL     1      -0.009  -1.556   0.398  0.00  0.00    -0.270 N 
ATOM     22  N   UNL     1      -0.982  -0.588   0.678  0.00  0.00    -0.175 NA
ATOM     23  C   UNL     1       0.574  -2.496   1.358  0.00  0.00    +0.172 C 
ATOM     24  C   UNL     1       1.306  -2.309  -1.662  0.00  0.00    +0.067 C 
ENDBRANCH  15  19
ENDBRANCH   1  15
TORSDOF 4
