REMARK  Name = ZINC62533172
REMARK  3 active torsions:
REMARK  status: ('A' for Active; 'I' for Inactive)
REMARK    1  A    between atoms: C_1  and  C_2
REMARK    2  A    between atoms: C_2  and  C_16
REMARK    3  A    between atoms: C_6  and  N_15
REMARK                            x       y       z     vdW  Elec       q    Type
REMARK                         _______ _______ _______ _____ _____    ______ ____
ROOT
ATOM      1  C   UNL     1      -0.019   1.526   0.010  0.00  0.00    +0.024 C 
ATOM      2  C   UNL     1       0.002  -0.004   0.002  0.00  0.00    +0.076 C 
ATOM      3  C   UNL     1      -1.426  -0.531   0.123  0.00  0.00    +0.244 C 
ATOM      4  O   UNL     1      -1.889  -0.410   1.466  0.00  0.00    -0.487 OA
ATOM      5  C   UNL     1      -1.619   0.755   2.114  0.00  0.00    +0.162 A 
ATOM      6  C   UNL     1      -2.621   1.698   2.315  0.00  0.00    +0.070 A 
ATOM      7  C   UNL     1      -2.330   2.885   2.974  0.00  0.00    +0.046 A 
ATOM      8  C   UNL     1      -1.048   3.130   3.431  0.00  0.00    +0.045 A 
ATOM      9  C   UNL     1      -0.049   2.194   3.235  0.00  0.00    +0.047 A 
ATOM     10  C   UNL     1      -0.332   1.005   2.579  0.00  0.00    +0.079 A 
ATOM     11  N   UNL     1       0.668   0.042   2.383  0.00  0.00    -0.282 N 
ATOM     12  C   UNL     1       0.835  -0.499   1.156  0.00  0.00    +0.226 C 
ATOM     13  O   UNL     1       1.653  -1.379   0.984  0.00  0.00    -0.275 OA
ATOM     14 CL   UNL     1      -0.691   4.618   4.252  0.00  0.00    -0.083 Cl
ATOM     15  C   UNL     1       0.612  -0.496  -1.312  0.00  0.00    +0.024 C 
ATOM     16  H   UNL     1       1.234  -0.233   3.121  0.00  0.00    +0.155 HD
ENDROOT
BRANCH   6  17
ATOM     17  N   UNL     1      -3.919   1.452   1.852  0.00  0.00    -0.355 N 
ATOM     18  H   UNL     1      -4.121   0.623   1.391  0.00  0.00    +0.142 HD
ATOM     19  H   UNL     1      -4.617   2.111   1.992  0.00  0.00    +0.142 HD
ENDBRANCH   6  17
TORSDOF 1
