REMARK  Name = ZINC64410318
REMARK  5 active torsions:
REMARK  status: ('A' for Active; 'I' for Inactive)
REMARK    1  A    between atoms: C_7  and  C_10
REMARK    2  A    between atoms: C_10  and  C_11
REMARK    3  A    between atoms: C_11  and  N_12
REMARK    4  A    between atoms: C_13  and  C_15
REMARK    5  A    between atoms: C_25  and  C_28
REMARK                            x       y       z     vdW  Elec       q    Type
REMARK                         _______ _______ _______ _____ _____    ______ ____
ROOT
ATOM      1  C   UNL     1      -1.460  -6.577  -2.513  0.00  0.00    +0.092 C 
ATOM      2  C   UNL     1      -1.876  -6.909  -3.947  0.00  0.00    +0.016 C 
ATOM      3  C   UNL     1      -3.020  -7.925  -3.926  0.00  0.00    +0.020 C 
ATOM      4  C   UNL     1      -2.541  -9.214  -3.251  0.00  0.00    +0.106 C 
ATOM      5  N   UNL     1      -2.005  -8.882  -1.925  0.00  0.00    -0.313 N 
ATOM      6  C   UNL     1      -0.963  -7.851  -1.821  0.00  0.00    +0.119 C 
ATOM      7  C   UNL     1      -2.474  -9.531  -0.788  0.00  0.00    +0.144 A 
ATOM      8  C   UNL     1      -3.297 -10.652  -0.913  0.00  0.00    +0.047 A 
ATOM      9  C   UNL     1      -3.740 -11.266   0.244  0.00  0.00    +0.034 A 
ATOM     10  C   UNL     1      -3.334 -10.724   1.472  0.00  0.00    +0.100 A 
ATOM     11  N   UNL     1      -2.549  -9.653   1.492  0.00  0.00    -0.147 NA
ATOM     12  N   UNL     1      -2.136  -9.090   0.415  0.00  0.00    -0.134 NA
ENDROOT
BRANCH  10  13
ATOM     13  C   UNL     1      -3.779 -11.341   2.738  0.00  0.00    +0.039 A 
ATOM     14  C   UNL     1      -3.502 -10.964   4.025  0.00  0.00    +0.018 A 
ATOM     15  C   UNL     1      -4.036 -11.701   5.060  0.00  0.00    +0.008 A 
ATOM     16  C   UNL     1      -4.817 -12.774   4.774  0.00  0.00    +0.046 A 
ATOM     17  S   UNL     1      -4.825 -12.766   2.988  0.00  0.00    -0.095 S 
ENDBRANCH  10  13
BRANCH   1  19
ATOM     18  N   UNL     1       0.174  -5.108  -1.376  0.00  0.00    -0.315 N 
ATOM     19  C   UNL     1      -0.355  -5.553  -2.534  0.00  0.00    +0.218 C 
ATOM     20  O   UNL     1       0.059  -5.129  -3.592  0.00  0.00    -0.275 OA
ATOM     21  H   UNL     1      -0.157  -5.447  -0.530  0.00  0.00    +0.149 HD
BRANCH  18  22
ATOM     22  C   UNL     1       1.248  -4.112  -1.397  0.00  0.00    +0.108 C 
BRANCH  22  23
ATOM     23  C   UNL     1       1.665  -3.782   0.038  0.00  0.00    +0.052 C 
BRANCH  23  30
ATOM     24  C   UNL     1       1.657   0.794   0.384  0.00  0.00    +0.001 A 
ATOM     25  C   UNL     1       2.935   1.365   0.312  0.00  0.00    +0.002 A 
ATOM     26  C   UNL     1       4.055   0.628   0.157  0.00  0.00    +0.026 A 
ATOM     27  C   UNL     1       3.976  -0.788   0.057  0.00  0.00    +0.043 A 
ATOM     28  N   UNL     1       4.900  -1.706  -0.095  0.00  0.00    -0.380 N 
ATOM     29  C   UNL     1       4.251  -3.021  -0.136  0.00  0.00    +0.144 C 
ATOM     30  C   UNL     1       2.770  -2.757   0.017  0.00  0.00    -0.040 C 
ATOM     31  C   UNL     1       2.637  -1.416   0.130  0.00  0.00    -0.001 A 
ATOM     32  C   UNL     1       1.470  -0.543   0.300  0.00  0.00    +0.010 A 
ATOM     33  H   UNL     1       5.853  -1.542  -0.168  0.00  0.00    +0.160 HD
ENDBRANCH  23  30
ENDBRANCH  22  23
ENDBRANCH  18  22
ENDBRANCH   1  19
TORSDOF 5
