REMARK  Name = ZINC39695388
REMARK  11 active torsions:
REMARK  status: ('A' for Active; 'I' for Inactive)
REMARK    1  A    between atoms: C_1  and  C_2
REMARK    2  A    between atoms: C_2  and  C_3
REMARK    3  A    between atoms: C_3  and  C_5
REMARK    4  A    between atoms: C_3  and  N_11
REMARK    5  A    between atoms: C_12  and  C_14
REMARK    6  A    between atoms: C_25  and  C_27
REMARK    7  A    between atoms: C_27  and  C_29
REMARK    8  A    between atoms: C_27  and  O_32
REMARK    9  A    between atoms: C_29  and  C_30
REMARK   10  A    between atoms: C_29  and  C_31
REMARK   11  A    between atoms: O_32  and  C_33
REMARK                            x       y       z     vdW  Elec       q    Type
REMARK                         _______ _______ _______ _____ _____    ______ ____
ROOT
ATOM      1  C   UNL     1      -2.621   1.096   3.410  0.00  0.00    +0.100 C 
ATOM      2  C   UNL     1      -3.767   0.071   3.558  0.00  0.00    +0.121 C 
ATOM      3  N   UNL     1      -4.943   0.878   3.959  0.00  0.00    -0.297 N 
ATOM      4  C   UNL     1      -4.831   2.118   3.153  0.00  0.00    +0.115 C 
ATOM      5  C   UNL     1      -3.323   2.438   3.144  0.00  0.00    -0.004 C 
ATOM      6  C   UNL     1      -2.990   3.437   4.247  0.00  0.00    -0.010 C 
ATOM      7  C   UNL     1      -3.653   4.780   3.931  0.00  0.00    -0.082 C 
ATOM      8  N   UNL     1      -3.172   5.273   2.635  0.00  0.00    +0.379 N 
ATOM      9  C   UNL     1      -3.577   4.352   1.567  0.00  0.00    -0.082 C 
ATOM     10  C   UNL     1      -2.911   2.991   1.783  0.00  0.00    -0.010 C 
ATOM     11  C   UNL     1      -5.897   0.559   4.855  0.00  0.00    +0.257 C 
ATOM     12  O   UNL     1      -6.849   1.294   5.016  0.00  0.00    -0.272 OA
ATOM     13  H   UNL     1      -3.563   6.186   2.457  0.00  0.00    -0.086 HD
ATOM     14  H   UNL     1      -2.165   5.340   2.655  0.00  0.00    -0.086 HD
ENDROOT
BRANCH   1  16
ATOM     15  N   UNL     1      -0.436   1.092   2.249  0.00  0.00    -0.308 N 
ATOM     16  C   UNL     1      -1.734   0.729   2.248  0.00  0.00    +0.219 C 
ATOM     17  O   UNL     1      -2.189   0.106   1.312  0.00  0.00    -0.275 OA
ATOM     18  H   UNL     1      -0.091   1.654   2.960  0.00  0.00    +0.149 HD
BRANCH  15  19
ATOM     19  C   UNL     1       0.452   0.637   1.177  0.00  0.00    +0.103 C 
BRANCH  19  20
ATOM     20  C   UNL     1       1.748   0.150   1.772  0.00  0.00    -0.027 A 
ATOM     21  C   UNL     1       2.322   0.829   2.830  0.00  0.00    +0.005 A 
ATOM     22  C   UNL     1       3.511   0.382   3.375  0.00  0.00    +0.000 A 
ATOM     23  C   UNL     1       4.126  -0.744   2.863  0.00  0.00    +0.000 A 
ATOM     24  C   UNL     1       3.552  -1.424   1.805  0.00  0.00    +0.000 A 
ATOM     25  C   UNL     1       2.361  -0.980   1.262  0.00  0.00    +0.005 A 
ENDBRANCH  19  20
BRANCH  19  27
ATOM     26  C   UNL     1      -0.558   2.195  -0.494  0.00  0.00    +0.006 C 
ATOM     27  C   UNL     1       0.734   1.798   0.221  0.00  0.00    +0.024 C 
ENDBRANCH  19  27
ENDBRANCH  15  19
ENDBRANCH   1  16
BRANCH  11  28
ATOM     28  C   UNL     1      -5.783  -0.712   5.657  0.00  0.00    +0.261 C 
BRANCH  28  29
ATOM     29  C   UNL     1      -6.405  -1.869   4.871  0.00  0.00    +0.033 C 
ATOM     30  C   UNL     1      -5.644  -2.060   3.558  0.00  0.00    +0.011 C 
ATOM     31  C   UNL     1      -6.322  -3.151   5.701  0.00  0.00    +0.011 C 
ENDBRANCH  28  29
BRANCH  28  32
ATOM     32  O   UNL     1      -6.473  -0.555   6.899  0.00  0.00    -0.479 OA
BRANCH  32  33
ATOM     33  C   UNL     1      -5.939  -1.177   7.983  0.00  0.00    +0.122 A 
ATOM     34  C   UNL     1      -4.760  -1.898   7.861  0.00  0.00    +0.045 A 
ATOM     35  C   UNL     1      -4.220  -2.529   8.965  0.00  0.00    +0.004 A 
ATOM     36  C   UNL     1      -4.853  -2.443  10.191  0.00  0.00    +0.000 A 
ATOM     37  C   UNL     1      -6.029  -1.726  10.315  0.00  0.00    +0.004 A 
ATOM     38  C   UNL     1      -6.570  -1.088   9.216  0.00  0.00    +0.045 A 
ENDBRANCH  32  33
ENDBRANCH  28  32
ENDBRANCH  11  28
TORSDOF 8
