REMARK  Name = ZINC14478239
REMARK  5 active torsions:
REMARK  status: ('A' for Active; 'I' for Inactive)
REMARK    1  A    between atoms: C_4  and  N_31
REMARK    2  A    between atoms: C_5  and  C_7
REMARK    3  A    between atoms: C_18  and  O_23
REMARK    4  A    between atoms: O_23  and  C_24
REMARK    5  A    between atoms: C_24  and  C_25
REMARK                            x       y       z     vdW  Elec       q    Type
REMARK                         _______ _______ _______ _____ _____    ______ ____
ROOT
ATOM      1  C   UNL     1       4.409  -5.252  -7.623  0.00  0.00    +0.107 C 
ATOM      2  C   UNL     1       5.596  -5.448  -6.697  0.00  0.00    +0.029 C 
ATOM      3  C   UNL     1       6.930  -5.846  -7.343  0.00  0.00    +0.033 C 
ATOM      4  C   UNL     1       7.939  -5.236  -6.369  0.00  0.00    -0.030 C 
ATOM      5  C   UNL     1       7.393  -4.206  -5.734  0.00  0.00    -0.023 C 
ATOM      6  C   UNL     1       6.009  -4.016  -6.242  0.00  0.00    +0.049 C 
ATOM      7  C   UNL     1       4.929  -3.484  -5.383  0.00  0.00    -0.016 A 
ATOM      8  C   UNL     1       5.178  -2.654  -4.311  0.00  0.00    +0.051 A 
ATOM      9  C   UNL     1       4.128  -2.156  -3.555  0.00  0.00    +0.121 A 
ATOM     10  C   UNL     1       2.822  -2.497  -3.876  0.00  0.00    +0.047 A 
ATOM     11  C   UNL     1       2.568  -3.328  -4.948  0.00  0.00    +0.027 A 
ATOM     12  C   UNL     1       3.615  -3.837  -5.706  0.00  0.00    +0.032 A 
ATOM     13  N   UNL     1       3.330  -4.701  -6.774  0.00  0.00    -0.336 N 
ATOM     14  H   UNL     1       2.409  -4.942  -6.959  0.00  0.00    +0.147 HD
ENDROOT
BRANCH   1  19
ATOM     15  C   UNL     1       4.092  -8.963  -8.234  0.00  0.00    +0.000 A 
ATOM     16  C   UNL     1       3.207  -8.993  -9.296  0.00  0.00    +0.002 A 
ATOM     17  C   UNL     1       2.712  -7.813  -9.817  0.00  0.00    +0.033 A 
ATOM     18  C   UNL     1       3.097  -6.602  -9.271  0.00  0.00    +0.131 A 
ATOM     19  C   UNL     1       3.985  -6.572  -8.213  0.00  0.00    +0.003 A 
ATOM     20  C   UNL     1       4.481  -7.753  -7.693  0.00  0.00    +0.008 A 
BRANCH  18  21
ATOM     21  N   UNL     1       2.562  -5.338  -9.825  0.00  0.00    +0.057 N 
ATOM     22  O   UNL     1       1.867  -5.357 -10.825  0.00  0.00    -0.126 OA
ATOM     23  O   UNL     1       2.816  -4.278  -9.280  0.00  0.00    -0.126 OA
ENDBRANCH  18  21
ENDBRANCH   1  19
BRANCH   9  24
ATOM     24  O   UNL     1       4.378  -1.338  -2.498  0.00  0.00    -0.489 OA
BRANCH  24  25
ATOM     25  C   UNL     1       3.248  -0.862  -1.764  0.00  0.00    +0.260 C 
BRANCH  25  26
ATOM     26  C   UNL     1       3.723   0.036  -0.621  0.00  0.00    +0.156 C 
ATOM     27  C   UNL     1       2.523   0.454   0.252  0.00  0.00    +0.037 C 
ATOM     28  C   UNL     1       2.530   2.001   0.192  0.00  0.00    +0.031 C 
ATOM     29  C   UNL     1       3.991   2.303  -0.228  0.00  0.00    +0.160 C 
ATOM     30  O   UNL     1       4.303   1.239  -1.153  0.00  0.00    -0.373 OA
ENDBRANCH  25  26
ENDBRANCH  24  25
ENDBRANCH   9  24
TORSDOF 5
