REMARK  Name = ZINC39636883
REMARK  10 active torsions:
REMARK  status: ('A' for Active; 'I' for Inactive)
REMARK    1  A    between atoms: C_1  and  C_2
REMARK    2  A    between atoms: C_2  and  C_3
REMARK    3  A    between atoms: C_2  and  C_4
REMARK    4  A    between atoms: C_4  and  C_6
REMARK    5  A    between atoms: C_4  and  O_33
REMARK    6  A    between atoms: C_10  and  C_19
REMARK    7  A    between atoms: N_21  and  C_22
REMARK    8  A    between atoms: C_22  and  C_23
REMARK    9  A    between atoms: C_27  and  C_29
REMARK   10  A    between atoms: O_33  and  C_34
REMARK                            x       y       z     vdW  Elec       q    Type
REMARK                         _______ _______ _______ _____ _____    ______ ____
ROOT
ATOM      1  C   UNL     1       0.758  -1.932   1.377  0.00  0.00    +0.257 C 
ATOM      2  O   UNL     1       1.810  -2.533   1.333  0.00  0.00    -0.272 OA
ATOM      3  N   UNL     1      -0.403  -2.611   1.472  0.00  0.00    -0.297 N 
ATOM      4  C   UNL     1      -1.769  -2.057   1.619  0.00  0.00    +0.121 C 
ATOM      5  C   UNL     1      -2.654  -2.960   0.731  0.00  0.00    +0.100 C 
ATOM      6  C   UNL     1      -1.882  -4.286   0.628  0.00  0.00    -0.004 C 
ATOM      7  C   UNL     1      -0.601  -4.080   1.448  0.00  0.00    +0.115 C 
ATOM      8  C   UNL     1      -1.528  -4.581  -0.826  0.00  0.00    -0.010 C 
ATOM      9  C   UNL     1      -0.812  -5.932  -0.909  0.00  0.00    -0.082 C 
ATOM     10  N   UNL     1      -1.685  -6.984  -0.374  0.00  0.00    +0.379 N 
ATOM     11  C   UNL     1      -1.945  -6.742   1.050  0.00  0.00    -0.082 C 
ATOM     12  C   UNL     1      -2.709  -5.426   1.216  0.00  0.00    -0.010 C 
ATOM     13  H   UNL     1      -2.558  -6.983  -0.879  0.00  0.00    -0.086 HD
ATOM     14  H   UNL     1      -1.236  -7.880  -0.485  0.00  0.00    -0.086 HD
ENDROOT
BRANCH   5  15
ATOM     15  C   UNL     1      -3.996  -3.180   1.378  0.00  0.00    +0.218 C 
ATOM     16  O   UNL     1      -4.110  -3.093   2.583  0.00  0.00    -0.275 OA
ATOM     17  N   UNL     1      -5.071  -3.473   0.619  0.00  0.00    -0.311 N 
ATOM     18  H   UNL     1      -4.980  -3.542  -0.344  0.00  0.00    +0.149 HD
BRANCH  17  19
ATOM     19  C   UNL     1      -6.376  -3.686   1.249  0.00  0.00    +0.139 C 
BRANCH  19  20
ATOM     20  C   UNL     1      -7.401  -3.996   0.188  0.00  0.00    -0.030 A 
ATOM     21  C   UNL     1      -8.110  -2.970  -0.409  0.00  0.00    +0.005 A 
ATOM     22  C   UNL     1      -9.050  -3.255  -1.382  0.00  0.00    +0.001 A 
ATOM     23  C   UNL     1      -9.281  -4.565  -1.758  0.00  0.00    +0.012 A 
ATOM     24  C   UNL     1      -8.571  -5.590  -1.161  0.00  0.00    +0.055 A 
ATOM     25  C   UNL     1      -7.628  -5.306  -0.191  0.00  0.00    +0.017 A 
BRANCH  24  26
ATOM     26  C   UNL     1      -8.823  -7.019  -1.571  0.00  0.00    +0.417 C 
ATOM     27  F   UNL     1      -9.810  -7.052  -2.562  0.00  0.00    -0.166 F 
ATOM     28  F   UNL     1      -7.642  -7.576  -2.071  0.00  0.00    -0.166 F 
ATOM     29  F   UNL     1      -9.252  -7.753  -0.461  0.00  0.00    -0.166 F 
ENDBRANCH  24  26
ENDBRANCH  19  20
ENDBRANCH  17  19
ENDBRANCH   5  15
BRANCH   1  30
ATOM     30  C   UNL     1       0.748  -0.426   1.324  0.00  0.00    +0.261 C 
BRANCH  30  32
ATOM     31  C   UNL     1      -0.021   1.559   0.015  0.00  0.00    +0.011 C 
ATOM     32  C   UNL     1       0.109   0.034   0.012  0.00  0.00    +0.033 C 
ATOM     33  C   UNL     1       0.986  -0.401  -1.163  0.00  0.00    +0.011 C 
ENDBRANCH  30  32
BRANCH  30  34
ATOM     34  O   UNL     1       2.089   0.062   1.397  0.00  0.00    -0.479 OA
BRANCH  34  35
ATOM     35  C   UNL     1       2.282   1.241   2.045  0.00  0.00    +0.122 A 
ATOM     36  C   UNL     1       1.220   1.867   2.681  0.00  0.00    +0.045 A 
ATOM     37  C   UNL     1       1.419   3.064   3.340  0.00  0.00    +0.004 A 
ATOM     38  C   UNL     1       2.676   3.640   3.366  0.00  0.00    +0.000 A 
ATOM     39  C   UNL     1       3.736   3.018   2.733  0.00  0.00    +0.004 A 
ATOM     40  C   UNL     1       3.544   1.817   2.078  0.00  0.00    +0.045 A 
ENDBRANCH  34  35
ENDBRANCH  30  34
ENDBRANCH   1  30
TORSDOF 8
