REMARK  Name = ZINC26402386
REMARK  8 active torsions:
REMARK  status: ('A' for Active; 'I' for Inactive)
REMARK    1  A    between atoms: C_1  and  C_2
REMARK    2  A    between atoms: C_6  and  N_8
REMARK    3  A    between atoms: N_11  and  C_14
REMARK    4  A    between atoms: C_14  and  C_15
REMARK    5  A    between atoms: C_15  and  C_16
REMARK    6  A    between atoms: C_27  and  C_36
REMARK    7  A    between atoms: C_28  and  C_29
REMARK    8  A    between atoms: C_32  and  O_35
REMARK                            x       y       z     vdW  Elec       q    Type
REMARK                         _______ _______ _______ _____ _____    ______ ____
ROOT
ATOM      1  C   UNL     1       0.657  -4.452  -0.542  0.00  0.00    +0.194 C 
ATOM      2  C   UNL     1       0.035  -3.388  -1.459  0.00  0.00    +0.167 C 
ATOM      3  N   UNL     1       0.024  -2.113  -0.728  0.00  0.00    -0.333 N 
ATOM      4  C   UNL     1       0.036  -2.165   0.660  0.00  0.00    +0.092 A 
ATOM      5  C   UNL     1       0.025  -0.875   1.174  0.00  0.00    +0.007 A 
ATOM      6  C   UNL     1       0.037  -0.738   2.567  0.00  0.00    +0.010 A 
ATOM      7  C   UNL     1       0.061  -1.859   3.354  0.00  0.00    +0.004 A 
ATOM      8  C   UNL     1       0.072  -3.147   2.818  0.00  0.00    +0.048 A 
ATOM      9  C   UNL     1       0.059  -3.311   1.457  0.00  0.00    +0.145 A 
ATOM     10  O   UNL     1       0.065  -4.479   0.763  0.00  0.00    -0.485 OA
ATOM     11  C   UNL     1       0.002  -0.004   0.002  0.00  0.00    -0.017 A 
ATOM     12  C   UNL     1      -0.003  -0.808  -1.106  0.00  0.00    +0.053 A 
ATOM     13  C   UNL     1      -0.018   1.503   0.010  0.00  0.00    +0.046 C 
ENDROOT
BRANCH  12  14
ATOM     14  C   UNL     1      -0.029  -0.328  -2.504  0.00  0.00    -0.001 A 
ATOM     15  C   UNL     1       0.823  -0.894  -3.454  0.00  0.00    +0.013 A 
ATOM     16  C   UNL     1       0.791  -0.448  -4.758  0.00  0.00    +0.046 A 
ATOM     17  C   UNL     1      -0.079   0.571  -5.124  0.00  0.00    +0.117 A 
ATOM     18  C   UNL     1      -0.924   1.140  -4.181  0.00  0.00    +0.046 A 
ATOM     19  C   UNL     1      -0.902   0.695  -2.876  0.00  0.00    +0.013 A 
BRANCH  17  20
ATOM     20  O   UNL     1      -0.103   1.012  -6.409  0.00  0.00    -0.507 OA
ATOM     21  H   UNL     1      -0.792   1.819  -6.701  0.00  0.00    +0.292 HD
ENDBRANCH  17  20
ENDBRANCH  12  14
BRANCH   1  22
ATOM     22  C   UNL     1       0.480  -5.826  -1.192  0.00  0.00    +0.061 C 
BRANCH  22  23
ATOM     23  C   UNL     1       1.202  -6.883  -0.354  0.00  0.00    +0.088 C 
BRANCH  23  27
ATOM     24  N   UNL     1       0.349 -10.965  -1.027  0.00  0.00    -0.314 N 
ATOM     25  C   UNL     1       1.755 -10.540  -1.069  0.00  0.00    +0.122 C 
ATOM     26  C   UNL     1       1.902  -9.201  -0.340  0.00  0.00    +0.103 C 
ATOM     27  N   UNL     1       1.033  -8.202  -0.978  0.00  0.00    -0.299 NA
ATOM     28  C   UNL     1      -0.373  -8.628  -0.936  0.00  0.00    +0.103 C 
ATOM     29  C   UNL     1      -0.519  -9.966  -1.664  0.00  0.00    +0.122 C 
BRANCH  24  35
ATOM     30  C   UNL     1       2.362 -14.702  -3.242  0.00  0.00    +0.063 C 
ATOM     31  C   UNL     1       1.133 -14.028  -2.687  0.00  0.00    +0.014 A 
ATOM     32  C   UNL     1      -0.091 -14.660  -2.779  0.00  0.00    +0.021 A 
ATOM     33  C   UNL     1      -1.219 -14.034  -2.266  0.00  0.00    +0.005 A 
ATOM     34  C   UNL     1      -1.074 -12.794  -1.672  0.00  0.00    +0.042 A 
ATOM     35  C   UNL     1       0.190 -12.214  -1.618  0.00  0.00    +0.099 A 
ATOM     36  N   UNL     1       1.242 -12.842  -2.119  0.00  0.00    -0.347 N 
ATOM     37  H   UNL     1       2.224 -12.352  -2.052  0.00  0.00    +0.167 HD
ENDBRANCH  24  35
ENDBRANCH  23  27
ENDBRANCH  22  23
ENDBRANCH   1  22
TORSDOF 6
