REMARK  Name = ZINC58961143
REMARK  9 active torsions:
REMARK  status: ('A' for Active; 'I' for Inactive)
REMARK    1  A    between atoms: C_1  and  C_2
REMARK    2  A    between atoms: C_5  and  C_8
REMARK    3  A    between atoms: C_10  and  C_30
REMARK    4  A    between atoms: C_12  and  S_14
REMARK    5  A    between atoms: S_14  and  C_15
REMARK    6  A    between atoms: C_15  and  C_17
REMARK    7  A    between atoms: C_15  and  C_18
REMARK    8  A    between atoms: C_21  and  C_29
REMARK    9  A    between atoms: C_26  and  C_28
REMARK                            x       y       z     vdW  Elec       q    Type
REMARK                         _______ _______ _______ _____ _____    ______ ____
ROOT
ATOM      1  C   UNL     1       0.603  -4.381   0.101  0.00  0.00    +0.076 A 
ATOM      2  C   UNL     1       0.495  -5.109   1.289  0.00  0.00    +0.060 A 
ATOM      3  C   UNL     1       0.367  -6.484   1.212  0.00  0.00    +0.148 A 
ATOM      4  N   UNL     1       0.351  -7.067   0.023  0.00  0.00    -0.218 NA
ATOM      5  C   UNL     1       0.456  -6.352  -1.089  0.00  0.00    +0.190 A 
ATOM      6  N   UNL     1       0.574  -5.034  -1.059  0.00  0.00    -0.222 NA
ENDROOT
BRANCH   1  11
ATOM      7  C   UNL     1       1.141   1.351   0.219  0.00  0.00    +0.044 C 
ATOM      8  C   UNL     1       1.000  -0.149   0.188  0.00  0.00    -0.050 A 
ATOM      9  C   UNL     1       0.973  -0.814  -1.025  0.00  0.00    +0.004 A 
ATOM     10  C   UNL     1       0.844  -2.188  -1.060  0.00  0.00    +0.010 A 
ATOM     11  C   UNL     1       0.742  -2.905   0.131  0.00  0.00    +0.001 A 
ATOM     12  C   UNL     1       0.771  -2.230   1.350  0.00  0.00    +0.010 A 
ATOM     13  C   UNL     1       0.905  -0.857   1.373  0.00  0.00    +0.004 A 
ENDBRANCH   1  11
BRANCH   3  14
ATOM     14  C   UNL     1       0.248  -7.310   2.466  0.00  0.00    +0.434 C 
ATOM     15  F   UNL     1      -1.101  -7.441   2.812  0.00  0.00    -0.164 F 
ATOM     16  F   UNL     1       0.798  -8.577   2.245  0.00  0.00    -0.164 F 
ATOM     17  F   UNL     1       0.936  -6.678   3.508  0.00  0.00    -0.164 F 
ENDBRANCH   3  14
BRANCH   5  18
ATOM     18  S   UNL     1       0.430  -7.178  -2.645  0.00  0.00    -0.074 S 
BRANCH  18  19
ATOM     19  C   UNL     1       0.250  -8.929  -2.210  0.00  0.00    +0.137 C 
ATOM     20  C   UNL     1       1.494  -9.397  -1.453  0.00  0.00    +0.029 C 
BRANCH  19  21
ATOM     21  C   UNL     1       0.090  -9.745  -3.467  0.00  0.00    +0.229 C 
ATOM     22  O   UNL     1       0.522  -9.327  -4.520  0.00  0.00    -0.274 OA
ATOM     23  N   UNL     1      -0.532 -10.940  -3.421  0.00  0.00    -0.295 N 
ATOM     24  C   UNL     1      -0.587 -11.802  -4.609  0.00  0.00    +0.073 C 
ATOM     25  C   UNL     1      -0.048 -13.187  -4.238  0.00  0.00    +0.022 C 
ATOM     26  C   UNL     1      -0.823 -13.727  -3.034  0.00  0.00    +0.004 C 
ATOM     27  C   UNL     1      -0.623 -12.794  -1.837  0.00  0.00    +0.022 C 
ATOM     28  C   UNL     1      -1.163 -11.407  -2.179  0.00  0.00    +0.073 C 
ATOM     29  C   UNL     1      -2.679 -11.485  -2.372  0.00  0.00    +0.028 C 
ATOM     30  C   UNL     1       0.270 -11.196  -5.722  0.00  0.00    +0.028 C 
ENDBRANCH  19  21
ENDBRANCH  18  19
ENDBRANCH   5  18
TORSDOF 5
