REMARK  Name = ZINC36390154
REMARK  10 active torsions:
REMARK  status: ('A' for Active; 'I' for Inactive)
REMARK    1  A    between atoms: C_1  and  C_2
REMARK    2  A    between atoms: C_3  and  C_14
REMARK    3  A    between atoms: C_4  and  C_13
REMARK    4  A    between atoms: N_5  and  C_7
REMARK    5  A    between atoms: N_21  and  C_22
REMARK    6  A    between atoms: C_22  and  C_23
REMARK    7  A    between atoms: C_23  and  C_25
REMARK    8  A    between atoms: C_23  and  O_34
REMARK    9  A    between atoms: C_25  and  O_26
REMARK   10  A    between atoms: O_26  and  C_27
REMARK                            x       y       z     vdW  Elec       q    Type
REMARK                         _______ _______ _______ _____ _____    ______ ____
ROOT
ATOM      1  C   UNL     1       0.077  -0.256  -2.462  0.00  0.00    +0.054 C 
ATOM      2  C   UNL     1      -1.357   0.122  -2.698  0.00  0.00    +0.204 C 
ATOM      3  O   UNL     1      -2.228  -0.640  -2.334  0.00  0.00    -0.277 OA
ATOM      4  N   UNL     1      -1.713   1.266  -3.294  0.00  0.00    -0.318 N 
ATOM      5  C   UNL     1      -0.738   2.258  -3.741  0.00  0.00    +0.085 C 
ATOM      6  C   UNL     1       0.650   1.620  -3.830  0.00  0.00    -0.058 C 
ATOM      7  N   UNL     1       0.934   0.932  -2.561  0.00  0.00    +0.393 N 
ATOM      8  H   UNL     1      -2.656   1.444  -3.434  0.00  0.00    +0.149 HD
ATOM      9  H   UNL     1       0.743   1.552  -1.789  0.00  0.00    -0.080 HD
ENDROOT
BRANCH   1  12
ATOM     10  C   UNL     1       0.049   1.335   0.278  0.00  0.00    +0.068 C 
ATOM     11  C   UNL     1       0.202  -0.156   0.123  0.00  0.00    +0.063 A 
ATOM     12  C   UNL     1       0.215  -0.858  -1.087  0.00  0.00    -0.009 A 
ATOM     13  C   UNL     1       0.373  -2.172  -0.805  0.00  0.00    +0.044 A 
ATOM     14  N   UNL     1       0.456  -2.297   0.538  0.00  0.00    -0.237 N 
ATOM     15  N   UNL     1       0.351  -1.017   1.098  0.00  0.00    -0.171 NA
ATOM     16  C   UNL     1       0.442  -3.294  -1.809  0.00  0.00    +0.066 C 
BRANCH  14  17
ATOM     17  C   UNL     1       0.623  -3.496   1.246  0.00  0.00    +0.066 A 
ATOM     18  C   UNL     1       1.520  -4.453   0.792  0.00  0.00    +0.028 A 
ATOM     19  C   UNL     1       1.682  -5.633   1.492  0.00  0.00    +0.002 A 
ATOM     20  C   UNL     1       0.952  -5.861   2.644  0.00  0.00    +0.000 A 
ATOM     21  C   UNL     1       0.057  -4.910   3.098  0.00  0.00    +0.002 A 
ATOM     22  C   UNL     1      -0.105  -3.725   2.406  0.00  0.00    +0.028 A 
ENDBRANCH  14  17
ENDBRANCH   1  12
BRANCH   7  23
ATOM     23  C   UNL     1       2.345   0.525  -2.531  0.00  0.00    -0.042 C 
BRANCH  23  24
ATOM     24  C   UNL     1       3.232   1.767  -2.420  0.00  0.00    +0.135 C 
BRANCH  24  25
ATOM     25  O   UNL     1       3.157   2.516  -3.635  0.00  0.00    -0.390 OA
ATOM     26  H   UNL     1       3.448   2.027  -4.417  0.00  0.00    +0.210 HD
ENDBRANCH  24  25
BRANCH  24  27
ATOM     27  C   UNL     1       4.680   1.339  -2.173  0.00  0.00    +0.258 C 
BRANCH  27  28
ATOM     28  O   UNL     1       5.488   2.497  -1.953  0.00  0.00    -0.489 OA
BRANCH  28  29
ATOM     29  C   UNL     1       6.810   2.291  -1.717  0.00  0.00    +0.121 A 
ATOM     30  C   UNL     1       7.321   1.001  -1.703  0.00  0.00    +0.047 A 
ATOM     31  C   UNL     1       8.665   0.793  -1.462  0.00  0.00    +0.023 A 
ATOM     32  C   UNL     1       9.502   1.871  -1.235  0.00  0.00    +0.041 A 
ATOM     33  C   UNL     1       8.995   3.159  -1.248  0.00  0.00    +0.023 A 
ATOM     34  C   UNL     1       7.653   3.370  -1.495  0.00  0.00    +0.047 A 
ATOM     35 CL   UNL     1      11.191   1.608  -0.932  0.00  0.00    -0.084 Cl
ENDBRANCH  28  29
ENDBRANCH  27  28
ENDBRANCH  24  27
ENDBRANCH  23  24
ENDBRANCH   7  23
TORSDOF 8
