REMARK  Name = ZINC02416646
REMARK  9 active torsions:
REMARK  status: ('A' for Active; 'I' for Inactive)
REMARK    1  A    between atoms: C_1  and  C_2
REMARK    2  A    between atoms: C_2  and  C_4
REMARK    3  A    between atoms: C_2  and  O_28
REMARK    4  A    between atoms: C_4  and  N_5
REMARK    5  A    between atoms: C_12  and  C_16
REMARK    6  A    between atoms: C_16  and  C_17
REMARK    7  A    between atoms: C_16  and  C_18
REMARK    8  A    between atoms: C_21  and  C_23
REMARK    9  A    between atoms: C_21  and  C_24
REMARK                            x       y       z     vdW  Elec       q    Type
REMARK                         _______ _______ _______ _____ _____    ______ ____
ROOT
ATOM      1  N   UNL     1       0.762  -1.976   1.234  0.00  0.00    -0.326 N 
ATOM      2  C   UNL     1       1.381  -2.666   2.264  0.00  0.00    +0.136 A 
ATOM      3  C   UNL     1       1.416  -4.054   2.271  0.00  0.00    +0.080 A 
ATOM      4  C   UNL     1       2.041  -4.753   3.310  0.00  0.00    +0.093 A 
ATOM      5  C   UNL     1       2.012  -6.224   3.207  0.00  0.00    +0.037 A 
ATOM      6  C   UNL     1       2.560  -7.166   4.107  0.00  0.00    -0.026 A 
ATOM      7  C   UNL     1       2.431  -8.507   3.842  0.00  0.00    +0.004 A 
ATOM      8  C   UNL     1       1.771  -8.923   2.692  0.00  0.00    +0.051 A 
ATOM      9  N   UNL     1       1.263  -8.042   1.854  0.00  0.00    -0.244 NA
ATOM     10  C   UNL     1       1.361  -6.748   2.075  0.00  0.00    +0.111 A 
ATOM     11  S   UNL     1       0.807  -5.315   1.185  0.00  0.00    -0.064 S 
ATOM     12  C   UNL     1       2.986  -9.548   4.779  0.00  0.00    +0.197 C 
ATOM     13  O   UNL     1       3.926  -8.953   5.674  0.00  0.00    -0.369 OA
ATOM     14  C   UNL     1       3.413  -7.799   6.349  0.00  0.00    +0.068 C 
ATOM     15  C   UNL     1       3.274  -6.663   5.333  0.00  0.00    +0.070 C 
ATOM     16  C   UNL     1       4.379  -7.381   7.460  0.00  0.00    +0.041 C 
ATOM     17  C   UNL     1       2.042  -8.122   6.949  0.00  0.00    +0.041 C 
ATOM     18  N   UNL     1       2.596  -3.997   4.284  0.00  0.00    -0.234 NA
ATOM     19  C   UNL     1       2.545  -2.690   4.245  0.00  0.00    +0.224 A 
ATOM     20  N   UNL     1       1.964  -2.015   3.269  0.00  0.00    -0.220 NA
ATOM     21  H   UNL     1       0.342  -2.462   0.507  0.00  0.00    +0.148 HD
ENDROOT
BRANCH   8  22
ATOM     22  C   UNL     1       1.635 -10.396   2.401  0.00  0.00    +0.032 C 
ATOM     23  C   UNL     1       0.153 -10.766   2.323  0.00  0.00    +0.014 C 
ATOM     24  C   UNL     1       2.312 -10.716   1.066  0.00  0.00    +0.014 C 
ENDBRANCH   8  22
BRANCH   1  25
ATOM     25  C   UNL     1       0.742  -0.511   1.242  0.00  0.00    +0.134 C 
BRANCH  25  27
ATOM     26  C   UNL     1      -0.019   1.526   0.010  0.00  0.00    +0.039 C 
ATOM     27  C   UNL     1       0.002  -0.004   0.002  0.00  0.00    +0.128 C 
BRANCH  27  28
ATOM     28  O   UNL     1       0.671  -0.465  -1.174  0.00  0.00    -0.391 OA
ATOM     29  H   UNL     1       0.256  -0.181  -1.999  0.00  0.00    +0.210 HD
ENDBRANCH  27  28
ENDBRANCH  25  27
ENDBRANCH   1  25
TORSDOF 4
