REMARK  Name = ZINC09013825
REMARK  12 active torsions:
REMARK  status: ('A' for Active; 'I' for Inactive)
REMARK    1  A    between atoms: C_1  and  N_2
REMARK    2  A    between atoms: C_12  and  C_23
REMARK    3  A    between atoms: N_16  and  C_17
REMARK    4  A    between atoms: C_17  and  C_18
REMARK    5  A    between atoms: C_18  and  C_19
REMARK    6  A    between atoms: C_19  and  O_20
REMARK    7  A    between atoms: O_20  and  C_21
REMARK    8  A    between atoms: C_23  and  C_25
REMARK    9  A    between atoms: C_29  and  S_31
REMARK   10  A    between atoms: S_31  and  N_34
REMARK   11  A    between atoms: N_34  and  C_35
REMARK   12  A    between atoms: N_34  and  C_36
REMARK                            x       y       z     vdW  Elec       q    Type
REMARK                         _______ _______ _______ _____ _____    ______ ____
ROOT
ATOM      1  C   UNL     1       5.341   0.808  -2.049  0.00  0.00    +0.138 C 
ATOM      2  N   UNL     1       4.242   0.769  -1.081  0.00  0.00    -0.272 N 
ATOM      3  C   UNL     1       4.425   0.720   0.302  0.00  0.00    +0.042 A 
ATOM      4  C   UNL     1       5.588   0.696   1.067  0.00  0.00    +0.024 A 
ATOM      5  C   UNL     1       5.513   0.644   2.443  0.00  0.00    +0.002 A 
ATOM      6  C   UNL     1       4.283   0.616   3.075  0.00  0.00    +0.000 A 
ATOM      7  C   UNL     1       3.122   0.640   2.322  0.00  0.00    +0.008 A 
ATOM      8  C   UNL     1       3.193   0.692   0.948  0.00  0.00    +0.011 A 
ATOM      9  C   UNL     1       2.152   0.729  -0.139  0.00  0.00    +0.174 C 
ATOM     10  C   UNL     1       2.941   0.777  -1.423  0.00  0.00    +0.253 C 
ATOM     11  O   UNL     1       2.489   0.816  -2.547  0.00  0.00    -0.272 OA
ATOM     12  C   UNL     1       1.263   1.935  -0.002  0.00  0.00    +0.089 C 
ATOM     13  C   UNL     1      -0.004   1.467   0.115  0.00  0.00    +0.250 C 
ATOM     14  C   UNL     1       0.019  -0.011   0.059  0.00  0.00    +0.288 C 
ATOM     15  O   UNL     1      -0.960  -0.727   0.137  0.00  0.00    -0.266 OA
ATOM     16  N   UNL     1       1.286  -0.446  -0.090  0.00  0.00    -0.273 N 
ATOM     17  O   UNL     1      -1.112   2.229   0.255  0.00  0.00    -0.282 OA
ENDROOT
BRANCH  12  18
ATOM     18  C   UNL     1       1.684   3.339   0.005  0.00  0.00    +0.196 C 
ATOM     19  O   UNL     1       2.210   3.812   0.995  0.00  0.00    -0.287 OA
BRANCH  18  20
ATOM     20  C   UNL     1       1.469   4.181  -1.192  0.00  0.00    +0.024 A 
ATOM     21  C   UNL     1       0.773   3.673  -2.291  0.00  0.00    +0.012 A 
ATOM     22  C   UNL     1       0.571   4.465  -3.401  0.00  0.00    +0.003 A 
ATOM     23  C   UNL     1       1.066   5.758  -3.433  0.00  0.00    +0.028 A 
ATOM     24  C   UNL     1       1.762   6.265  -2.349  0.00  0.00    +0.106 A 
ATOM     25  C   UNL     1       1.966   5.485  -1.230  0.00  0.00    +0.040 A 
BRANCH  24  26
ATOM     26  S   UNL     1       2.388   7.911  -2.400  0.00  0.00    +0.060 S 
ATOM     27  O   UNL     1       1.594   8.619  -3.342  0.00  0.00    -0.153 OA
ATOM     28  O   UNL     1       2.529   8.334  -1.051  0.00  0.00    -0.153 OA
BRANCH  26  29
ATOM     29  N   UNL     1       3.916   7.834  -3.034  0.00  0.00    -0.183 NA
ATOM     30  C   UNL     1       4.116   7.945  -4.481  0.00  0.00    +0.131 C 
ATOM     31  C   UNL     1       5.069   7.654  -2.148  0.00  0.00    +0.131 C 
ENDBRANCH  26  29
ENDBRANCH  24  26
ENDBRANCH  18  20
ENDBRANCH  12  18
BRANCH  16  32
ATOM     32  C   UNL     1       1.716  -1.843  -0.186  0.00  0.00    +0.112 C 
BRANCH  32  33
ATOM     33  C   UNL     1       1.715  -2.277  -1.653  0.00  0.00    +0.047 C 
BRANCH  33  34
ATOM     34  C   UNL     1       2.164  -3.737  -1.753  0.00  0.00    +0.161 C 
BRANCH  34  35
ATOM     35  O   UNL     1       2.163  -4.143  -3.123  0.00  0.00    -0.383 OA
ATOM     36  C   UNL     1       2.570  -5.497  -3.328  0.00  0.00    +0.193 C 
ENDBRANCH  34  35
ENDBRANCH  33  34
ENDBRANCH  32  33
ENDBRANCH  16  32
TORSDOF 8
