REMARK  Name = ZINC45521327
REMARK  10 active torsions:
REMARK  status: ('A' for Active; 'I' for Inactive)
REMARK    1  A    between atoms: C_1  and  C_2
REMARK    2  A    between atoms: C_7  and  C_8
REMARK    3  A    between atoms: C_8  and  C_10
REMARK    4  A    between atoms: C_8  and  O_16
REMARK    5  A    between atoms: O_16  and  C_17
REMARK    6  A    between atoms: C_17  and  C_18
REMARK    7  A    between atoms: C_18  and  C_20
REMARK    8  A    between atoms: C_18  and  O_38
REMARK    9  A    between atoms: C_20  and  N_21
REMARK   10  A    between atoms: C_24  and  N_27
REMARK                            x       y       z     vdW  Elec       q    Type
REMARK                         _______ _______ _______ _____ _____    ______ ____
ROOT
ATOM      1  C   UNL     1      -2.395  -1.524   4.867  0.00  0.00    +0.124 C 
ENDROOT
BRANCH   1   2
ATOM      2  O   UNL     1      -2.093  -2.873   4.506  0.00  0.00    -0.391 OA
ATOM      3  H   UNL     1      -2.511  -3.163   3.684  0.00  0.00    +0.210 HD
ENDBRANCH   1   2
BRANCH   1   4
ATOM      4  C   UNL     1      -1.917  -0.581   3.760  0.00  0.00    +0.190 C 
BRANCH   4   5
ATOM      5  O   UNL     1      -0.492  -0.638   3.668  0.00  0.00    -0.365 OA
BRANCH   5   6
ATOM      6  C   UNL     1       0.059   0.211   2.659  0.00  0.00    +0.179 C 
BRANCH   6  13
ATOM      7  C   UNL     1       0.053   1.641   0.149  0.00  0.00    +0.044 C 
ATOM      8  C   UNL     1       0.147   0.137   0.159  0.00  0.00    -0.044 A 
ATOM      9  C   UNL     1       0.236  -0.558  -1.033  0.00  0.00    +0.004 A 
ATOM     10  C   UNL     1       0.321  -1.938  -1.024  0.00  0.00    +0.000 A 
ATOM     11  C   UNL     1       0.319  -2.622   0.177  0.00  0.00    +0.000 A 
ATOM     12  C   UNL     1       0.231  -1.927   1.369  0.00  0.00    +0.007 A 
ATOM     13  C   UNL     1       0.149  -0.547   1.360  0.00  0.00    -0.012 A 
ENDBRANCH   6  13
BRANCH   6  14
ATOM     14  C   UNL     1       1.436   0.658   3.076  0.00  0.00    -0.014 A 
ATOM     15  C   UNL     1       2.296  -0.233   3.690  0.00  0.00    +0.006 A 
ATOM     16  C   UNL     1       3.559   0.177   4.073  0.00  0.00    +0.000 A 
ATOM     17  C   UNL     1       3.963   1.479   3.842  0.00  0.00    +0.000 A 
ATOM     18  C   UNL     1       3.103   2.370   3.227  0.00  0.00    +0.000 A 
ATOM     19  C   UNL     1       1.841   1.959   2.841  0.00  0.00    +0.006 A 
ENDBRANCH   6  14
ENDBRANCH   5   6
ENDBRANCH   4   5
ENDBRANCH   1   4
BRANCH   1  20
ATOM     20  C   UNL     1      -3.906  -1.371   5.050  0.00  0.00    -0.045 C 
BRANCH  20  21
ATOM     21  N   UNL     1      -4.362  -2.265   6.122  0.00  0.00    +0.382 N 
ATOM     22  C   UNL     1      -5.828  -2.232   6.194  0.00  0.00    -0.077 C 
ATOM     23  C   UNL     1      -6.312  -3.223   7.255  0.00  0.00    +0.006 C 
ATOM     24  C   UNL     1      -5.724  -2.834   8.615  0.00  0.00    +0.089 C 
ATOM     25  C   UNL     1      -4.197  -2.799   8.508  0.00  0.00    +0.006 C 
ATOM     26  C   UNL     1      -3.791  -1.824   7.401  0.00  0.00    -0.077 C 
ATOM     27  H   UNL     1      -4.058  -3.206   5.926  0.00  0.00    -0.082 HD
BRANCH  24  28
ATOM     28  N   UNL     1      -6.123  -3.822   9.621  0.00  0.00    -0.289 N 
ATOM     29  C   UNL     1      -6.866  -3.561  10.770  0.00  0.00    +0.070 A 
ATOM     30  C   UNL     1      -7.425  -2.408  11.300  0.00  0.00    +0.028 A 
ATOM     31  C   UNL     1      -8.126  -2.468  12.489  0.00  0.00    +0.002 A 
ATOM     32  C   UNL     1      -8.273  -3.674  13.153  0.00  0.00    +0.002 A 
ATOM     33  C   UNL     1      -7.719  -4.827  12.632  0.00  0.00    +0.028 A 
ATOM     34  C   UNL     1      -7.015  -4.777  11.439  0.00  0.00    +0.067 A 
ATOM     35  N   UNL     1      -6.356  -5.739  10.677  0.00  0.00    -0.306 N 
ATOM     36  H   UNL     1      -6.288  -6.683  10.890  0.00  0.00    +0.170 HD
ATOM     37  C   UNL     1      -5.837  -5.137   9.590  0.00  0.00    +0.328 A 
ATOM     38  O   UNL     1      -5.202  -5.696   8.715  0.00  0.00    -0.247 OA
ENDBRANCH  24  28
ENDBRANCH  20  21
ENDBRANCH   1  20
TORSDOF 9
