REMARK  Name = ZINC09542379
REMARK  8 active torsions:
REMARK  status: ('A' for Active; 'I' for Inactive)
REMARK    1  A    between atoms: C_1  and  O_2
REMARK    2  A    between atoms: O_2  and  C_3
REMARK    3  A    between atoms: C_7  and  C_10
REMARK    4  A    between atoms: C_8  and  O_9
REMARK    5  A    between atoms: C_13  and  C_26
REMARK    6  A    between atoms: C_15  and  C_17
REMARK    7  A    between atoms: C_20  and  O_24
REMARK    8  A    between atoms: O_24  and  C_25
REMARK                            x       y       z     vdW  Elec       q    Type
REMARK                         _______ _______ _______ _____ _____    ______ ____
ROOT
ATOM      1  C   UNL     1      -4.942   0.851   0.421  0.00  0.00    -0.028 C 
ATOM      2  C   UNL     1      -3.790   1.782   0.030  0.00  0.00    +0.044 C 
ATOM      3  C   UNL     1      -2.501   1.008   0.020  0.00  0.00    +0.040 C 
ATOM      4  N   UNL     1      -2.454  -0.270   0.008  0.00  0.00    -0.299 NA
ATOM      5  C   UNL     1      -3.629  -1.133   0.025  0.00  0.00    +0.081 C 
ATOM      6  N   UNL     1      -4.829  -0.384  -0.378  0.00  0.00    +0.401 N 
ATOM      7  H   UNL     1      -4.761  -0.141  -1.373  0.00  0.00    -0.081 HD
ATOM      8  H   UNL     1      -5.661  -0.966  -0.224  0.00  0.00    -0.081 HD
ENDROOT
BRANCH   5   9
ATOM      9  C   UNL     1      -3.416  -2.275  -0.935  0.00  0.00    -0.039 A 
ATOM     10  C   UNL     1      -2.136  -2.731  -1.192  0.00  0.00    +0.007 A 
ATOM     11  C   UNL     1      -1.938  -3.779  -2.070  0.00  0.00    +0.047 A 
ATOM     12  C   UNL     1      -3.024  -4.373  -2.696  0.00  0.00    +0.134 A 
ATOM     13  C   UNL     1      -4.308  -3.914  -2.437  0.00  0.00    +0.060 A 
ATOM     14  C   UNL     1      -4.501  -2.869  -1.552  0.00  0.00    +0.022 A 
ATOM     15 BR   UNL     1      -5.791  -4.722  -3.286  0.00  0.00    -0.047 Br
BRANCH  12  16
ATOM     16  O   UNL     1      -2.831  -5.404  -3.561  0.00  0.00    -0.494 OA
ATOM     17  C   UNL     1      -1.483  -5.824  -3.780  0.00  0.00    +0.277 C 
ENDBRANCH  12  16
ENDBRANCH   5   9
BRANCH   3  18
ATOM     18  C   UNL     1      -1.231   1.759   0.017  0.00  0.00    -0.004 A 
ATOM     19  C   UNL     1      -0.013   1.076   0.008  0.00  0.00    +0.011 A 
ATOM     20  C   UNL     1       1.171   1.783   0.001  0.00  0.00    +0.020 A 
ATOM     21  C   UNL     1       1.154   3.168   0.008  0.00  0.00    +0.041 A 
ATOM     22  C   UNL     1      -0.051   3.851   0.022  0.00  0.00    +0.020 A 
ATOM     23  C   UNL     1      -1.241   3.156   0.030  0.00  0.00    +0.011 A 
ATOM     24 CL   UNL     1       2.649   4.051  -0.002  0.00  0.00    -0.084 Cl
ENDBRANCH   3  18
BRANCH   1  29
ATOM     25  C   UNL     1      -7.985   3.080   0.743  0.00  0.00    +0.161 A 
ATOM     26  C   UNL     1      -8.682   2.754  -0.409  0.00  0.00    +0.049 A 
ATOM     27  C   UNL     1      -8.169   1.817  -1.286  0.00  0.00    +0.004 A 
ATOM     28  C   UNL     1      -6.958   1.206  -1.019  0.00  0.00    +0.006 A 
ATOM     29  C   UNL     1      -6.260   1.523   0.131  0.00  0.00    -0.016 A 
ATOM     30  C   UNL     1      -6.768   2.461   1.014  0.00  0.00    +0.160 A 
BRANCH  25  32
ATOM     31  C   UNL     1      -9.742   4.596   1.264  0.00  0.00    +0.277 C 
ATOM     32  O   UNL     1      -8.488   4.002   1.607  0.00  0.00    -0.491 OA
ENDBRANCH  25  32
BRANCH  30  33
ATOM     33  O   UNL     1      -6.080   2.777   2.144  0.00  0.00    -0.503 OA
ATOM     34  H   UNL     1      -5.458   3.509   2.034  0.00  0.00    +0.292 HD
ENDBRANCH  30  33
ENDBRANCH   1  29
TORSDOF 6
