REMARK  Name = ZINC59293954
REMARK  15 active torsions:
REMARK  status: ('A' for Active; 'I' for Inactive)
REMARK    1  A    between atoms: C_1  and  C_2
REMARK    2  A    between atoms: C_2  and  O_3
REMARK    3  A    between atoms: O_3  and  C_4
REMARK    4  A    between atoms: C_4  and  C_6
REMARK    5  A    between atoms: C_7  and  N_36
REMARK    6  A    between atoms: C_11  and  C_32
REMARK    7  A    between atoms: C_15  and  C_30
REMARK    8  A    between atoms: C_16  and  C_18
REMARK    9  A    between atoms: C_20  and  O_28
REMARK   10  A    between atoms: C_21  and  O_26
REMARK   11  A    between atoms: C_22  and  O_24
REMARK   12  A    between atoms: O_24  and  C_25
REMARK   13  A    between atoms: O_26  and  C_27
REMARK   14  A    between atoms: O_28  and  C_29
REMARK   15  A    between atoms: C_32  and  C_33
REMARK                            x       y       z     vdW  Elec       q    Type
REMARK                         _______ _______ _______ _____ _____    ______ ____
ROOT
ATOM      1  C   UNL     1      -2.779  -2.449   0.305  0.00  0.00    +0.085 C 
ATOM      2  C   UNL     1      -2.907  -3.744  -0.089  0.00  0.00    +0.106 C 
ATOM      3  N   UNL     1      -4.190  -4.265  -0.312  0.00  0.00    -0.220 N 
ATOM      4  C   UNL     1      -4.416  -5.383  -1.006  0.00  0.00    +0.239 C 
ATOM      5  O   UNL     1      -3.515  -5.996  -1.536  0.00  0.00    -0.274 OA
ATOM      6  C   UNL     1      -5.861  -5.848  -1.100  0.00  0.00    +0.150 C 
ATOM      7  S   UNL     1      -6.649  -4.664   0.075  0.00  0.00    -0.095 S 
ATOM      8  C   UNL     1      -5.277  -3.547   0.196  0.00  0.00    +0.091 C 
ATOM      9  C   UNL     1      -5.232  -2.274   0.635  0.00  0.00    +0.070 C 
ATOM     10  C   UNL     1      -3.940  -1.510   0.459  0.00  0.00    +0.102 C 
ENDROOT
BRANCH  10  11
ATOM     11  C   UNL     1      -4.045  -0.646  -0.771  0.00  0.00    -0.027 A 
ATOM     12  C   UNL     1      -4.248  -1.228  -2.008  0.00  0.00    +0.054 A 
ATOM     13  C   UNL     1      -4.344  -0.436  -3.142  0.00  0.00    +0.165 A 
ATOM     14  C   UNL     1      -4.237   0.945  -3.034  0.00  0.00    +0.204 A 
ATOM     15  C   UNL     1      -4.034   1.527  -1.788  0.00  0.00    +0.165 A 
ATOM     16  C   UNL     1      -3.944   0.728  -0.658  0.00  0.00    +0.054 A 
BRANCH  15  17
ATOM     17  O   UNL     1      -3.928   2.878  -1.677  0.00  0.00    -0.491 OA
ATOM     18  C   UNL     1      -3.720   3.407  -0.366  0.00  0.00    +0.277 C 
ENDBRANCH  15  17
BRANCH  14  19
ATOM     19  O   UNL     1      -4.331   1.726  -4.144  0.00  0.00    -0.488 OA
ATOM     20  C   UNL     1      -5.635   2.183  -4.508  0.00  0.00    +0.277 C 
ENDBRANCH  14  19
BRANCH  13  21
ATOM     21  O   UNL     1      -4.543  -1.010  -4.359  0.00  0.00    -0.491 OA
ATOM     22  C   UNL     1      -4.643  -2.435  -4.395  0.00  0.00    +0.277 C 
ENDBRANCH  13  21
ENDBRANCH  10  11
BRANCH   2  23
ATOM     23  N   UNL     1      -1.797  -4.528  -0.266  0.00  0.00    -0.345 N 
ATOM     24  H   UNL     1      -0.913  -4.130  -0.245  0.00  0.00    +0.143 HD
ATOM     25  H   UNL     1      -1.896  -5.482  -0.413  0.00  0.00    +0.143 HD
ENDBRANCH   2  23
BRANCH   1  26
ATOM     26  C   UNL     1      -1.493  -1.965   0.588  0.00  0.00    +0.339 C 
ATOM     27  O   UNL     1      -1.112  -1.890   1.742  0.00  0.00    -0.245 OA
BRANCH  26  28
ATOM     28  O   UNL     1      -0.678  -1.583  -0.419  0.00  0.00    -0.462 OA
BRANCH  28  30
ATOM     29  C   UNL     1       1.390  -0.719  -1.321  0.00  0.00    +0.048 C 
ATOM     30  C   UNL     1       0.618  -1.101  -0.057  0.00  0.00    +0.229 C 
ENDBRANCH  28  30
ENDBRANCH  26  28
ENDBRANCH   1  26
BRANCH   9  31
ATOM     31  C   UNL     1      -6.371  -1.664   1.252  0.00  0.00    +0.098 C 
ATOM     32  N   UNL     1      -7.275  -1.180   1.742  0.00  0.00    -0.191 NA
ENDBRANCH   9  31
BRANCH   6  33
ATOM     33  C   UNL     1      -6.411  -5.676  -2.518  0.00  0.00    +0.149 C 
BRANCH  33  34
ATOM     34  C   UNL     1      -7.798  -6.261  -2.593  0.00  0.00    +0.358 C 
ATOM     35  O   UNL     1      -8.300  -6.768  -1.605  0.00  0.00    -0.246 OA
ATOM     36  O   UNL     1      -8.417  -6.227  -3.643  0.00  0.00    -0.246 OA
ENDBRANCH  33  34
ENDBRANCH   6  33
TORSDOF 11
