REMARK  Name = ZINC32092494
REMARK  6 active torsions:
REMARK  status: ('A' for Active; 'I' for Inactive)
REMARK    1  A    between atoms: C_1  and  C_2
REMARK    2  A    between atoms: C_5  and  N_8
REMARK    3  A    between atoms: C_9  and  C_11
REMARK    4  A    between atoms: C_14  and  O_29
REMARK    5  A    between atoms: C_19  and  C_22
REMARK    6  A    between atoms: C_20  and  C_21
REMARK                            x       y       z     vdW  Elec       q    Type
REMARK                         _______ _______ _______ _____ _____    ______ ____
ROOT
ATOM      1  C   UNL     1       0.251  -6.276   1.153  0.00  0.00    +0.204 C 
ATOM      2  C   UNL     1      -0.962  -6.934   0.488  0.00  0.00    +0.131 C 
ATOM      3  C   UNL     1      -2.126  -7.022   1.434  0.00  0.00    +0.191 C 
ATOM      4  N   UNL     1      -1.979  -7.186   2.717  0.00  0.00    -0.198 NA
ATOM      5  C   UNL     1      -0.712  -7.249   3.225  0.00  0.00    +0.159 A 
ATOM      6  N   UNL     1       0.379  -6.819   2.508  0.00  0.00    -0.233 N 
ATOM      7  N   UNL     1       1.512  -7.006   3.290  0.00  0.00    -0.168 NA
ATOM      8  C   UNL     1       1.138  -7.534   4.442  0.00  0.00    +0.098 A 
ATOM      9  C   UNL     1      -0.264  -7.697   4.422  0.00  0.00    +0.021 A 
ATOM     10  C   UNL     1      -1.110  -8.266   5.532  0.00  0.00    +0.050 C 
ENDROOT
BRANCH   8  11
ATOM     11  C   UNL     1       2.039  -7.894   5.565  0.00  0.00    +0.003 A 
ATOM     12  C   UNL     1       1.850  -9.088   6.258  0.00  0.00    +0.013 A 
ATOM     13  C   UNL     1       2.690  -9.419   7.301  0.00  0.00    +0.039 A 
ATOM     14  C   UNL     1       3.720  -8.565   7.661  0.00  0.00    +0.123 A 
ATOM     15  C   UNL     1       3.911  -7.377   6.976  0.00  0.00    +0.039 A 
ATOM     16  C   UNL     1       3.079  -7.041   5.927  0.00  0.00    +0.013 A 
ATOM     17  F   UNL     1       4.540  -8.893   8.683  0.00  0.00    -0.205 F 
ENDBRANCH   8  11
BRANCH   1  19
ATOM     18  N   UNL     1      -0.108  -4.073   0.086  0.00  0.00    -0.284 N 
ATOM     19  C   UNL     1       0.048  -4.784   1.220  0.00  0.00    +0.242 C 
ATOM     20  O   UNL     1       0.025  -4.223   2.296  0.00  0.00    -0.273 OA
ATOM     21  H   UNL     1      -0.158  -4.529  -0.769  0.00  0.00    +0.155 HD
BRANCH  18  26
ATOM     22  C   UNL     1      -0.471   1.584   0.311  0.00  0.00    +0.044 C 
ATOM     23  C   UNL     1      -0.374   0.081   0.251  0.00  0.00    -0.050 A 
ATOM     24  C   UNL     1      -0.924  -0.686   1.262  0.00  0.00    +0.005 A 
ATOM     25  C   UNL     1      -0.837  -2.064   1.210  0.00  0.00    +0.023 A 
ATOM     26  C   UNL     1      -0.198  -2.678   0.141  0.00  0.00    +0.033 A 
ATOM     27  C   UNL     1       0.352  -1.904  -0.873  0.00  0.00    +0.023 A 
ATOM     28  C   UNL     1       0.258  -0.528  -0.817  0.00  0.00    +0.005 A 
ENDBRANCH  18  26
ENDBRANCH   1  19
BRANCH   3  29
ATOM     29  O   UNL     1      -3.374  -6.927   0.933  0.00  0.00    -0.495 OA
ATOM     30  H   UNL     1      -4.072  -6.992   1.599  0.00  0.00    +0.293 HD
ENDBRANCH   3  29
TORSDOF 4
