REMARK  Name = ZINC12446235
REMARK  6 active torsions:
REMARK  status: ('A' for Active; 'I' for Inactive)
REMARK    1  A    between atoms: C_1  and  C_2
REMARK    2  A    between atoms: C_4  and  C_36
REMARK    3  A    between atoms: N_8  and  S_9
REMARK    4  A    between atoms: S_9  and  C_12
REMARK    5  A    between atoms: C_25  and  C_28
REMARK    6  A    between atoms: C_31  and  C_34
REMARK                            x       y       z     vdW  Elec       q    Type
REMARK                         _______ _______ _______ _____ _____    ______ ____
ROOT
ATOM      1  C   UNL     1       1.607   2.371   1.596  0.00  0.00    +0.109 A 
ATOM      2  C   UNL     1       2.299   1.637   2.542  0.00  0.00    +0.030 A 
ATOM      3  C   UNL     1       2.443   2.132   3.822  0.00  0.00    +0.025 A 
ATOM      4  C   UNL     1       1.891   3.364   4.156  0.00  0.00    +0.031 A 
ATOM      5  C   UNL     1       1.195   4.099   3.215  0.00  0.00    -0.018 A 
ATOM      6  C   UNL     1       1.063   3.595   1.927  0.00  0.00    +0.034 A 
ATOM      7  C   UNL     1       0.570   5.434   3.518  0.00  0.00    +0.049 C 
ATOM      8  C   UNL     1      -0.925   5.308   3.258  0.00  0.00    -0.023 C 
ATOM      9  C   UNL     1      -1.564   5.059   4.373  0.00  0.00    -0.030 C 
ATOM     10  C   UNL     1      -0.592   4.987   5.537  0.00  0.00    +0.033 C 
ATOM     11  C   UNL     1       0.629   5.782   5.017  0.00  0.00    +0.029 C 
ATOM     12  C   UNL     1       1.911   5.297   5.667  0.00  0.00    +0.105 C 
ATOM     13  N   UNL     1       2.052   3.852   5.458  0.00  0.00    -0.336 N 
ATOM     14  H   UNL     1       2.250   3.255   6.197  0.00  0.00    +0.147 HD
ENDROOT
BRANCH  12  15
ATOM     15  C   UNL     1       3.087   6.011   5.051  0.00  0.00    -0.027 A 
ATOM     16  C   UNL     1       3.590   5.585   3.835  0.00  0.00    +0.006 A 
ATOM     17  C   UNL     1       4.663   6.237   3.262  0.00  0.00    +0.015 A 
ATOM     18  C   UNL     1       5.248   7.322   3.919  0.00  0.00    +0.063 A 
ATOM     19  C   UNL     1       4.739   7.742   5.150  0.00  0.00    +0.015 A 
ATOM     20  C   UNL     1       3.662   7.085   5.708  0.00  0.00    +0.006 A 
BRANCH  18  21
ATOM     21  C   UNL     1       6.400   8.021   3.315  0.00  0.00    +0.387 C 
ATOM     22  O   UNL     1       6.907   8.964   3.889  0.00  0.00    -0.241 OA
ATOM     23  O   UNL     1       6.889   7.613   2.128  0.00  0.00    -0.241 OA
ENDBRANCH  18  21
ENDBRANCH  12  15
BRANCH   1  24
ATOM     24  S   UNL     1       1.423   1.743  -0.040  0.00  0.00    +0.075 S 
ATOM     25  O   UNL     1       0.191   2.250  -0.534  0.00  0.00    -0.150 OA
ATOM     26  O   UNL     1       1.703   0.351   0.025  0.00  0.00    -0.150 OA
BRANCH  24  34
ATOM     27  C   UNL     1       5.883   0.591   2.028  0.00  0.00    +0.066 C 
ATOM     28  C   UNL     1       5.526   1.250   0.721  0.00  0.00    +0.044 A 
ATOM     29  C   UNL     1       6.512   1.551  -0.205  0.00  0.00    +0.046 A 
ATOM     30  C   UNL     1       6.140   2.156  -1.396  0.00  0.00    +0.044 A 
ATOM     31  N   UNL     1       4.864   2.427  -1.611  0.00  0.00    -0.219 NA
ATOM     32  C   UNL     1       3.945   2.126  -0.704  0.00  0.00    +0.235 A 
ATOM     33  N   UNL     1       4.268   1.552   0.446  0.00  0.00    -0.219 NA
ATOM     34  N   UNL     1       2.618   2.424  -0.962  0.00  0.00    -0.184 N 
ATOM     35  C   UNL     1       7.178   2.502  -2.432  0.00  0.00    +0.066 C 
ATOM     36  H   UNL     1       2.388   3.027  -1.686  0.00  0.00    +0.177 HD
ENDBRANCH  24  34
ENDBRANCH   1  24
TORSDOF 4
