REMARK  Name = ZINC36598914
REMARK  20 active torsions:
REMARK  status: ('A' for Active; 'I' for Inactive)
REMARK    1  A    between atoms: C_1  and  C_2
REMARK    2  A    between atoms: C_2  and  C_3
REMARK    3  A    between atoms: C_3  and  C_4
REMARK    4  A    between atoms: C_3  and  C_6
REMARK    5  A    between atoms: C_4  and  C_5
REMARK    6  A    between atoms: C_6  and  C_8
REMARK    7  A    between atoms: C_6  and  N_19
REMARK    8  A    between atoms: N_10  and  C_11
REMARK    9  A    between atoms: C_11  and  C_12
REMARK   10  A    between atoms: C_11  and  C_13
REMARK   11  A    between atoms: C_11  and  C_14
REMARK   12  A    between atoms: C_14  and  C_15
REMARK   13  A    between atoms: C_15  and  C_16
REMARK   14  A    between atoms: C_15  and  C_17
REMARK   15  A    between atoms: C_15  and  C_18
REMARK   16  A    between atoms: N_19  and  C_20
REMARK   17  A    between atoms: C_20  and  C_21
REMARK   18  A    between atoms: C_24  and  C_26
REMARK   19  A    between atoms: C_27  and  C_29
REMARK   20  A    between atoms: C_29  and  C_30
REMARK                            x       y       z     vdW  Elec       q    Type
REMARK                         _______ _______ _______ _____ _____    ______ ____
ROOT
ATOM      1  N   UNL     1      -0.884  -0.321  -5.066  0.00  0.00    -0.282 N 
ATOM      2  C   UNL     1      -1.789  -1.017  -5.782  0.00  0.00    +0.221 C 
ATOM      3  O   UNL     1      -2.944  -1.069  -5.413  0.00  0.00    -0.275 OA
ENDROOT
BRANCH   1   4
ATOM      4  C   UNL     1      -1.294   0.373  -3.842  0.00  0.00    +0.165 C 
BRANCH   4   5
ATOM      5  C   UNL     1      -0.964   1.838  -3.962  0.00  0.00    +0.234 C 
ATOM      6  O   UNL     1      -0.440   2.262  -4.970  0.00  0.00    -0.274 OA
ATOM      7  N   UNL     1      -1.250   2.678  -2.947  0.00  0.00    -0.309 N 
ATOM      8  H   UNL     1      -1.579   2.327  -2.105  0.00  0.00    +0.149 HD
BRANCH   7   9
ATOM      9  C   UNL     1      -1.064   4.121  -3.116  0.00  0.00    +0.030 C 
ATOM     10  C   UNL     1       0.431   4.434  -3.216  0.00  0.00    +0.031 C 
ATOM     11  C   UNL     1      -1.767   4.580  -4.396  0.00  0.00    +0.031 C 
BRANCH   9  12
ATOM     12  C   UNL     1      -1.660   4.857  -1.915  0.00  0.00    +0.031 C 
BRANCH  12  13
ATOM     13  C   UNL     1      -3.010   4.234  -1.554  0.00  0.00    -0.036 C 
ATOM     14  C   UNL     1      -2.782   2.943  -0.765  0.00  0.00    +0.010 C 
ATOM     15  C   UNL     1      -3.814   5.218  -0.702  0.00  0.00    +0.010 C 
ATOM     16  C   UNL     1      -3.784   3.918  -2.835  0.00  0.00    +0.010 C 
ENDBRANCH  12  13
ENDBRANCH   9  12
ENDBRANCH   7   9
ENDBRANCH   4   5
BRANCH   4  17
ATOM     17  C   UNL     1      -0.550  -0.222  -2.645  0.00  0.00    +0.018 C 
BRANCH  17  19
ATOM     18  C   UNL     1      -2.246  -2.042  -2.409  0.00  0.00    +0.004 C 
ATOM     19  C   UNL     1      -0.761  -1.737  -2.615  0.00  0.00    +0.002 C 
ENDBRANCH  17  19
BRANCH  17  20
ATOM     20  C   UNL     1       0.944   0.083  -2.770  0.00  0.00    +0.002 C 
ATOM     21  C   UNL     1       1.202   1.539  -2.378  0.00  0.00    +0.004 C 
ENDBRANCH  17  20
ENDBRANCH   4  17
ENDBRANCH   1   4
BRANCH   1  22
ATOM     22  C   UNL     1       0.510  -0.259  -5.511  0.00  0.00    +0.182 C 
BRANCH  22  23
ATOM     23  C   UNL     1       1.212  -1.542  -5.148  0.00  0.00    +0.122 A 
ATOM     24  C   UNL     1       1.347  -2.617  -5.946  0.00  0.00    +0.046 A 
ATOM     25  C   UNL     1       2.066  -3.586  -5.209  0.00  0.00    +0.045 A 
ATOM     26  C   UNL     1       2.328  -3.045  -4.005  0.00  0.00    +0.102 A 
ATOM     27  O   UNL     1       1.813  -1.805  -3.977  0.00  0.00    -0.463 OA
ATOM     28  C   UNL     1       3.076  -3.715  -2.882  0.00  0.00    +0.086 C 
ENDBRANCH  22  23
ENDBRANCH   1  22
BRANCH   2  29
ATOM     29  C   UNL     1      -1.367  -1.731  -7.040  0.00  0.00    +0.131 C 
BRANCH  29  30
ATOM     30  C   UNL     1      -2.559  -2.428  -7.646  0.00  0.00    -0.035 A 
ATOM     31  C   UNL     1      -2.859  -3.727  -7.278  0.00  0.00    +0.008 A 
ATOM     32  C   UNL     1      -3.950  -4.370  -7.831  0.00  0.00    +0.050 A 
ATOM     33  C   UNL     1      -4.747  -3.713  -8.755  0.00  0.00    +0.166 A 
ATOM     34  C   UNL     1      -4.445  -2.405  -9.125  0.00  0.00    +0.166 A 
ATOM     35  C   UNL     1      -3.352  -1.765  -8.563  0.00  0.00    +0.053 A 
ATOM     36  O   UNL     1      -5.368  -1.986 -10.039  0.00  0.00    -0.453 OA
ATOM     37  C   UNL     1      -5.996  -3.186 -10.529  0.00  0.00    +0.466 C 
ATOM     38  O   UNL     1      -5.860  -4.114  -9.437  0.00  0.00    -0.453 OA
ENDBRANCH  29  30
ENDBRANCH   2  29
TORSDOF 12
