REMARK  Name = ZINC12483317
REMARK  8 active torsions:
REMARK  status: ('A' for Active; 'I' for Inactive)
REMARK    1  A    between atoms: C_4  and  S_7
REMARK    2  A    between atoms: S_7  and  C_8
REMARK    3  A    between atoms: C_10  and  O_33
REMARK    4  A    between atoms: C_12  and  N_48
REMARK    5  A    between atoms: C_21  and  C_22
REMARK    6  A    between atoms: C_21  and  N_48
REMARK    7  A    between atoms: C_25  and  O_28
REMARK    8  A    between atoms: O_28  and  C_29
REMARK                            x       y       z     vdW  Elec       q    Type
REMARK                         _______ _______ _______ _____ _____    ______ ____
ROOT
ATOM      1  C   UNL     1      -1.215  -1.423  -2.365  0.00  0.00    +0.134 C 
ATOM      2  C   UNL     1      -1.951  -0.459  -1.428  0.00  0.00    +0.121 C 
ATOM      3  C   UNL     1      -1.398  -0.614  -0.006  0.00  0.00    -0.009 C 
ATOM      4  C   UNL     1      -1.436  -2.104   0.373  0.00  0.00    +0.136 C 
ATOM      5  C   UNL     1      -2.839  -2.672  -0.078  0.00  0.00    +0.193 C 
ATOM      6  O   UNL     1      -2.623  -3.139  -1.422  0.00  0.00    -0.348 OA
ATOM      7  C   UNL     1      -1.257  -2.834  -1.758  0.00  0.00    +0.266 C 
ATOM      8  O   UNL     1      -0.523  -2.795  -0.515  0.00  0.00    -0.346 OA
ENDROOT
BRANCH   3   9
ATOM      9  N   UNL     1      -0.006  -0.128   0.031  0.00  0.00    +0.387 N 
ATOM     10  H   UNL     1       0.074   0.716  -0.549  0.00  0.00    -0.085 HD
ATOM     11  H   UNL     1       0.617  -0.857  -0.337  0.00  0.00    -0.085 HD
BRANCH   9  12
ATOM     12  C   UNL     1       0.387   0.194   1.415  0.00  0.00    -0.046 C 
BRANCH  12  13
ATOM     13  C   UNL     1       1.811   0.688   1.423  0.00  0.00    -0.064 A 
ATOM     14  C   UNL     1       2.851  -0.209   1.583  0.00  0.00    +0.005 A 
ATOM     15  C   UNL     1       4.158   0.240   1.584  0.00  0.00    +0.046 A 
ATOM     16  C   UNL     1       4.425   1.593   1.436  0.00  0.00    +0.130 A 
ATOM     17  C   UNL     1       3.380   2.491   1.281  0.00  0.00    +0.046 A 
ATOM     18  C   UNL     1       2.075   2.037   1.275  0.00  0.00    +0.005 A 
BRANCH  16  19
ATOM     19  O   UNL     1       5.710   2.037   1.442  0.00  0.00    -0.406 OA
BRANCH  19  20
ATOM     20  C   UNL     1       6.735   1.056   1.606  0.00  0.00    +0.575 C 
ATOM     21  F   UNL     1       6.664   0.128   0.561  0.00  0.00    -0.133 F 
ATOM     22  F   UNL     1       7.986   1.682   1.589  0.00  0.00    -0.133 F 
ATOM     23  F   UNL     1       6.560   0.398   2.828  0.00  0.00    -0.133 F 
ENDBRANCH  19  20
ENDBRANCH  16  19
ENDBRANCH  12  13
ENDBRANCH   9  12
ENDBRANCH   3   9
BRANCH   2  24
ATOM     24  O   UNL     1      -3.347  -0.763  -1.432  0.00  0.00    -0.392 OA
ATOM     25  H   UNL     1      -3.764  -0.685  -2.301  0.00  0.00    +0.210 HD
ENDBRANCH   2  24
BRANCH   1  26
ATOM     26  S   UNL     1       0.510  -0.892  -2.550  0.00  0.00    -0.114 S 
BRANCH  26  30
ATOM     27  C   UNL     1       2.147  -3.599  -5.792  0.00  0.00    +0.000 A 
ATOM     28  C   UNL     1       1.600  -2.374  -6.127  0.00  0.00    +0.001 A 
ATOM     29  C   UNL     1       1.100  -1.546  -5.142  0.00  0.00    +0.015 A 
ATOM     30  C   UNL     1       1.147  -1.945  -3.812  0.00  0.00    +0.008 A 
ATOM     31  C   UNL     1       1.702  -3.175  -3.478  0.00  0.00    +0.015 A 
ATOM     32  C   UNL     1       2.195  -3.999  -4.469  0.00  0.00    +0.001 A 
ENDBRANCH  26  30
ENDBRANCH   1  26
TORSDOF 8
