REMARK  Name = ZINC35578342
REMARK  5 active torsions:
REMARK  status: ('A' for Active; 'I' for Inactive)
REMARK    1  A    between atoms: C_4  and  N_7
REMARK    2  A    between atoms: C_8  and  N_32
REMARK    3  A    between atoms: C_10  and  C_24
REMARK    4  A    between atoms: N_16  and  C_17
REMARK    5  A    between atoms: C_17  and  C_18
REMARK                            x       y       z     vdW  Elec       q    Type
REMARK                         _______ _______ _______ _____ _____    ______ ____
ROOT
ATOM      1  N   UNL     1       3.793  -0.482   0.323  0.00  0.00    -0.216 N 
ATOM      2  C   UNL     1       4.016  -1.692   0.875  0.00  0.00    +0.131 A 
ATOM      3  C   UNL     1       5.281  -2.106   0.478  0.00  0.00    +0.086 A 
ATOM      4  C   UNL     1       6.090  -3.243   0.701  0.00  0.00    +0.091 A 
ATOM      5  N   UNL     1       7.289  -3.283   0.131  0.00  0.00    -0.214 NA
ATOM      6  C   UNL     1       7.742  -2.294  -0.634  0.00  0.00    +0.218 A 
ATOM      7  N   UNL     1       7.055  -1.200  -0.893  0.00  0.00    -0.193 NA
ATOM      8  C   UNL     1       5.822  -1.033  -0.377  0.00  0.00    +0.189 A 
ATOM      9  N   UNL     1       4.901  -0.097  -0.441  0.00  0.00    -0.144 NA
ATOM     10  N   UNL     1       9.003  -2.420  -1.187  0.00  0.00    -0.309 N 
ATOM     11  H   UNL     1       9.532  -3.215  -1.013  0.00  0.00    +0.149 HD
ENDROOT
BRANCH   4  12
ATOM     12  C   UNL     1       5.615  -4.359   1.547  0.00  0.00    +0.039 A 
ATOM     13  C   UNL     1       4.437  -5.034   1.221  0.00  0.00    +0.013 A 
ATOM     14  C   UNL     1       3.998  -6.074   2.012  0.00  0.00    +0.004 A 
ATOM     15  C   UNL     1       4.721  -6.452   3.130  0.00  0.00    +0.041 A 
ATOM     16  C   UNL     1       5.890  -5.789   3.463  0.00  0.00    +0.159 A 
ATOM     17  C   UNL     1       6.345  -4.747   2.673  0.00  0.00    +0.168 A 
ATOM     18  F   UNL     1       7.489  -4.103   2.993  0.00  0.00    -0.202 F 
ATOM     19  F   UNL     1       6.590  -6.163   4.556  0.00  0.00    -0.202 F 
ENDBRANCH   4  12
BRANCH   1  23
ATOM     20  C   UNL     1       0.318   1.765   0.804  0.00  0.00    +0.000 A 
ATOM     21  C   UNL     1       1.542   2.401   0.702  0.00  0.00    +0.002 A 
ATOM     22  C   UNL     1       2.696   1.659   0.543  0.00  0.00    +0.028 A 
ATOM     23  C   UNL     1       2.626   0.273   0.485  0.00  0.00    +0.067 A 
ATOM     24  C   UNL     1       1.395  -0.362   0.589  0.00  0.00    +0.028 A 
ATOM     25  C   UNL     1       0.245   0.386   0.748  0.00  0.00    +0.002 A 
ENDBRANCH   1  23
BRANCH   2  26
ATOM     26  N   UNL     1       3.145  -2.391   1.689  0.00  0.00    -0.342 N 
ATOM     27  H   UNL     1       2.318  -1.978   1.983  0.00  0.00    +0.144 HD
ATOM     28  H   UNL     1       3.361  -3.295   1.966  0.00  0.00    +0.144 HD
ENDBRANCH   2  26
BRANCH  10  29
ATOM     29  C   UNL     1       9.541  -1.354  -2.036  0.00  0.00    +0.141 C 
BRANCH  29  30
ATOM     30  C   UNL     1      10.920  -1.736  -2.508  0.00  0.00    -0.012 A 
ATOM     31  C   UNL     1      12.038  -1.392  -1.762  0.00  0.00    +0.008 A 
ATOM     32  C   UNL     1      13.287  -1.763  -2.235  0.00  0.00    +0.020 A 
ATOM     33  C   UNL     1      13.376  -2.460  -3.426  0.00  0.00    +0.111 A 
ATOM     34  N   UNL     1      12.292  -2.770  -4.109  0.00  0.00    -0.263 NA
ATOM     35  C   UNL     1      11.087  -2.438  -3.686  0.00  0.00    +0.115 A 
ENDBRANCH  29  30
ENDBRANCH  10  29
TORSDOF 5
