REMARK  Name = ZINC35245489
REMARK  12 active torsions:
REMARK  status: ('A' for Active; 'I' for Inactive)
REMARK    1  A    between atoms: C_1  and  C_2
REMARK    2  A    between atoms: C_6  and  N_9
REMARK    3  A    between atoms: C_7  and  C_8
REMARK    4  A    between atoms: N_12  and  C_13
REMARK    5  A    between atoms: C_17  and  C_19
REMARK    6  A    between atoms: C_21  and  C_29
REMARK    7  A    between atoms: C_22  and  C_28
REMARK    8  A    between atoms: N_23  and  C_27
REMARK    9  A    between atoms: C_29  and  O_31
REMARK   10  A    between atoms: O_31  and  C_32
REMARK   11  A    between atoms: C_32  and  C_33
REMARK   12  A    between atoms: C_32  and  C_34
REMARK                            x       y       z     vdW  Elec       q    Type
REMARK                         _______ _______ _______ _____ _____    ______ ____
ROOT
ATOM      1  C   UNL     1       1.786  -5.852   4.800  0.00  0.00    +0.035 A 
ATOM      2  C   UNL     1       1.974  -6.277   3.491  0.00  0.00    +0.023 A 
ATOM      3  C   UNL     1       1.650  -7.571   3.134  0.00  0.00    +0.002 A 
ATOM      4  C   UNL     1       1.138  -8.443   4.077  0.00  0.00    +0.006 A 
ATOM      5  C   UNL     1       0.950  -8.023   5.381  0.00  0.00    -0.021 A 
ATOM      6  C   UNL     1       1.278  -6.732   5.747  0.00  0.00    +0.029 A 
ENDROOT
BRANCH   5   7
ATOM      7  C   UNL     1       0.392  -8.977   6.406  0.00  0.00    +0.144 C 
ATOM      8  C   UNL     1       1.538  -9.812   6.941  0.00  0.00    +0.078 C 
ATOM      9  C   UNL     1       1.451 -11.153   6.813  0.00  0.00    +0.024 C 
ATOM     10  N   UNL     1       0.367 -11.737   6.222  0.00  0.00    -0.262 N 
ATOM     11  C   UNL     1      -0.672 -11.048   5.734  0.00  0.00    +0.307 C 
ATOM     12  O   UNL     1      -1.593 -11.656   5.225  0.00  0.00    -0.252 OA
ATOM     13  N   UNL     1      -0.730  -9.703   5.787  0.00  0.00    -0.288 N 
ATOM     14  C   UNL     1       0.340 -13.197   6.117  0.00  0.00    +0.139 C 
ATOM     15  C   UNL     1       2.570 -12.021   7.331  0.00  0.00    +0.061 C 
ATOM     16  H   UNL     1      -1.492  -9.225   5.426  0.00  0.00    +0.151 HD
BRANCH   8  17
ATOM     17  C   UNL     1       2.661  -9.206   7.552  0.00  0.00    +0.339 C 
ATOM     18  O   UNL     1       3.622  -9.883   7.864  0.00  0.00    -0.245 OA
BRANCH  17  19
ATOM     19  O   UNL     1       2.666  -7.878   7.788  0.00  0.00    -0.459 OA
BRANCH  19  20
ATOM     20  C   UNL     1       3.832  -7.333   8.409  0.00  0.00    +0.171 C 
ATOM     21  C   UNL     1       4.832  -6.910   7.331  0.00  0.00    +0.052 C 
ATOM     22  C   UNL     1       3.442  -6.116   9.249  0.00  0.00    +0.052 C 
ENDBRANCH  19  20
ENDBRANCH  17  19
ENDBRANCH   8  17
ENDBRANCH   5   7
BRANCH   1  26
ATOM     23  N   UNL     1       2.390  -2.296   4.590  0.00  0.00    -0.269 N 
ATOM     24  C   UNL     1       1.971  -3.539   4.277  0.00  0.00    +0.308 C 
ATOM     25  O   UNL     1       1.465  -3.755   3.193  0.00  0.00    -0.252 OA
ATOM     26  N   UNL     1       2.113  -4.542   5.166  0.00  0.00    -0.269 N 
ATOM     27  H   UNL     1       2.868  -2.140   5.419  0.00  0.00    +0.156 HD
ATOM     28  H   UNL     1       2.443  -4.355   6.059  0.00  0.00    +0.156 HD
BRANCH  23  34
ATOM     29  C   UNL     1       3.522   2.200   2.955  0.00  0.00    +0.044 C 
ATOM     30  C   UNL     1       2.667   0.960   2.905  0.00  0.00    -0.046 A 
ATOM     31  C   UNL     1       1.627   0.874   1.997  0.00  0.00    +0.004 A 
ATOM     32  C   UNL     1       0.840  -0.262   1.948  0.00  0.00    +0.002 A 
ATOM     33  C   UNL     1       1.090  -1.315   2.807  0.00  0.00    +0.023 A 
ATOM     34  C   UNL     1       2.134  -1.232   3.719  0.00  0.00    +0.038 A 
ATOM     35  C   UNL     1       2.926  -0.092   3.762  0.00  0.00    -0.026 A 
ATOM     36  C   UNL     1       4.063   0.000   4.746  0.00  0.00    +0.046 C 
ENDBRANCH  23  34
ENDBRANCH   1  26
TORSDOF 6
