REMARK  Name = ZINC12493633
REMARK  15 active torsions:
REMARK  status: ('A' for Active; 'I' for Inactive)
REMARK    1  A    between atoms: C_1  and  C_2
REMARK    2  A    between atoms: C_2  and  C_3
REMARK    3  A    between atoms: C_3  and  C_5
REMARK    4  A    between atoms: C_3  and  N_67
REMARK    5  A    between atoms: N_9  and  C_10
REMARK    6  A    between atoms: C_10  and  C_11
REMARK    7  A    between atoms: C_10  and  C_12
REMARK    8  A    between atoms: C_10  and  C_13
REMARK    9  A    between atoms: C_14  and  C_15
REMARK   10  A    between atoms: C_14  and  N_67
REMARK   11  A    between atoms: C_20  and  C_21
REMARK   12  A    between atoms: C_20  and  N_67
REMARK   13  A    between atoms: C_25  and  O_34
REMARK   14  A    between atoms: O_34  and  C_35
REMARK   15  A    between atoms: C_35  and  C_36
REMARK                            x       y       z     vdW  Elec       q    Type
REMARK                         _______ _______ _______ _____ _____    ______ ____
ROOT
ATOM      1  N   UNL     1      -2.281   1.132   1.723  0.00  0.00    +0.392 N 
ATOM      2  H   UNL     1      -2.649   1.618   2.550  0.00  0.00    -0.080 HD
ENDROOT
BRANCH   1   3
ATOM      3  C   UNL     1      -1.039   1.803   1.285  0.00  0.00    +0.003 C 
BRANCH   3   4
ATOM      4  C   UNL     1      -0.679   1.383  -0.117  0.00  0.00    +0.139 A 
ATOM      5  N   UNL     1      -1.489   1.311  -1.145  0.00  0.00    -0.115 NA
ATOM      6  N   UNL     1      -0.806   0.914  -2.163  0.00  0.00    -0.023 NA
ATOM      7  N   UNL     1       0.419   0.730  -1.810  0.00  0.00    -0.043 NA
ATOM      8  N   UNL     1       0.538   1.014  -0.557  0.00  0.00    -0.226 N 
BRANCH   8   9
ATOM      9  C   UNL     1       1.767   0.944   0.237  0.00  0.00    +0.059 C 
ATOM     10  C   UNL     1       1.635  -0.165   1.284  0.00  0.00    +0.036 C 
ATOM     11  C   UNL     1       2.952   0.640  -0.681  0.00  0.00    +0.036 C 
ATOM     12  C   UNL     1       1.997   2.283   0.940  0.00  0.00    +0.036 C 
ENDBRANCH   8   9
ENDBRANCH   3   4
BRANCH   3  14
ATOM     13  C   UNL     1      -1.607   3.745   2.750  0.00  0.00    +0.002 C 
ATOM     14  C   UNL     1      -1.259   3.316   1.323  0.00  0.00    -0.011 C 
ENDBRANCH   3  14
ENDBRANCH   1   3
BRANCH   1  15
ATOM     15  C   UNL     1      -1.997  -0.274   2.079  0.00  0.00    -0.034 C 
BRANCH  15  16
ATOM     16  C   UNL     1      -1.440  -0.313   3.478  0.00  0.00    -0.027 A 
ATOM     17  C   UNL     1      -2.090  -0.506   4.652  0.00  0.00    +0.009 A 
ATOM     18  C   UNL     1      -1.365  -0.503   5.829  0.00  0.00    +0.008 A 
ATOM     19  C   UNL     1      -0.025  -0.308   5.775  0.00  0.00    +0.045 A 
ATOM     20  S   UNL     1       0.251  -0.126   4.021  0.00  0.00    -0.103 S 
ENDBRANCH  15  16
ENDBRANCH   1  15
BRANCH   1  21
ATOM     21  C   UNL     1      -3.292   1.186   0.646  0.00  0.00    -0.038 C 
BRANCH  21  22
ATOM     22  C   UNL     1      -4.641   0.857   1.231  0.00  0.00    -0.017 A 
ATOM     23  C   UNL     1      -5.162  -0.381   1.067  0.00  0.00    +0.015 A 
ATOM     24  C   UNL     1      -6.472  -0.682   1.649  0.00  0.00    +0.004 A 
ATOM     25  C   UNL     1      -7.047  -1.949   1.511  0.00  0.00    +0.055 A 
ATOM     26  C   UNL     1      -8.285  -2.200   2.065  0.00  0.00    +0.121 A 
ATOM     27  C   UNL     1      -8.961  -1.199   2.759  0.00  0.00    +0.048 A 
ATOM     28  C   UNL     1      -8.405   0.053   2.901  0.00  0.00    +0.032 A 
ATOM     29  C   UNL     1      -7.157   0.327   2.350  0.00  0.00    +0.077 A 
ATOM     30  N   UNL     1      -6.582   1.573   2.482  0.00  0.00    -0.192 N 
ATOM     31  C   UNL     1      -5.359   1.845   1.942  0.00  0.00    +0.181 A 
ATOM     32  N   UNL     1      -5.089   3.109   2.237  0.00  0.00    -0.108 NA
ATOM     33  N   UNL     1      -6.052   3.626   2.913  0.00  0.00    -0.022 NA
ATOM     34  N   UNL     1      -6.991   2.763   3.102  0.00  0.00    -0.039 NA
BRANCH  26  35
ATOM     35  O   UNL     1      -8.849  -3.430   1.934  0.00  0.00    -0.492 OA
BRANCH  35  36
ATOM     36  C   UNL     1     -10.132  -3.623   2.532  0.00  0.00    +0.225 C 
ATOM     37  C   UNL     1     -10.601  -5.058   2.281  0.00  0.00    +0.048 C 
ENDBRANCH  35  36
ENDBRANCH  26  35
ENDBRANCH  21  22
ENDBRANCH   1  21
TORSDOF 10
