REMARK  Name = ZINC30825193
REMARK  10 active torsions:
REMARK  status: ('A' for Active; 'I' for Inactive)
REMARK    1  A    between atoms: C_1  and  C_2
REMARK    2  A    between atoms: C_2  and  C_3
REMARK    3  A    between atoms: C_2  and  C_4
REMARK    4  A    between atoms: C_2  and  C_5
REMARK    5  A    between atoms: C_7  and  C_15
REMARK    6  A    between atoms: C_9  and  C_11
REMARK    7  A    between atoms: C_11  and  C_12
REMARK    8  A    between atoms: C_11  and  C_13
REMARK    9  A    between atoms: C_11  and  C_14
REMARK   10  A    between atoms: N_21  and  C_24
REMARK                            x       y       z     vdW  Elec       q    Type
REMARK                         _______ _______ _______ _____ _____    ______ ____
ROOT
ATOM      1  C   UNL     1       3.059   0.108   3.015  0.00  0.00    +0.166 A 
ATOM      2  N   UNL     1       2.590  -1.120   3.067  0.00  0.00    -0.128 NA
ATOM      3  N   UNL     1       1.715  -1.298   2.138  0.00  0.00    -0.122 NA
ATOM      4  C   UNL     1       1.578  -0.201   1.445  0.00  0.00    +0.195 A 
ATOM      5  N   UNL     1       2.422   0.736   1.976  0.00  0.00    -0.285 N 
ATOM      6  C   UNL     1       2.582   2.110   1.514  0.00  0.00    +0.235 C 
ATOM      7  N   UNL     1       2.092   2.264   0.141  0.00  0.00    -0.301 N 
ATOM      8  C   UNL     1       0.669   1.911   0.017  0.00  0.00    +0.184 C 
ATOM      9  S   UNL     1       0.522   0.101   0.063  0.00  0.00    -0.067 S 
ENDROOT
BRANCH   7  10
ATOM     10  C   UNL     1       2.329   3.546  -0.329  0.00  0.00    +0.046 A 
ATOM     11  C   UNL     1       1.722   4.665   0.283  0.00  0.00    +0.020 A 
ATOM     12  C   UNL     1       0.864   4.526   1.383  0.00  0.00    +0.012 A 
ATOM     13  C   UNL     1       0.303   5.634   1.943  0.00  0.00    +0.001 A 
ATOM     14  C   UNL     1       0.571   6.903   1.437  0.00  0.00    +0.002 A 
ATOM     15  C   UNL     1       1.399   7.073   0.370  0.00  0.00    +0.026 A 
ATOM     16  C   UNL     1       1.996   5.953  -0.235  0.00  0.00    +0.048 A 
ATOM     17  N   UNL     1       2.811   6.085  -1.284  0.00  0.00    -0.358 N 
ATOM     18  C   UNL     1       3.388   5.051  -1.871  0.00  0.00    +0.021 A 
ATOM     19  C   UNL     1       3.175   3.762  -1.413  0.00  0.00    -0.007 A 
ATOM     20  C   UNL     1       3.818   2.556  -2.045  0.00  0.00    +0.039 C 
ATOM     21  C   UNL     1       4.341   2.893  -3.439  0.00  0.00    +0.005 C 
ATOM     22  C   UNL     1       5.199   4.160  -3.340  0.00  0.00    +0.006 C 
ATOM     23  C   UNL     1       4.279   5.344  -3.053  0.00  0.00    +0.053 C 
ATOM     24  H   UNL     1       3.025   7.084  -1.692  0.00  0.00    +0.166 HD
ENDBRANCH   7  10
BRANCH   1  27
ATOM     25  C   UNL     1       5.184   2.629   4.813  0.00  0.00    -0.041 A 
ATOM     26  C   UNL     1       4.230   2.084   3.978  0.00  0.00    +0.015 A 
ATOM     27  C   UNL     1       4.079   0.699   3.907  0.00  0.00    +0.020 A 
ATOM     28  C   UNL     1       4.891  -0.127   4.686  0.00  0.00    +0.015 A 
ATOM     29  C   UNL     1       5.845   0.431   5.512  0.00  0.00    -0.041 A 
ATOM     30  C   UNL     1       5.990   1.805   5.578  0.00  0.00    +0.008 A 
BRANCH  25  32
ATOM     31  C   UNL     1       4.344   4.798   3.954  0.00  0.00    +0.015 C 
ATOM     32  C   UNL     1       5.348   4.125   4.891  0.00  0.00    -0.013 C 
ATOM     33  C   UNL     1       5.098   4.591   6.327  0.00  0.00    +0.015 C 
ATOM     34  C   UNL     1       6.770   4.504   4.473  0.00  0.00    +0.015 C 
ENDBRANCH  25  32
BRANCH  29  35
ATOM     35  C   UNL     1       6.728  -0.459   6.349  0.00  0.00    -0.013 C 
ATOM     36  C   UNL     1       6.434  -0.220   7.831  0.00  0.00    +0.015 C 
ATOM     37  C   UNL     1       6.449  -1.923   6.004  0.00  0.00    +0.015 C 
ATOM     38  C   UNL     1       8.195  -0.138   6.062  0.00  0.00    +0.015 C 
ENDBRANCH  29  35
ENDBRANCH   1  27
TORSDOF 4
