REMARK  Name = ZINC66761142
REMARK  8 active torsions:
REMARK  status: ('A' for Active; 'I' for Inactive)
REMARK    1  A    between atoms: C_1  and  C_2
REMARK    2  A    between atoms: C_2  and  C_3
REMARK    3  A    between atoms: C_3  and  N_4
REMARK    4  A    between atoms: C_10  and  N_13
REMARK    5  A    between atoms: C_14  and  C_16
REMARK    6  A    between atoms: C_16  and  N_17
REMARK    7  A    between atoms: N_20  and  C_21
REMARK    8  A    between atoms: C_21  and  C_22
REMARK                            x       y       z     vdW  Elec       q    Type
REMARK                         _______ _______ _______ _____ _____    ______ ____
ROOT
ATOM      1  N   UNL     1       2.010  -2.754  -5.457  0.00  0.00    -0.284 N 
ATOM      2  C   UNL     1       2.190  -2.981  -6.774  0.00  0.00    +0.234 C 
ATOM      3  O   UNL     1       1.230  -3.112  -7.503  0.00  0.00    -0.274 OA
ATOM      4  H   UNL     1       2.774  -2.569  -4.888  0.00  0.00    +0.155 HD
ENDROOT
BRANCH   1  11
ATOM      5  N   UNL     1       0.369  -0.412  -2.046  0.00  0.00    +0.385 N 
ATOM      6  C   UNL     1      -0.838  -1.265  -1.959  0.00  0.00    -0.042 C 
ATOM      7  C   UNL     1      -0.830  -2.113  -3.210  0.00  0.00    -0.061 A 
ATOM      8  C   UNL     1      -1.825  -2.846  -3.832  0.00  0.00    +0.002 A 
ATOM      9  C   UNL     1      -1.549  -3.547  -4.991  0.00  0.00    +0.002 A 
ATOM     10  C   UNL     1      -0.279  -3.519  -5.532  0.00  0.00    +0.023 A 
ATOM     11  C   UNL     1       0.722  -2.784  -4.911  0.00  0.00    +0.035 A 
ATOM     12  C   UNL     1       0.444  -2.080  -3.748  0.00  0.00    -0.041 A 
ATOM     13  C   UNL     1       1.309  -1.210  -2.865  0.00  0.00    -0.040 C 
ATOM     14  H   UNL     1       0.753  -0.244  -1.128  0.00  0.00    -0.081 HD
BRANCH   5  15
ATOM     15  C   UNL     1       0.055   0.859  -2.713  0.00  0.00    -0.078 C 
BRANCH  15  17
ATOM     16  C   UNL     1      -1.143   3.040  -2.488  0.00  0.00    +0.002 C 
ATOM     17  C   UNL     1      -0.816   1.716  -1.793  0.00  0.00    -0.022 C 
ENDBRANCH  15  17
ENDBRANCH   5  15
ENDBRANCH   1  11
BRANCH   2  18
ATOM     18  C   UNL     1       3.584  -3.072  -7.340  0.00  0.00    +0.202 C 
BRANCH  18  19
ATOM     19  N   UNL     1       3.510  -3.322  -8.781  0.00  0.00    -0.291 N 
ATOM     20  C   UNL     1       4.642  -3.441  -9.503  0.00  0.00    +0.300 C 
ATOM     21  O   UNL     1       5.724  -3.341  -8.958  0.00  0.00    -0.253 OA
ATOM     22  N   UNL     1       4.574  -3.671 -10.829  0.00  0.00    -0.295 N 
ATOM     23  H   UNL     1       2.647  -3.402  -9.216  0.00  0.00    +0.151 HD
ATOM     24  H   UNL     1       3.711  -3.751 -11.264  0.00  0.00    +0.151 HD
BRANCH  22  25
ATOM     25  C   UNL     1       5.805  -3.801 -11.614  0.00  0.00    +0.141 C 
BRANCH  25  26
ATOM     26  C   UNL     1       5.455  -4.053 -13.058  0.00  0.00    -0.030 A 
ATOM     27  C   UNL     1       5.296  -5.348 -13.514  0.00  0.00    +0.008 A 
ATOM     28  C   UNL     1       4.975  -5.580 -14.838  0.00  0.00    +0.038 A 
ATOM     29  C   UNL     1       4.814  -4.515 -15.708  0.00  0.00    +0.123 A 
ATOM     30  C   UNL     1       4.974  -3.218 -15.250  0.00  0.00    +0.038 A 
ATOM     31  C   UNL     1       5.289  -2.988 -13.924  0.00  0.00    +0.008 A 
ATOM     32  F   UNL     1       4.500  -4.741 -17.002  0.00  0.00    -0.205 F 
ENDBRANCH  25  26
ENDBRANCH  22  25
ENDBRANCH  18  19
ENDBRANCH   2  18
TORSDOF 7
