REMARK  Name = ZINC39944290
REMARK  4 active torsions:
REMARK  status: ('A' for Active; 'I' for Inactive)
REMARK    1  A    between atoms: C_1  and  C_2
REMARK    2  A    between atoms: C_2  and  O_3
REMARK    3  A    between atoms: O_3  and  C_4
REMARK    4  A    between atoms: C_9  and  C_10
REMARK                            x       y       z     vdW  Elec       q    Type
REMARK                         _______ _______ _______ _____ _____    ______ ____
ROOT
ATOM      1  C   UNL     1       1.986  -1.427  -3.483  0.00  0.00    +0.254 C 
ATOM      2  O   UNL     1       1.895  -0.222  -3.344  0.00  0.00    -0.270 OA
ATOM      3  N   UNL     1       2.604  -1.935  -4.568  0.00  0.00    -0.250 N 
ATOM      4  C   UNL     1       3.138  -1.081  -5.528  0.00  0.00    +0.223 C 
ATOM      5  N   UNL     1       3.100   0.235  -5.473  0.00  0.00    -0.213 NA
ATOM      6  C   UNL     1       3.720   0.717  -6.582  0.00  0.00    +0.089 C 
ATOM      7  C   UNL     1       3.980   1.992  -7.057  0.00  0.00    +0.029 C 
ATOM      8  C   UNL     1       4.655   2.231  -8.262  0.00  0.00    -0.002 C 
ATOM      9  C   UNL     1       5.100   1.238  -9.047  0.00  0.00    -0.021 C 
ATOM     10  C   UNL     1       4.869  -0.196  -8.620  0.00  0.00    +0.085 C 
ATOM     11  C   UNL     1       4.139  -0.419  -7.318  0.00  0.00    +0.074 C 
ATOM     12  N   UNL     1       3.771  -1.476  -6.641  0.00  0.00    -0.217 NA
ATOM     13  H   UNL     1       2.676  -2.896  -4.679  0.00  0.00    +0.158 HD
ENDROOT
BRANCH   1  19
ATOM     14  C   UNL     1       0.777  -1.808  -1.336  0.00  0.00    +0.133 A 
ATOM     15  C   UNL     1       0.243  -2.668  -0.388  0.00  0.00    +0.047 A 
ATOM     16  C   UNL     1       0.351  -4.034  -0.554  0.00  0.00    +0.019 A 
ATOM     17  C   UNL     1       0.991  -4.557  -1.667  0.00  0.00    +0.019 A 
ATOM     18  C   UNL     1       1.527  -3.716  -2.619  0.00  0.00    +0.032 A 
ATOM     19  C   UNL     1       1.420  -2.332  -2.465  0.00  0.00    +0.080 A 
ATOM     20 BR   UNL     1       1.130  -6.431  -1.879  0.00  0.00    -0.050 Br
BRANCH  14  21
ATOM     21  O   UNL     1       0.671  -0.465  -1.174  0.00  0.00    -0.491 OA
BRANCH  21  23
ATOM     22  C   UNL     1      -0.019   1.526   0.010  0.00  0.00    +0.048 C 
ATOM     23  C   UNL     1       0.002  -0.004   0.002  0.00  0.00    +0.226 C 
ENDBRANCH  21  23
ENDBRANCH  14  21
ENDBRANCH   1  19
TORSDOF 3
