REMARK  Name = ZINC10063935
REMARK  11 active torsions:
REMARK  status: ('A' for Active; 'I' for Inactive)
REMARK    1  A    between atoms: C_1  and  C_2
REMARK    2  A    between atoms: C_5  and  C_29
REMARK    3  A    between atoms: C_6  and  C_8
REMARK    4  A    between atoms: C_8  and  C_9
REMARK    5  A    between atoms: C_9  and  N_11
REMARK    6  A    between atoms: N_13  and  C_25
REMARK    7  A    between atoms: C_17  and  S_21
REMARK    8  A    between atoms: S_21  and  N_24
REMARK    9  A    between atoms: C_25  and  C_26
REMARK   10  A    between atoms: C_26  and  O_27
REMARK   11  A    between atoms: O_27  and  C_28
REMARK                            x       y       z     vdW  Elec       q    Type
REMARK                         _______ _______ _______ _____ _____    ______ ____
ROOT
ATOM      1  N   UNL     1      -0.237   1.304   2.457  0.00  0.00    -0.156 NA
ATOM      2  C   UNL     1      -0.876   1.695   3.558  0.00  0.00    +0.166 A 
ATOM      3  N   UNL     1      -0.553   1.444   4.854  0.00  0.00    -0.319 N 
ATOM      4  C   UNL     1      -1.344   1.939   5.874  0.00  0.00    +0.058 A 
ATOM      5  C   UNL     1      -1.175   1.788   7.259  0.00  0.00    +0.029 A 
ATOM      6  C   UNL     1      -2.065   2.352   8.142  0.00  0.00    +0.030 A 
ATOM      7  C   UNL     1      -3.151   3.086   7.696  0.00  0.00    +0.106 A 
ATOM      8  C   UNL     1      -3.341   3.252   6.335  0.00  0.00    +0.045 A 
ATOM      9  C   UNL     1      -2.453   2.687   5.452  0.00  0.00    +0.041 A 
ATOM     10  S   UNL     1      -2.314   2.655   3.682  0.00  0.00    -0.052 S 
ENDROOT
BRANCH   7  11
ATOM     11  S   UNL     1      -4.278   3.800   8.847  0.00  0.00    +0.056 S 
ATOM     12  O   UNL     1      -5.508   3.975   8.156  0.00  0.00    -0.153 OA
ATOM     13  O   UNL     1      -4.177   3.036  10.041  0.00  0.00    -0.153 OA
BRANCH  11  14
ATOM     14  N   UNL     1      -3.717   5.316   9.206  0.00  0.00    -0.204 NA
ATOM     15  H   UNL     1      -2.902   5.642   8.793  0.00  0.00    +0.144 HD
ATOM     16  H   UNL     1      -4.203   5.878   9.829  0.00  0.00    +0.144 HD
ENDBRANCH  11  14
ENDBRANCH   7  11
BRANCH   1  17
ATOM     17  C   UNL     1      -0.703   1.647   1.261  0.00  0.00    +0.243 C 
ATOM     18  O   UNL     1      -1.712   2.319   1.172  0.00  0.00    -0.273 OA
BRANCH  17  19
ATOM     19  C   UNL     1       0.020   1.203   0.015  0.00  0.00    +0.133 C 
BRANCH  19  25
ATOM     20  C   UNL     1      -3.300   0.519  -3.666  0.00  0.00    +0.044 C 
ATOM     21  C   UNL     1      -2.296   1.394  -2.960  0.00  0.00    -0.050 A 
ATOM     22  C   UNL     1      -2.042   2.670  -3.426  0.00  0.00    +0.003 A 
ATOM     23  C   UNL     1      -1.120   3.471  -2.779  0.00  0.00    +0.004 A 
ATOM     24  C   UNL     1      -0.453   2.997  -1.665  0.00  0.00    -0.047 A 
ATOM     25  C   UNL     1      -0.708   1.721  -1.199  0.00  0.00    -0.035 A 
ATOM     26  C   UNL     1      -1.625   0.917  -1.849  0.00  0.00    +0.007 A 
ATOM     27  C   UNL     1       0.552   3.870  -0.960  0.00  0.00    +0.044 C 
ENDBRANCH  19  25
ENDBRANCH  17  19
ENDBRANCH   1  17
BRANCH   3  28
ATOM     28  C   UNL     1       0.634   0.647   5.171  0.00  0.00    +0.152 C 
BRANCH  28  29
ATOM     29  C   UNL     1       0.792  -0.467   4.134  0.00  0.00    +0.181 C 
BRANCH  29  30
ATOM     30  O   UNL     1       1.869  -1.325   4.516  0.00  0.00    -0.381 OA
ATOM     31  C   UNL     1       2.102  -2.405   3.610  0.00  0.00    +0.194 C 
ENDBRANCH  29  30
ENDBRANCH  28  29
ENDBRANCH   3  28
TORSDOF 8
