REMARK  Name = ZINC59566929
REMARK  8 active torsions:
REMARK  status: ('A' for Active; 'I' for Inactive)
REMARK    1  A    between atoms: C_1  and  C_2
REMARK    2  A    between atoms: C_4  and  C_17
REMARK    3  A    between atoms: C_5  and  C_16
REMARK    4  A    between atoms: N_6  and  C_7
REMARK    5  A    between atoms: C_10  and  C_13
REMARK    6  A    between atoms: C_13  and  C_14
REMARK    7  A    between atoms: C_13  and  C_15
REMARK    8  A    between atoms: N_23  and  C_24
REMARK                            x       y       z     vdW  Elec       q    Type
REMARK                         _______ _______ _______ _____ _____    ______ ____
ROOT
ATOM      1  C   UNL     1      -0.531  -3.432  -1.505  0.00  0.00    +0.030 C 
ATOM      2  C   UNL     1      -0.345  -3.306  -2.846  0.00  0.00    +0.078 C 
ATOM      3  C   UNL     1       0.005  -4.333  -3.840  0.00  0.00    +0.256 C 
ATOM      4  O   UNL     1       0.176  -5.496  -3.521  0.00  0.00    -0.269 OA
ATOM      5  N   UNL     1       0.125  -3.938  -5.096  0.00  0.00    -0.260 N 
ATOM      6  C   UNL     1      -0.073  -2.618  -5.439  0.00  0.00    +0.166 C 
ATOM      7  N   UNL     1       0.004  -2.061  -6.627  0.00  0.00    -0.224 NA
ATOM      8  S   UNL     1      -0.469  -1.851  -3.876  0.00  0.00    -0.049 S 
ATOM      9  H   UNL     1       0.355  -4.583  -5.783  0.00  0.00    +0.157 HD
ENDROOT
BRANCH   7  10
ATOM     10  C   UNL     1      -0.111  -0.703  -6.755  0.00  0.00    +0.086 A 
ATOM     11  C   UNL     1       0.648   0.145  -5.944  0.00  0.00    +0.029 A 
ATOM     12  C   UNL     1       0.527   1.512  -6.078  0.00  0.00    +0.004 A 
ATOM     13  C   UNL     1      -0.343   2.046  -7.012  0.00  0.00    +0.021 A 
ATOM     14  C   UNL     1      -1.098   1.213  -7.820  0.00  0.00    +0.061 A 
ATOM     15  C   UNL     1      -0.983  -0.159  -7.701  0.00  0.00    +0.085 A 
ATOM     16 CL   UNL     1      -1.925  -1.203  -8.719  0.00  0.00    -0.080 Cl
ATOM     17 CL   UNL     1      -2.186   1.893  -8.989  0.00  0.00    -0.082 Cl
ENDBRANCH   7  10
BRANCH   1  21
ATOM     18  C   UNL     1      -1.681   1.338  -0.118  0.00  0.00    +0.064 C 
ATOM     19  C   UNL     1      -1.393  -0.142  -0.105  0.00  0.00    +0.022 A 
ATOM     20  C   UNL     1      -1.080  -0.884  -1.181  0.00  0.00    +0.031 A 
ATOM     21  C   UNL     1      -0.886  -2.257  -0.701  0.00  0.00    -0.003 A 
ATOM     22  C   UNL     1      -1.106  -2.220   0.662  0.00  0.00    +0.028 A 
ATOM     23  N   UNL     1      -1.404  -0.940   1.004  0.00  0.00    -0.317 N 
ATOM     24  C   UNL     1      -1.024  -3.393   1.605  0.00  0.00    +0.064 C 
BRANCH  23  25
ATOM     25  C   UNL     1      -1.686  -0.503   2.305  0.00  0.00    +0.047 A 
ATOM     26  C   UNL     1      -0.701  -0.545   3.282  0.00  0.00    +0.026 A 
ATOM     27  C   UNL     1      -0.982  -0.114   4.563  0.00  0.00    +0.006 A 
ATOM     28  C   UNL     1      -2.243   0.361   4.874  0.00  0.00    -0.045 A 
ATOM     29  C   UNL     1      -3.227   0.404   3.903  0.00  0.00    +0.006 A 
ATOM     30  C   UNL     1      -2.950  -0.020   2.618  0.00  0.00    +0.026 A 
BRANCH  28  31
ATOM     31  C   UNL     1      -2.546   0.830   6.273  0.00  0.00    +0.013 C 
ATOM     32  C   UNL     1      -2.966   2.301   6.238  0.00  0.00    +0.012 C 
ATOM     33  C   UNL     1      -3.683  -0.011   6.858  0.00  0.00    +0.012 C 
ENDBRANCH  28  31
ENDBRANCH  23  25
ENDBRANCH   1  21
TORSDOF 4
