REMARK  Name = ZINC01993478
REMARK  9 active torsions:
REMARK  status: ('A' for Active; 'I' for Inactive)
REMARK    1  A    between atoms: C_1  and  C_2
REMARK    2  A    between atoms: C_4  and  C_33
REMARK    3  A    between atoms: C_6  and  O_8
REMARK    4  A    between atoms: O_8  and  C_9
REMARK    5  A    between atoms: C_14  and  O_20
REMARK    6  A    between atoms: O_20  and  C_21
REMARK    7  A    between atoms: C_21  and  C_22
REMARK    8  A    between atoms: N_24  and  C_25
REMARK    9  A    between atoms: C_30  and  C_31
REMARK                            x       y       z     vdW  Elec       q    Type
REMARK                         _______ _______ _______ _____ _____    ______ ____
ROOT
ATOM      1  C   UNL     1      -9.264   3.405  -0.018  0.00  0.00    +0.210 A 
ATOM      2  C   UNL     1      -9.063   2.072  -0.055  0.00  0.00    +0.245 A 
ATOM      3  O   UNL     1      -7.842   1.524  -0.091  0.00  0.00    -0.459 OA
ATOM      4  C   UNL     1      -6.716   2.267  -0.092  0.00  0.00    +0.142 A 
ATOM      5  C   UNL     1      -5.465   1.667  -0.130  0.00  0.00    +0.092 A 
ATOM      6  C   UNL     1      -4.326   2.453  -0.131  0.00  0.00    +0.125 A 
ATOM      7  C   UNL     1      -4.424   3.843  -0.089  0.00  0.00    +0.046 A 
ATOM      8  C   UNL     1      -5.647   4.449  -0.057  0.00  0.00    +0.019 A 
ATOM      9  C   UNL     1      -6.805   3.670  -0.056  0.00  0.00    +0.068 A 
ATOM     10  C   UNL     1      -8.143   4.284  -0.016  0.00  0.00    +0.234 A 
ATOM     11  O   UNL     1      -8.286   5.495   0.016  0.00  0.00    -0.283 OA
ENDROOT
BRANCH   1  12
ATOM     12  O   UNL     1     -10.529   3.907   0.017  0.00  0.00    -0.449 OA
BRANCH  12  18
ATOM     13  C   UNL     1     -14.499   1.848  -1.937  0.00  0.00    +0.044 C 
ATOM     14  C   UNL     1     -13.515   1.999  -0.806  0.00  0.00    -0.047 A 
ATOM     15  C   UNL     1     -13.661   1.243   0.342  0.00  0.00    +0.007 A 
ATOM     16  C   UNL     1     -12.760   1.379   1.382  0.00  0.00    -0.047 A 
ATOM     17  C   UNL     1     -11.710   2.270   1.276  0.00  0.00    +0.049 A 
ATOM     18  C   UNL     1     -11.560   3.029   0.124  0.00  0.00    +0.129 A 
ATOM     19  C   UNL     1     -12.470   2.895  -0.916  0.00  0.00    +0.049 A 
ATOM     20  C   UNL     1     -12.923   0.553   2.632  0.00  0.00    +0.044 C 
ENDBRANCH  12  18
ENDBRANCH   1  12
BRANCH   6  21
ATOM     21  O   UNL     1      -3.103   1.866  -0.167  0.00  0.00    -0.483 OA
BRANCH  21  22
ATOM     22  C   UNL     1      -1.967   2.732  -0.166  0.00  0.00    +0.324 C 
BRANCH  22  23
ATOM     23  C   UNL     1      -0.706   1.908  -0.208  0.00  0.00    +0.255 C 
ATOM     24  O   UNL     1      -0.774   0.697  -0.237  0.00  0.00    -0.272 OA
ATOM     25  N   UNL     1       0.497   2.516  -0.220  0.00  0.00    -0.282 N 
ATOM     26  H   UNL     1       0.551   3.482  -0.281  0.00  0.00    +0.155 HD
BRANCH  25  27
ATOM     27  C   UNL     1       1.668   1.752  -0.144  0.00  0.00    +0.036 A 
ATOM     28  C   UNL     1       1.641   0.493   0.441  0.00  0.00    +0.025 A 
ATOM     29  C   UNL     1       2.797  -0.258   0.514  0.00  0.00    +0.022 A 
ATOM     30  C   UNL     1       3.982   0.243   0.004  0.00  0.00    +0.041 A 
ATOM     31  C   UNL     1       4.012   1.497  -0.579  0.00  0.00    +0.025 A 
ATOM     32  C   UNL     1       2.857   2.250  -0.659  0.00  0.00    -0.028 A 
ATOM     33  C   UNL     1       2.889   3.614  -1.300  0.00  0.00    +0.046 C 
ATOM     34 CL   UNL     1       5.434  -0.704   0.098  0.00  0.00    -0.084 Cl
ENDBRANCH  25  27
ENDBRANCH  22  23
ENDBRANCH  21  22
ENDBRANCH   6  21
TORSDOF 6
