REMARK  Name = ZINC63796065
REMARK  9 active torsions:
REMARK  status: ('A' for Active; 'I' for Inactive)
REMARK    1  A    between atoms: C_1  and  O_2
REMARK    2  A    between atoms: O_2  and  C_3
REMARK    3  A    between atoms: C_9  and  C_12
REMARK    4  A    between atoms: C_12  and  C_13
REMARK    5  A    between atoms: C_13  and  N_14
REMARK    6  A    between atoms: C_15  and  C_17
REMARK    7  A    between atoms: C_20  and  C_24
REMARK    8  A    between atoms: C_24  and  C_25
REMARK    9  A    between atoms: N_27  and  C_28
REMARK                            x       y       z     vdW  Elec       q    Type
REMARK                         _______ _______ _______ _____ _____    ______ ____
ROOT
ATOM      1  C   UNL     1      -2.340  -8.591  -1.019  0.00  0.00    +0.297 C 
ATOM      2  N   UNL     1      -1.462  -9.753  -1.286  0.00  0.00    -0.265 NA
ATOM      3  C   UNL     1      -1.316 -10.466   0.001  0.00  0.00    +0.158 C 
ATOM      4  N   UNL     1      -2.112  -9.693   0.983  0.00  0.00    -0.181 NA
ATOM      5  O   UNL     1      -2.196  -8.336   0.397  0.00  0.00    -0.270 OA
ATOM      6  H   UNL     1      -1.863 -10.355  -1.989  0.00  0.00    +0.126 HD
ATOM      7  H   UNL     1      -3.031 -10.093   1.098  0.00  0.00    +0.156 HD
ENDROOT
BRANCH   1   9
ATOM      8  N   UNL     1      -0.718  -6.794  -1.524  0.00  0.00    -0.312 N 
ATOM      9  C   UNL     1      -1.887  -7.396  -1.817  0.00  0.00    +0.259 C 
ATOM     10  O   UNL     1      -2.575  -6.977  -2.724  0.00  0.00    -0.271 OA
ATOM     11  H   UNL     1      -0.168  -7.129  -0.798  0.00  0.00    +0.149 HD
BRANCH   8  12
ATOM     12  C   UNL     1      -0.277  -5.632  -2.300  0.00  0.00    +0.108 C 
BRANCH  12  13
ATOM     13  C   UNL     1       1.071  -5.143  -1.766  0.00  0.00    +0.052 C 
BRANCH  13  20
ATOM     14  C   UNL     1       0.649  -0.621  -1.082  0.00  0.00    +0.121 A 
ATOM     15  C   UNL     1       1.224   0.177  -2.087  0.00  0.00    +0.047 A 
ATOM     16  C   UNL     1       1.848  -0.348  -3.163  0.00  0.00    +0.029 A 
ATOM     17  C   UNL     1       1.943  -1.804  -3.312  0.00  0.00    +0.043 A 
ATOM     18  N   UNL     1       2.481  -2.556  -4.239  0.00  0.00    -0.380 N 
ATOM     19  C   UNL     1       2.279  -3.963  -3.874  0.00  0.00    +0.144 C 
ATOM     20  C   UNL     1       1.524  -3.948  -2.564  0.00  0.00    -0.040 C 
ATOM     21  C   UNL     1       1.337  -2.645  -2.254  0.00  0.00    +0.002 A 
ATOM     22  C   UNL     1       0.687  -1.974  -1.123  0.00  0.00    +0.055 A 
ATOM     23  H   UNL     1       2.937  -2.237  -5.033  0.00  0.00    +0.160 HD
BRANCH  14  25
ATOM     24  C   UNL     1       0.022   1.416  -0.028  0.00  0.00    +0.277 C 
ATOM     25  O   UNL     1       0.039  -0.013  -0.030  0.00  0.00    -0.495 OA
ENDBRANCH  14  25
ENDBRANCH  13  20
ENDBRANCH  12  13
ENDBRANCH   8  12
ENDBRANCH   1   9
BRANCH   3  26
ATOM     26  C   UNL     1      -1.861 -11.890  -0.119  0.00  0.00    +0.132 C 
BRANCH  26  27
ATOM     27  C   UNL     1      -1.704 -12.601   1.200  0.00  0.00    +0.220 C 
ATOM     28  O   UNL     1      -1.205 -12.026   2.144  0.00  0.00    -0.275 OA
ATOM     29  N   UNL     1      -2.119 -13.877   1.332  0.00  0.00    -0.283 N 
ATOM     30  H   UNL     1      -2.590 -14.312   0.603  0.00  0.00    +0.155 HD
BRANCH  29  31
ATOM     31  C   UNL     1      -1.869 -14.576   2.520  0.00  0.00    +0.069 A 
ATOM     32  C   UNL     1      -0.806 -14.207   3.334  0.00  0.00    +0.029 A 
ATOM     33  C   UNL     1      -0.562 -14.897   4.505  0.00  0.00    +0.040 A 
ATOM     34  C   UNL     1      -1.375 -15.957   4.869  0.00  0.00    +0.126 A 
ATOM     35  C   UNL     1      -2.435 -16.329   4.060  0.00  0.00    +0.078 A 
ATOM     36  C   UNL     1      -2.688 -15.637   2.889  0.00  0.00    +0.147 A 
ATOM     37  F   UNL     1      -3.726 -15.996   2.103  0.00  0.00    -0.203 F 
ATOM     38  F   UNL     1      -1.132 -16.630   6.015  0.00  0.00    -0.205 F 
ENDBRANCH  29  31
ENDBRANCH  26  27
ENDBRANCH   3  26
TORSDOF 8
