REMARK  Name = ZINC12451291
REMARK  10 active torsions:
REMARK  status: ('A' for Active; 'I' for Inactive)
REMARK    1  A    between atoms: C_1  and  C_2
REMARK    2  A    between atoms: C_6  and  C_23
REMARK    3  A    between atoms: C_7  and  C_20
REMARK    4  A    between atoms: N_8  and  C_9
REMARK    5  A    between atoms: C_9  and  C_10
REMARK    6  A    between atoms: C_20  and  O_21
REMARK    7  A    between atoms: O_21  and  C_22
REMARK    8  A    between atoms: N_25  and  C_26
REMARK    9  A    between atoms: C_26  and  C_27
REMARK   10  A    between atoms: C_27  and  N_80
REMARK                            x       y       z     vdW  Elec       q    Type
REMARK                         _______ _______ _______ _____ _____    ______ ____
ROOT
ATOM      1  C   UNL     1       1.287  -0.195   0.473  0.00  0.00    +0.063 C 
ATOM      2  C   UNL     1       0.260  -0.390  -0.612  0.00  0.00    +0.020 A 
ATOM      3  C   UNL     1       0.667  -0.769  -1.841  0.00  0.00    +0.072 A 
ATOM      4  C   UNL     1      -0.295  -0.955  -2.864  0.00  0.00    +0.194 A 
ATOM      5  O   UNL     1       0.039  -1.298  -3.988  0.00  0.00    -0.287 OA
ATOM      6  C   UNL     1      -1.708  -0.721  -2.530  0.00  0.00    +0.105 A 
ATOM      7  C   UNL     1      -2.020  -0.340  -1.241  0.00  0.00    +0.061 A 
ATOM      8  N   UNL     1      -1.049  -0.180  -0.327  0.00  0.00    -0.341 N 
ENDROOT
BRANCH   6   9
ATOM      9  C   UNL     1      -2.763  -0.894  -3.543  0.00  0.00    +0.249 C 
ATOM     10  O   UNL     1      -3.297  -1.978  -3.687  0.00  0.00    -0.270 OA
ATOM     11  N   UNL     1      -3.137   0.148  -4.312  0.00  0.00    -0.312 N 
ATOM     12  H   UNL     1      -2.672   0.996  -4.239  0.00  0.00    +0.149 HD
BRANCH  11  13
ATOM     13  C   UNL     1      -4.246  -0.001  -5.258  0.00  0.00    +0.092 C 
BRANCH  13  14
ATOM     14  C   UNL     1      -4.362   1.265  -6.110  0.00  0.00    -0.049 C 
ATOM     15  C   UNL     1      -5.798   1.476  -6.508  0.00  0.00    -0.010 C 
ATOM     16  C   UNL     1      -6.602   0.163  -6.534  0.00  0.00    -0.001 C 
ATOM     17  C   UNL     1      -5.815  -1.008  -7.154  0.00  0.00    -0.000 C 
ATOM     18  C   UNL     1      -5.043  -0.597  -8.379  0.00  0.00    -0.000 C 
ATOM     19  C   UNL     1      -3.606  -0.233  -7.952  0.00  0.00    -0.001 C 
ATOM     20  C   UNL     1      -3.517   1.107  -7.391  0.00  0.00    -0.010 C 
BRANCH  14  26
ATOM     21  C   UNL     1      -4.585   2.527  -4.055  0.00  0.00    -0.049 C 
ATOM     22  C   UNL     1      -4.015   3.708  -3.264  0.00  0.00    +0.141 C 
ATOM     23  O   UNL     1      -4.135   4.900  -4.045  0.00  0.00    -0.383 OA
ATOM     24  C   UNL     1      -3.463   4.833  -5.305  0.00  0.00    +0.141 C 
ATOM     25  C   UNL     1      -4.027   3.664  -6.117  0.00  0.00    -0.049 C 
ATOM     26  N   UNL     1      -3.857   2.420  -5.337  0.00  0.00    +0.387 N 
ATOM     27  H   UNL     1      -2.858   2.281  -5.143  0.00  0.00    -0.081 HD
ENDBRANCH  14  26
ENDBRANCH  13  14
ENDBRANCH  11  13
ENDBRANCH   6   9
BRANCH   8  28
ATOM     28  C   UNL     1      -1.418   0.231   1.030  0.00  0.00    +0.157 C 
BRANCH  28  29
ATOM     29  C   UNL     1      -2.228  -0.859   1.683  0.00  0.00    -0.020 A 
ATOM     30  C   UNL     1      -3.569  -0.704   1.857  0.00  0.00    +0.006 A 
ATOM     31  C   UNL     1      -4.335  -1.701   2.458  0.00  0.00    +0.001 A 
ATOM     32  C   UNL     1      -3.764  -2.860   2.888  0.00  0.00    +0.008 A 
ATOM     33  C   UNL     1      -2.382  -3.057   2.724  0.00  0.00    -0.018 A 
ATOM     34  C   UNL     1      -1.604  -2.044   2.108  0.00  0.00    -0.013 A 
ATOM     35  C   UNL     1      -0.222  -2.239   1.949  0.00  0.00    +0.009 A 
ATOM     36  C   UNL     1       0.349  -3.397   2.378  0.00  0.00    +0.001 A 
ATOM     37  C   UNL     1      -0.416  -4.394   2.980  0.00  0.00    +0.001 A 
ATOM     38  C   UNL     1      -1.757  -4.239   3.155  0.00  0.00    +0.008 A 
ENDBRANCH  28  29
ENDBRANCH   8  28
BRANCH   7  39
ATOM     39  C   UNL     1      -3.457  -0.097  -0.859  0.00  0.00    +0.213 C 
BRANCH  39  40
ATOM     40  O   UNL     1      -3.842   1.218  -1.263  0.00  0.00    -0.377 OA
ATOM     41  C   UNL     1      -5.155   1.595  -0.843  0.00  0.00    +0.194 C 
ENDBRANCH  39  40
ENDBRANCH   7  39
TORSDOF 8
