REMARK  Name = ZINC12645098
REMARK  6 active torsions:
REMARK  status: ('A' for Active; 'I' for Inactive)
REMARK    1  A    between atoms: C_1  and  C_2
REMARK    2  A    between atoms: C_5  and  N_8
REMARK    3  A    between atoms: C_11  and  C_25
REMARK    4  A    between atoms: C_11  and  C_31
REMARK    5  A    between atoms: C_12  and  C_23
REMARK    6  A    between atoms: N_21  and  C_22
REMARK                            x       y       z     vdW  Elec       q    Type
REMARK                         _______ _______ _______ _____ _____    ______ ____
ROOT
ATOM      1  N   UNL     1      -0.745  -3.126   0.535  0.00  0.00    -0.288 N 
ATOM      2  C   UNL     1      -0.282  -4.118   1.369  0.00  0.00    +0.172 C 
ATOM      3  N   UNL     1      -0.200  -3.868   2.639  0.00  0.00    -0.339 N 
ATOM      4  C   UNL     1       0.291  -4.913   3.549  0.00  0.00    +0.199 C 
ATOM      5  C   UNL     1       0.677  -6.241   2.930  0.00  0.00    +0.104 C 
ATOM      6  C   UNL     1       0.542  -6.373   1.572  0.00  0.00    +0.120 C 
ATOM      7  N   UNL     1       0.067  -5.332   0.815  0.00  0.00    -0.228 N 
ATOM      8  C   UNL     1       0.032  -5.757  -0.520  0.00  0.00    +0.064 A 
ATOM      9  C   UNL     1      -0.350  -5.125  -1.694  0.00  0.00    +0.026 A 
ATOM     10  C   UNL     1      -0.278  -5.804  -2.895  0.00  0.00    +0.002 A 
ATOM     11  C   UNL     1       0.175  -7.112  -2.930  0.00  0.00    +0.002 A 
ATOM     12  C   UNL     1       0.558  -7.748  -1.766  0.00  0.00    +0.025 A 
ATOM     13  C   UNL     1       0.488  -7.074  -0.554  0.00  0.00    +0.057 A 
ATOM     14  N   UNL     1       0.808  -7.439   0.750  0.00  0.00    -0.289 N 
ATOM     15  C   UNL     1       1.326  -8.742   1.174  0.00  0.00    +0.137 C 
ATOM     16  H   UNL     1      -0.460  -3.000   2.985  0.00  0.00    +0.164 HD
ATOM     17  H   UNL     1      -0.902  -3.316  -0.403  0.00  0.00    +0.155 HD
ENDROOT
BRANCH   1  22
ATOM     18  C   UNL     1      -1.726   2.073   2.581  0.00  0.00    +0.044 C 
ATOM     19  C   UNL     1      -1.465   0.692   2.037  0.00  0.00    -0.050 A 
ATOM     20  C   UNL     1      -0.300   0.027   2.373  0.00  0.00    +0.005 A 
ATOM     21  C   UNL     1      -0.058  -1.239   1.876  0.00  0.00    +0.023 A 
ATOM     22  C   UNL     1      -0.987  -1.844   1.040  0.00  0.00    +0.033 A 
ATOM     23  C   UNL     1      -2.156  -1.174   0.705  0.00  0.00    +0.023 A 
ATOM     24  C   UNL     1      -2.394   0.090   1.209  0.00  0.00    +0.005 A 
ENDBRANCH   1  22
BRANCH   4  25
ATOM     25  C   UNL     1       1.497  -4.370   4.272  0.00  0.00    -0.008 A 
ATOM     26  C   UNL     1       2.188  -3.293   3.750  0.00  0.00    +0.006 A 
ATOM     27  C   UNL     1       3.295  -2.795   4.412  0.00  0.00    +0.000 A 
ATOM     28  C   UNL     1       3.709  -3.374   5.597  0.00  0.00    +0.000 A 
ATOM     29  C   UNL     1       3.017  -4.451   6.120  0.00  0.00    +0.000 A 
ATOM     30  C   UNL     1       1.909  -4.946   5.459  0.00  0.00    +0.006 A 
ENDBRANCH   4  25
BRANCH   4  31
ATOM     31  C   UNL     1      -0.796  -5.179   4.592  0.00  0.00    +0.422 C 
ATOM     32  F   UNL     1      -1.964  -5.605   3.951  0.00  0.00    -0.167 F 
ATOM     33  F   UNL     1      -0.361  -6.171   5.477  0.00  0.00    -0.167 F 
ATOM     34  F   UNL     1      -1.058  -4.003   5.303  0.00  0.00    -0.167 F 
ENDBRANCH   4  31
BRANCH   5  35
ATOM     35  C   UNL     1       1.166  -7.319   3.735  0.00  0.00    +0.101 C 
ATOM     36  N   UNL     1       1.554  -8.175   4.374  0.00  0.00    -0.191 NA
ENDBRANCH   5  35
TORSDOF 4
