REMARK  Name = ZINC24764603
REMARK  6 active torsions:
REMARK  status: ('A' for Active; 'I' for Inactive)
REMARK    1  A    between atoms: C_4  and  C_7
REMARK    2  A    between atoms: C_7  and  C_8
REMARK    3  A    between atoms: C_7  and  N_14
REMARK    4  A    between atoms: N_14  and  C_15
REMARK    5  A    between atoms: C_15  and  C_16
REMARK    6  A    between atoms: N_18  and  C_19
REMARK                            x       y       z     vdW  Elec       q    Type
REMARK                         _______ _______ _______ _____ _____    ______ ____
ROOT
ATOM      1  N   UNL     1      -2.433   0.974  -0.003  0.00  0.00    +0.392 N 
ATOM      2  H   UNL     1      -2.351   0.342   0.894  0.00  0.00    -0.084 HD
ATOM      3  H   UNL     1      -2.347   0.346  -0.902  0.00  0.00    -0.084 HD
ENDROOT
BRANCH   1   4
ATOM      4  C   UNL     1      -3.734   1.656  -0.004  0.00  0.00    -0.009 C 
BRANCH   4   8
ATOM      5  C   UNL     1      -4.823   2.637  -4.016  0.00  0.00    +0.000 A 
ATOM      6  C   UNL     1      -5.069   3.534  -2.994  0.00  0.00    +0.000 A 
ATOM      7  C   UNL     1      -4.717   3.217  -1.695  0.00  0.00    +0.002 A 
ATOM      8  C   UNL     1      -4.118   2.002  -1.419  0.00  0.00    -0.057 A 
ATOM      9  C   UNL     1      -3.866   1.107  -2.442  0.00  0.00    +0.002 A 
ATOM     10  C   UNL     1      -4.223   1.422  -3.740  0.00  0.00    +0.000 A 
ENDBRANCH   4   8
BRANCH   4  11
ATOM     11  C   UNL     1      -4.778   0.747   0.593  0.00  0.00    -0.057 A 
ATOM     12  C   UNL     1      -4.773  -0.602   0.292  0.00  0.00    +0.002 A 
ATOM     13  C   UNL     1      -5.728  -1.436   0.843  0.00  0.00    +0.000 A 
ATOM     14  C   UNL     1      -6.694  -0.919   1.686  0.00  0.00    +0.000 A 
ATOM     15  C   UNL     1      -6.702   0.431   1.982  0.00  0.00    +0.000 A 
ATOM     16  C   UNL     1      -5.744   1.264   1.435  0.00  0.00    +0.002 A 
ENDBRANCH   4  11
ENDBRANCH   1   4
BRANCH   1  17
ATOM     17  C   UNL     1      -1.330   1.944   0.002  0.00  0.00    +0.016 C 
BRANCH  17  18
ATOM     18  C   UNL     1      -0.014   1.208   0.003  0.00  0.00    +0.200 C 
ATOM     19  O   UNL     1       0.003  -0.004   0.000  0.00  0.00    -0.278 OA
ATOM     20  N   UNL     1       1.143   1.898   0.001  0.00  0.00    -0.286 N 
ATOM     21  H   UNL     1       1.129   2.996  -0.071  0.00  0.00    +0.155 HD
BRANCH  20  22
ATOM     22  C   UNL     1       2.365   1.218   0.092  0.00  0.00    +0.051 A 
ATOM     23  C   UNL     1       2.514  -0.025  -0.508  0.00  0.00    +0.073 A 
ATOM     24  C   UNL     1       3.722  -0.698  -0.419  0.00  0.00    +0.164 A 
ATOM     25  C   UNL     1       4.785  -0.126   0.270  0.00  0.00    +0.163 A 
ATOM     26  C   UNL     1       4.634   1.116   0.869  0.00  0.00    +0.066 A 
ATOM     27  C   UNL     1       3.430   1.789   0.776  0.00  0.00    +0.043 A 
ATOM     28 BR   UNL     1       3.231   3.485   1.588  0.00  0.00    -0.048 Br
ATOM     29  O   UNL     1       5.982  -0.770   0.364  0.00  0.00    -0.485 OA
ATOM     30  C   UNL     1       5.982  -2.172   0.074  0.00  0.00    +0.270 C 
ATOM     31  C   UNL     1       5.184  -2.396  -1.218  0.00  0.00    +0.270 C 
ATOM     32  O   UNL     1       3.850  -1.918  -1.009  0.00  0.00    -0.485 OA
ENDBRANCH  20  22
ENDBRANCH  17  18
ENDBRANCH   1  17
TORSDOF 6
