REMARK  Name = ZINC36637500
REMARK  7 active torsions:
REMARK  status: ('A' for Active; 'I' for Inactive)
REMARK    1  A    between atoms: C_1  and  N_2
REMARK    2  A    between atoms: N_2  and  C_3
REMARK    3  A    between atoms: N_2  and  C_4
REMARK    4  A    between atoms: C_4  and  C_5
REMARK    5  A    between atoms: C_5  and  N_6
REMARK    6  A    between atoms: C_20  and  C_22
REMARK    7  A    between atoms: C_24  and  C_32
REMARK                            x       y       z     vdW  Elec       q    Type
REMARK                         _______ _______ _______ _____ _____    ______ ____
ROOT
ATOM      1  N   UNL     1      -2.926  -2.130   0.074  0.00  0.00    -0.248 N 
ATOM      2  C   UNL     1      -3.544  -2.291  -1.155  0.00  0.00    +0.168 A 
ATOM      3  N   UNL     1      -3.054  -2.090  -2.355  0.00  0.00    -0.224 NA
ATOM      4  C   UNL     1      -3.778  -2.290  -3.479  0.00  0.00    +0.084 A 
ATOM      5  C   UNL     1      -3.371  -2.110  -4.821  0.00  0.00    +0.078 A 
ATOM      6  C   UNL     1      -4.235  -2.358  -5.864  0.00  0.00    +0.164 A 
ATOM      7  C   UNL     1      -5.538  -2.796  -5.625  0.00  0.00    +0.163 A 
ATOM      8  C   UNL     1      -5.966  -2.981  -4.320  0.00  0.00    +0.066 A 
ATOM      9  C   UNL     1      -5.104  -2.733  -3.280  0.00  0.00    +0.044 A 
ATOM     10  S   UNL     1      -5.210  -2.834  -1.510  0.00  0.00    -0.052 S 
ATOM     11  O   UNL     1      -6.394  -3.049  -6.652  0.00  0.00    -0.485 OA
ATOM     12  C   UNL     1      -6.047  -2.501  -7.928  0.00  0.00    +0.270 C 
ATOM     13  C   UNL     1      -4.560  -2.785  -8.183  0.00  0.00    +0.270 C 
ATOM     14  O   UNL     1      -3.799  -2.166  -7.142  0.00  0.00    -0.485 OA
ATOM     15  C   UNL     1      -3.603  -2.397   1.209  0.00  0.00    +0.253 C 
ATOM     16  O   UNL     1      -4.724  -2.865   1.152  0.00  0.00    -0.270 OA
ENDROOT
BRANCH  15  17
ATOM     17  C   UNL     1      -2.983  -2.122   2.522  0.00  0.00    +0.048 A 
ATOM     18  C   UNL     1      -1.792  -2.725   2.897  0.00  0.00    +0.042 A 
ATOM     19  C   UNL     1      -1.238  -2.434   4.156  0.00  0.00    +0.079 A 
ATOM     20  N   UNL     1      -1.812  -1.600   5.002  0.00  0.00    -0.246 NA
ATOM     21  C   UNL     1      -2.958  -0.977   4.721  0.00  0.00    +0.072 A 
ATOM     22  C   UNL     1      -3.598  -1.196   3.475  0.00  0.00    +0.013 A 
ATOM     23  C   UNL     1      -4.796  -0.537   3.183  0.00  0.00    +0.011 A 
ATOM     24  C   UNL     1      -5.336   0.317   4.099  0.00  0.00    +0.001 A 
ATOM     25  C   UNL     1      -4.708   0.542   5.322  0.00  0.00    +0.002 A 
ATOM     26  C   UNL     1      -3.547  -0.093   5.643  0.00  0.00    +0.028 A 
BRANCH  19  27
ATOM     27  C   UNL     1       0.030  -3.082   4.544  0.00  0.00    +0.038 A 
ATOM     28  C   UNL     1       0.692  -3.036   5.744  0.00  0.00    +0.017 A 
ATOM     29  C   UNL     1       1.873  -3.729   5.874  0.00  0.00    +0.008 A 
ATOM     30  C   UNL     1       2.346  -4.437   4.814  0.00  0.00    +0.046 A 
ATOM     31  S   UNL     1       1.096  -4.138   3.576  0.00  0.00    -0.095 S 
ENDBRANCH  19  27
ENDBRANCH  15  17
BRANCH   1  32
ATOM     32  C   UNL     1      -1.538  -1.669   0.141  0.00  0.00    +0.097 C 
BRANCH  32  33
ATOM     33  C   UNL     1      -1.512  -0.153   0.345  0.00  0.00    -0.060 C 
BRANCH  33  35
ATOM     34  C   UNL     1      -0.093   1.776   0.473  0.00  0.00    -0.097 C 
ATOM     35  N   UNL     1      -0.120   0.308   0.417  0.00  0.00    +0.377 N 
ATOM     36  C   UNL     1       0.517  -0.240   1.622  0.00  0.00    -0.097 C 
ATOM     37  H   UNL     1       0.381  -0.006  -0.401  0.00  0.00    -0.083 HD
ENDBRANCH  33  35
ENDBRANCH  32  33
ENDBRANCH   1  32
TORSDOF 5
