REMARK  Name = ZINC39358642
REMARK  2 active torsions:
REMARK  status: ('A' for Active; 'I' for Inactive)
REMARK    1  A    between atoms: C_4  and  C_8
REMARK    2  A    between atoms: C_11  and  O_24
REMARK                            x       y       z     vdW  Elec       q    Type
REMARK                         _______ _______ _______ _____ _____    ______ ____
ROOT
ATOM      1  C   UNL     1       3.713  -0.710  -0.038  0.00  0.00    +0.093 C 
ATOM      2  C   UNL     1       3.791  -1.590  -1.248  0.00  0.00    +0.049 C 
ATOM      3  C   UNL     1       3.169  -1.622  -2.407  0.00  0.00    +0.235 C 
ATOM      4  N   UNL     1       3.535  -2.731  -3.106  0.00  0.00    -0.114 NA
ATOM      5  N   UNL     1       4.387  -3.432  -2.545  0.00  0.00    -0.157 NA
ATOM      6  C   UNL     1       4.761  -2.775  -1.291  0.00  0.00    +0.245 C 
ATOM      7  N   UNL     1       4.409  -3.562  -0.107  0.00  0.00    -0.321 N 
ATOM      8  C   UNL     1       4.157  -2.920   1.079  0.00  0.00    +0.013 C 
ATOM      9  C   UNL     1       3.816  -1.616   1.180  0.00  0.00    +0.024 C 
ATOM     10  C   UNL     1       3.534  -1.026   2.424  0.00  0.00    +0.162 C 
ATOM     11  O   UNL     1       3.233   0.151   2.467  0.00  0.00    -0.292 OA
ATOM     12  C   UNL     1       3.594  -1.815   3.702  0.00  0.00    +0.080 C 
ATOM     13  C   UNL     1       3.296  -3.285   3.388  0.00  0.00    +0.014 C 
ATOM     14  C   UNL     1       4.292  -3.766   2.329  0.00  0.00    +0.051 C 
ATOM     15  H   UNL     1       4.355  -4.529  -0.161  0.00  0.00    +0.148 HD
ENDROOT
BRANCH   1  19
ATOM     16  C   UNL     1      -0.017   1.378   0.010  0.00  0.00    +0.004 A 
ATOM     17  C   UNL     1       1.170   2.086   0.002  0.00  0.00    +0.039 A 
ATOM     18  C   UNL     1       2.379   1.411  -0.013  0.00  0.00    +0.129 A 
ATOM     19  C   UNL     1       2.398   0.026  -0.021  0.00  0.00    +0.018 A 
ATOM     20  C   UNL     1       1.209  -0.680  -0.013  0.00  0.00    +0.048 A 
ATOM     21  C   UNL     1       0.002  -0.004   0.002  0.00  0.00    +0.020 A 
ATOM     22 CL   UNL     1       1.232  -2.416  -0.022  0.00  0.00    -0.083 Cl
ATOM     23  F   UNL     1       3.539   2.103  -0.021  0.00  0.00    -0.205 F 
ENDBRANCH   1  19
BRANCH   3  24
ATOM     24  O   UNL     1       2.287  -0.684  -2.842  0.00  0.00    -0.491 OA
ATOM     25  H   UNL     1       1.923  -0.864  -3.720  0.00  0.00    +0.294 HD
ENDBRANCH   3  24
TORSDOF 2
