REMARK  Name = ZINC58177716
REMARK  9 active torsions:
REMARK  status: ('A' for Active; 'I' for Inactive)
REMARK    1  A    between atoms: C_1  and  C_2
REMARK    2  A    between atoms: C_6  and  C_12
REMARK    3  A    between atoms: C_10  and  C_11
REMARK    4  A    between atoms: C_12  and  C_13
REMARK    5  A    between atoms: N_15  and  C_16
REMARK    6  A    between atoms: C_18  and  S_24
REMARK    7  A    between atoms: C_21  and  O_22
REMARK    8  A    between atoms: O_22  and  C_23
REMARK    9  A    between atoms: S_24  and  C_27
REMARK                            x       y       z     vdW  Elec       q    Type
REMARK                         _______ _______ _______ _____ _____    ______ ____
ROOT
ATOM      1  C   UNL     1       1.488  -5.640  -1.075  0.00  0.00    +0.222 C 
ATOM      2  O   UNL     1       2.400  -4.972  -0.636  0.00  0.00    -0.275 OA
ATOM      3  N   UNL     1       1.744  -6.648  -1.933  0.00  0.00    -0.282 N 
ATOM      4  H   UNL     1       1.026  -7.233  -2.222  0.00  0.00    +0.155 HD
ENDROOT
BRANCH   3   5
ATOM      5  C   UNL     1       3.046  -6.851  -2.408  0.00  0.00    +0.077 A 
ATOM      6  C   UNL     1       3.946  -5.796  -2.443  0.00  0.00    +0.054 A 
ATOM      7  C   UNL     1       5.230  -5.998  -2.911  0.00  0.00    +0.100 A 
ATOM      8  C   UNL     1       5.622  -7.252  -3.345  0.00  0.00    +0.031 A 
ATOM      9  C   UNL     1       4.731  -8.308  -3.312  0.00  0.00    +0.049 A 
ATOM     10  C   UNL     1       3.443  -8.114  -2.839  0.00  0.00    +0.141 A 
BRANCH   7  11
ATOM     11  S   UNL     1       6.371  -4.656  -2.956  0.00  0.00    +0.091 S 
ATOM     12  O   UNL     1       7.288  -4.994  -3.987  0.00  0.00    -0.161 OA
ATOM     13  O   UNL     1       5.561  -3.494  -3.059  0.00  0.00    -0.161 OA
BRANCH  11  14
ATOM     14  C   UNL     1       7.202  -4.697  -1.343  0.00  0.00    +0.526 C 
ATOM     15  F   UNL     1       7.853  -5.925  -1.185  0.00  0.00    -0.150 F 
ATOM     16  F   UNL     1       8.139  -3.660  -1.275  0.00  0.00    -0.150 F 
ATOM     17  F   UNL     1       6.255  -4.537  -0.327  0.00  0.00    -0.150 F 
ENDBRANCH  11  14
ENDBRANCH   7  11
BRANCH  10  18
ATOM     18  O   UNL     1       2.568  -9.154  -2.801  0.00  0.00    -0.493 OA
ATOM     19  C   UNL     1       3.045 -10.421  -3.259  0.00  0.00    +0.277 C 
ENDBRANCH  10  18
ENDBRANCH   3   5
BRANCH   1  20
ATOM     20  C   UNL     1       0.069  -5.344  -0.662  0.00  0.00    +0.135 C 
BRANCH  20  26
ATOM     21  C   UNL     1       0.008   1.514  -0.013  0.00  0.00    +0.044 C 
ATOM     22  C   UNL     1       0.021   0.007  -0.019  0.00  0.00    -0.044 A 
ATOM     23  C   UNL     1       0.029  -0.675  -1.227  0.00  0.00    +0.004 A 
ATOM     24  C   UNL     1       0.041  -2.042  -1.251  0.00  0.00    +0.012 A 
ATOM     25  C   UNL     1       0.045  -2.754  -0.052  0.00  0.00    +0.024 A 
ATOM     26  C   UNL     1       0.058  -4.180   0.295  0.00  0.00    +0.007 A 
ATOM     27  C   UNL     1       0.057  -4.239   1.633  0.00  0.00    +0.200 A 
ATOM     28  O   UNL     1       0.045  -2.998   2.152  0.00  0.00    -0.462 OA
ATOM     29  C   UNL     1       0.038  -2.069   1.175  0.00  0.00    +0.138 A 
ATOM     30  C   UNL     1       0.031  -0.680   1.177  0.00  0.00    -0.005 A 
ATOM     31  C   UNL     1       0.028   0.074   2.481  0.00  0.00    +0.048 C 
ENDBRANCH  20  26
ENDBRANCH   1  20
TORSDOF 6
