REMARK  Name = ZINC39711172
REMARK  12 active torsions:
REMARK  status: ('A' for Active; 'I' for Inactive)
REMARK    1  A    between atoms: C_1  and  C_2
REMARK    2  A    between atoms: C_6  and  N_9
REMARK    3  A    between atoms: C_7  and  C_8
REMARK    4  A    between atoms: N_12  and  C_15
REMARK    5  A    between atoms: C_15  and  C_17
REMARK    6  A    between atoms: C_15  and  C_31
REMARK    7  A    between atoms: C_22  and  C_30
REMARK    8  A    between atoms: C_23  and  C_29
REMARK    9  A    between atoms: N_36  and  C_37
REMARK   10  A    between atoms: C_37  and  C_38
REMARK   11  A    between atoms: C_37  and  C_39
REMARK   12  A    between atoms: C_37  and  C_40
REMARK                            x       y       z     vdW  Elec       q    Type
REMARK                         _______ _______ _______ _____ _____    ______ ____
ROOT
ATOM      1  C   UNL     1      -1.481  -2.433   6.979  0.00  0.00    -0.009 C 
ENDROOT
BRANCH   1   2
ATOM      2  C   UNL     1      -0.069  -2.558   7.554  0.00  0.00    +0.088 C 
ATOM      3  C   UNL     1       0.450  -3.942   7.215  0.00  0.00    -0.006 C 
ATOM      4  C   UNL     1       0.826  -4.740   8.255  0.00  0.00    -0.007 A 
ATOM      5  C   UNL     1       1.338  -6.090   8.017  0.00  0.00    +0.013 A 
ATOM      6  C   UNL     1       1.700  -6.850   9.083  0.00  0.00    -0.047 A 
ATOM      7  C   UNL     1       1.593  -6.368  10.388  0.00  0.00    -0.046 A 
ATOM      8  C   UNL     1       1.126  -5.125  10.675  0.00  0.00    +0.027 A 
ATOM      9  C   UNL     1       0.724  -4.258   9.643  0.00  0.00    +0.041 A 
ATOM     10  N   UNL     1       0.268  -3.040   9.936  0.00  0.00    -0.285 N 
ATOM     11  C   UNL     1      -0.128  -2.177   9.016  0.00  0.00    +0.223 C 
ATOM     12  O   UNL     1      -0.535  -1.079   9.345  0.00  0.00    -0.275 OA
ATOM     13  C   UNL     1       2.013  -7.263  11.526  0.00  0.00    +0.044 C 
ATOM     14  C   UNL     1       2.228  -8.242   8.851  0.00  0.00    +0.044 C 
ATOM     15  H   UNL     1       0.223  -2.775  10.868  0.00  0.00    +0.155 HD
ENDBRANCH   1   2
BRANCH   1  19
ATOM     16  N   UNL     1      -1.646  -2.239   2.803  0.00  0.00    -0.333 N 
ATOM     17  C   UNL     1      -2.778  -2.883   3.487  0.00  0.00    +0.086 C 
ATOM     18  C   UNL     1      -2.768  -2.449   4.956  0.00  0.00    -0.059 C 
ATOM     19  N   UNL     1      -1.456  -2.747   5.544  0.00  0.00    +0.387 N 
ATOM     20  C   UNL     1      -0.419  -1.941   4.887  0.00  0.00    -0.059 C 
ATOM     21  C   UNL     1      -0.312  -2.354   3.411  0.00  0.00    +0.086 C 
ATOM     22  H   UNL     1      -1.248  -3.726   5.420  0.00  0.00    -0.081 HD
BRANCH  16  28
ATOM     23  C   UNL     1      -2.615   1.975   0.467  0.00  0.00    +0.044 C 
ATOM     24  C   UNL     1      -2.303   0.501   0.443  0.00  0.00    -0.046 A 
ATOM     25  C   UNL     1      -2.200  -0.164  -0.765  0.00  0.00    +0.004 A 
ATOM     26  C   UNL     1      -1.914  -1.517  -0.791  0.00  0.00    +0.002 A 
ATOM     27  C   UNL     1      -1.730  -2.208   0.391  0.00  0.00    +0.023 A 
ATOM     28  C   UNL     1      -1.832  -1.543   1.606  0.00  0.00    +0.033 A 
ATOM     29  C   UNL     1      -2.114  -0.183   1.628  0.00  0.00    -0.027 A 
ATOM     30  C   UNL     1      -2.220   0.544   2.944  0.00  0.00    +0.046 C 
ENDBRANCH  16  28
ENDBRANCH   1  19
BRANCH   1  31
ATOM     31  C   UNL     1      -2.413  -3.410   7.698  0.00  0.00    +0.205 C 
ATOM     32  N   UNL     1      -2.130  -4.790   7.281  0.00  0.00    -0.152 NA
ATOM     33  N   UNL     1      -3.139  -5.261   6.750  0.00  0.00    -0.070 NA
ATOM     34  N   UNL     1      -4.203  -4.360   6.713  0.00  0.00    -0.179 N 
ATOM     35  N   UNL     1      -3.816  -3.178   7.294  0.00  0.00    -0.183 NA
ATOM     36  H   UNL     1      -5.079  -4.540   6.338  0.00  0.00    +0.191 HD
BRANCH  35  37
ATOM     37  C   UNL     1      -4.654  -2.861   8.459  0.00  0.00    +0.035 C 
ATOM     38  C   UNL     1      -4.106  -1.615   9.158  0.00  0.00    +0.029 C 
ATOM     39  C   UNL     1      -6.089  -2.599   7.998  0.00  0.00    +0.029 C 
ATOM     40  C   UNL     1      -4.638  -4.041   9.433  0.00  0.00    +0.029 C 
ENDBRANCH  35  37
ENDBRANCH   1  31
TORSDOF 5
