REMARK  Name = ZINC36637916
REMARK  11 active torsions:
REMARK  status: ('A' for Active; 'I' for Inactive)
REMARK    1  A    between atoms: C_1  and  C_2
REMARK    2  A    between atoms: C_2  and  C_3
REMARK    3  A    between atoms: N_12  and  C_13
REMARK    4  A    between atoms: C_13  and  C_14
REMARK    5  A    between atoms: C_14  and  N_15
REMARK    6  A    between atoms: N_15  and  C_16
REMARK    7  A    between atoms: N_15  and  C_18
REMARK    8  A    between atoms: C_16  and  C_17
REMARK    9  A    between atoms: C_18  and  C_19
REMARK   10  A    between atoms: C_20  and  C_22
REMARK   11  A    between atoms: C_26  and  N_31
REMARK                            x       y       z     vdW  Elec       q    Type
REMARK                         _______ _______ _______ _____ _____    ______ ____
ROOT
ATOM      1  C   UNL     1       0.567  -1.232  -0.964  0.00  0.00    -0.046 A 
ATOM      2  C   UNL     1      -0.089  -1.652  -2.112  0.00  0.00    +0.006 A 
ATOM      3  C   UNL     1       0.597  -1.948  -3.261  0.00  0.00    +0.029 A 
ATOM      4  C   UNL     1       2.006  -1.833  -3.312  0.00  0.00    +0.080 A 
ATOM      5  C   UNL     1       2.639  -1.403  -2.124  0.00  0.00    +0.041 A 
ATOM      6  C   UNL     1       1.944  -1.104  -0.979  0.00  0.00    +0.021 A 
ATOM      7  S   UNL     1       4.353  -1.390  -2.593  0.00  0.00    -0.052 S 
ATOM      8  C   UNL     1       4.128  -1.938  -4.279  0.00  0.00    +0.168 A 
ATOM      9  N   UNL     1       2.826  -2.083  -4.355  0.00  0.00    -0.224 NA
ATOM     10  N   UNL     1       5.084  -2.155  -5.256  0.00  0.00    -0.248 N 
ATOM     11  C   UNL     1       6.387  -1.947  -4.982  0.00  0.00    +0.259 C 
ATOM     12  O   UNL     1       6.734  -1.669  -3.849  0.00  0.00    -0.269 OA
ENDROOT
BRANCH  11  13
ATOM     13  C   UNL     1       7.390  -2.057  -6.051  0.00  0.00    +0.076 A 
ATOM     14  C   UNL     1       8.745  -1.998  -5.951  0.00  0.00    +0.029 A 
ATOM     15  C   UNL     1       9.539  -2.127  -7.104  0.00  0.00    -0.008 A 
ATOM     16  C   UNL     1      10.954  -2.092  -7.204  0.00  0.00    +0.041 A 
ATOM     17  C   UNL     1      11.569  -2.233  -8.406  0.00  0.00    +0.127 A 
ATOM     18  C   UNL     1      10.845  -2.416  -9.578  0.00  0.00    +0.034 A 
ATOM     19  C   UNL     1       9.467  -2.456  -9.526  0.00  0.00    +0.018 A 
ATOM     20  C   UNL     1       8.828  -2.315  -8.313  0.00  0.00    +0.020 A 
ATOM     21  S   UNL     1       7.129  -2.310  -7.798  0.00  0.00    -0.084 S 
BRANCH  17  22
ATOM     22  N   UNL     1      13.048  -2.191  -8.470  0.00  0.00    +0.056 N 
ATOM     23  O   UNL     1      13.692  -2.033  -7.460  0.00  0.00    -0.126 OA
ATOM     24  O   UNL     1      13.611  -2.316  -9.533  0.00  0.00    -0.126 OA
ENDBRANCH  17  22
ENDBRANCH  11  13
BRANCH   1  26
ATOM     25  C   UNL     1      -0.611   0.564   0.276  0.00  0.00    +0.009 C 
ATOM     26  C   UNL     1      -0.213  -0.914   0.285  0.00  0.00    +0.032 C 
ENDBRANCH   1  26
BRANCH  10  27
ATOM     27  C   UNL     1       4.680  -2.609  -6.589  0.00  0.00    +0.097 C 
BRANCH  27  28
ATOM     28  C   UNL     1       4.439  -1.397  -7.490  0.00  0.00    -0.059 C 
BRANCH  28  29
ATOM     29  N   UNL     1       4.034  -1.853  -8.826  0.00  0.00    +0.380 N 
ATOM     30  H   UNL     1       4.725  -2.492  -9.188  0.00  0.00    -0.082 HD
BRANCH  29  31
ATOM     31  C   UNL     1       2.735  -2.534  -8.738  0.00  0.00    -0.082 C 
ATOM     32  C   UNL     1       2.385  -3.142 -10.098  0.00  0.00    -0.017 C 
ENDBRANCH  29  31
BRANCH  29  33
ATOM     33  C   UNL     1       3.919  -0.696  -9.725  0.00  0.00    -0.082 C 
ATOM     34  C   UNL     1       5.302  -0.077  -9.939  0.00  0.00    -0.017 C 
ENDBRANCH  29  33
ENDBRANCH  28  29
ENDBRANCH  27  28
ENDBRANCH  10  27
TORSDOF 8
