REMARK  Name = ZINC25075771
REMARK  13 active torsions:
REMARK  status: ('A' for Active; 'I' for Inactive)
REMARK    1  A    between atoms: C_1  and  C_2
REMARK    2  A    between atoms: C_2  and  C_3
REMARK    3  A    between atoms: C_2  and  C_5
REMARK    4  A    between atoms: C_2  and  N_8
REMARK    5  A    between atoms: C_9  and  C_11
REMARK    6  A    between atoms: C_11  and  N_12
REMARK    7  A    between atoms: N_12  and  C_13
REMARK    8  A    between atoms: N_12  and  C_21
REMARK    9  A    between atoms: C_13  and  C_14
REMARK   10  A    between atoms: C_14  and  C_15
REMARK   11  A    between atoms: C_22  and  N_37
REMARK   12  A    between atoms: N_23  and  C_30
REMARK   13  A    between atoms: C_30  and  C_31
REMARK                            x       y       z     vdW  Elec       q    Type
REMARK                         _______ _______ _______ _____ _____    ______ ____
ROOT
ATOM      1  N   UNL     1      -0.568   4.989  -4.250  0.00  0.00    -0.314 N 
ENDROOT
BRANCH   1   2
ATOM      2  C   UNL     1       0.500   5.600  -4.947  0.00  0.00    +0.134 A 
ATOM      3  C   UNL     1       0.546   6.960  -5.094  0.00  0.00    +0.127 A 
ATOM      4  N   UNL     1       1.599   7.530  -5.772  0.00  0.00    -0.276 N 
ATOM      5  C   UNL     1       2.570   6.758  -6.295  0.00  0.00    +0.331 A 
ATOM      6  O   UNL     1       3.490   7.279  -6.895  0.00  0.00    -0.246 OA
ATOM      7  N   UNL     1       2.538   5.420  -6.164  0.00  0.00    -0.273 N 
ATOM      8  H   UNL     1       3.340   4.806  -6.598  0.00  0.00    +0.173 HD
ATOM      9  C   UNL     1       1.528   4.819  -5.504  0.00  0.00    +0.277 A 
ATOM     10  O   UNL     1       1.507   3.605  -5.390  0.00  0.00    -0.266 OA
BRANCH   3  11
ATOM     11  N   UNL     1      -0.449   7.750  -4.565  0.00  0.00    -0.343 N 
ATOM     12  H   UNL     1      -0.407   8.842  -4.686  0.00  0.00    +0.144 HD
ATOM     13  H   UNL     1      -1.286   7.289  -4.020  0.00  0.00    +0.144 HD
ENDBRANCH   3  11
BRANCH   4  14
ATOM     14  C   UNL     1       1.661   8.985  -5.931  0.00  0.00    +0.163 C 
BRANCH  14  15
ATOM     15  C   UNL     1       0.948   9.383  -7.199  0.00  0.00    -0.028 A 
ATOM     16  C   UNL     1       1.647   9.461  -8.389  0.00  0.00    +0.005 A 
ATOM     17  C   UNL     1       0.993   9.820  -9.552  0.00  0.00    +0.000 A 
ATOM     18  C   UNL     1      -0.358  10.113  -9.523  0.00  0.00    +0.000 A 
ATOM     19  C   UNL     1      -1.056  10.040  -8.332  0.00  0.00    +0.000 A 
ATOM     20  C   UNL     1      -0.402   9.675  -7.170  0.00  0.00    +0.005 A 
ENDBRANCH  14  15
ENDBRANCH   4  14
ENDBRANCH   1   2
BRANCH   1  21
ATOM     21  C   UNL     1      -1.359   4.133  -5.145  0.00  0.00    +0.201 C 
BRANCH  21  23
ATOM     22  N   UNL     1      -3.657   3.222  -5.237  0.00  0.00    -0.296 N 
ATOM     23  C   UNL     1      -2.722   3.904  -4.545  0.00  0.00    +0.231 C 
ATOM     24  O   UNL     1      -2.979   4.333  -3.440  0.00  0.00    -0.274 OA
ATOM     25  H   UNL     1      -3.424   2.833  -6.239  0.00  0.00    +0.150 HD
BRANCH  22  27
ATOM     26  C   UNL     1      -4.840   2.212  -3.350  0.00  0.00    +0.048 C 
ATOM     27  C   UNL     1      -4.982   3.000  -4.654  0.00  0.00    +0.121 C 
BRANCH  27  28
ATOM     28  C   UNL     1      -5.845   2.206  -5.637  0.00  0.00    +0.026 C 
ATOM     29  C   UNL     1      -7.094   2.892  -6.194  0.00  0.00    +0.007 C 
ATOM     30  C   UNL     1      -7.233   1.768  -5.165  0.00  0.00    +0.007 C 
ENDBRANCH  27  28
BRANCH  27  31
ATOM     31  C   UNL     1      -5.621   4.297  -4.377  0.00  0.00    +0.088 C 
ATOM     32  N   UNL     1      -6.114   5.298  -4.164  0.00  0.00    -0.194 NA
ENDBRANCH  27  31
ENDBRANCH  22  27
ENDBRANCH  21  23
ENDBRANCH   1  21
BRANCH   1  33
ATOM     33  C   UNL     1      -0.076   4.229  -3.093  0.00  0.00    +0.110 C 
BRANCH  33  34
ATOM     34  C   UNL     1       0.309   5.198  -1.974  0.00  0.00    +0.049 C 
BRANCH  34  35
ATOM     35  C   UNL     1       0.697   4.416  -0.745  0.00  0.00    -0.072 C 
ATOM     36  C   UNL     1       1.953   4.166  -0.556  0.00  0.00    -0.028 C 
ATOM     37  C   UNL     1       2.490   3.392   0.613  0.00  0.00    +0.027 C 
ATOM     38  C   UNL     1       1.443   3.316   1.725  0.00  0.00    +0.004 C 
ATOM     39  C   UNL     1       0.111   2.868   1.109  0.00  0.00    +0.005 C 
ATOM     40  C   UNL     1      -0.397   3.977   0.184  0.00  0.00    +0.030 C 
ENDBRANCH  34  35
ENDBRANCH  33  34
ENDBRANCH   1  33
TORSDOF 12
