REMARK  Name = ZINC08987411
REMARK  10 active torsions:
REMARK  status: ('A' for Active; 'I' for Inactive)
REMARK    1  A    between atoms: C_1  and  N_52
REMARK    2  A    between atoms: C_2  and  N_52
REMARK    3  A    between atoms: C_3  and  C_4
REMARK    4  A    between atoms: C_3  and  N_52
REMARK    5  A    between atoms: C_4  and  N_5
REMARK    6  A    between atoms: C_6  and  C_24
REMARK    7  A    between atoms: C_9  and  C_10
REMARK    8  A    between atoms: C_9  and  O_19
REMARK    9  A    between atoms: C_13  and  O_17
REMARK   10  A    between atoms: O_17  and  C_18
REMARK                            x       y       z     vdW  Elec       q    Type
REMARK                         _______ _______ _______ _____ _____    ______ ____
ROOT
ATOM      1  N   UNL     1       1.232   1.885  -0.767  0.00  0.00    -0.285 N 
ATOM      2  C   UNL     1       2.151   0.816  -0.366  0.00  0.00    +0.144 C 
ATOM      3  C   UNL     1       1.346  -0.462  -0.346  0.00  0.00    +0.071 C 
ATOM      4  C   UNL     1       1.802  -1.726  -0.024  0.00  0.00    +0.133 C 
ATOM      5  C   UNL     1       0.042  -0.107  -0.721  0.00  0.00    +0.249 C 
ATOM      6  O   UNL     1      -0.904  -0.868  -0.822  0.00  0.00    -0.282 OA
ATOM      7  C   UNL     1       0.013   1.359  -0.974  0.00  0.00    +0.288 C 
ATOM      8  O   UNL     1      -0.966   1.986  -1.320  0.00  0.00    -0.266 OA
ENDROOT
BRANCH   4   9
ATOM      9  C   UNL     1       0.853  -2.843   0.091  0.00  0.00    +0.019 A 
ATOM     10  C   UNL     1      -0.287  -2.718   0.895  0.00  0.00    +0.015 A 
ATOM     11  C   UNL     1      -1.175  -3.764   0.994  0.00  0.00    +0.048 A 
ATOM     12  C   UNL     1      -0.937  -4.949   0.307  0.00  0.00    +0.138 A 
ATOM     13  C   UNL     1       0.196  -5.082  -0.489  0.00  0.00    +0.083 A 
ATOM     14  C   UNL     1       1.088  -4.038  -0.600  0.00  0.00    +0.035 A 
ATOM     15 CL   UNL     1       0.486  -6.564  -1.344  0.00  0.00    -0.080 Cl
BRANCH  12  16
ATOM     16  O   UNL     1      -1.813  -5.980   0.414  0.00  0.00    -0.494 OA
ATOM     17  C   UNL     1      -2.956  -5.778   1.248  0.00  0.00    +0.277 C 
ENDBRANCH  12  16
ENDBRANCH   4   9
BRANCH   2  18
ATOM     18  C   UNL     1       2.704   1.099   1.007  0.00  0.00    -0.022 A 
ATOM     19  C   UNL     1       1.889   1.649   1.980  0.00  0.00    +0.007 A 
ATOM     20  C   UNL     1       2.394   1.904   3.241  0.00  0.00    +0.015 A 
ATOM     21  C   UNL     1       3.717   1.619   3.527  0.00  0.00    +0.018 A 
ATOM     22  C   UNL     1       4.533   1.074   2.552  0.00  0.00    +0.015 A 
ATOM     23  C   UNL     1       4.026   0.814   1.292  0.00  0.00    +0.007 A 
ATOM     24 BR   UNL     1       4.411   1.974   5.250  0.00  0.00    -0.050 Br
ENDBRANCH   2  18
BRANCH   4  25
ATOM     25  O   UNL     1       3.119  -1.935   0.187  0.00  0.00    -0.506 OA
ATOM     26  H   UNL     1       3.273  -2.897   0.408  0.00  0.00    +0.292 HD
ENDBRANCH   4  25
BRANCH   1  27
ATOM     27  C   UNL     1       1.585   3.299  -0.919  0.00  0.00    +0.090 C 
BRANCH  27  28
ATOM     28  C   UNL     1       1.374   4.023   0.412  0.00  0.00    -0.060 C 
BRANCH  28  31
ATOM     29  C   UNL     1       0.802   6.119  -0.658  0.00  0.00    -0.097 C 
ATOM     30  C   UNL     1       1.766   6.117   1.563  0.00  0.00    -0.097 C 
ATOM     31  N   UNL     1       1.754   5.442   0.248  0.00  0.00    +0.377 N 
ATOM     32  H   UNL     1       2.695   5.490  -0.160  0.00  0.00    -0.083 HD
ENDBRANCH  28  31
ENDBRANCH  27  28
ENDBRANCH   1  27
TORSDOF 7
