REMARK  Name = ZINC02543724
REMARK  10 active torsions:
REMARK  status: ('A' for Active; 'I' for Inactive)
REMARK    1  A    between atoms: C_1  and  C_2
REMARK    2  A    between atoms: C_2  and  C_3
REMARK    3  A    between atoms: C_6  and  N_9
REMARK    4  A    between atoms: C_10  and  C_12
REMARK    5  A    between atoms: N_14  and  N_15
REMARK    6  A    between atoms: C_16  and  C_17
REMARK    7  A    between atoms: C_22  and  O_23
REMARK    8  A    between atoms: O_23  and  C_24
REMARK    9  A    between atoms: C_24  and  C_26
REMARK   10  A    between atoms: C_31  and  C_32
REMARK                            x       y       z     vdW  Elec       q    Type
REMARK                         _______ _______ _______ _____ _____    ______ ____
ROOT
ATOM      1  N   UNL     1      -2.773   6.114   9.526  0.00  0.00    -0.187 NA
ATOM      2  C   UNL     1      -2.589   6.997  10.462  0.00  0.00    +0.142 C 
ENDROOT
BRANCH   2   3
ATOM      3  C   UNL     1      -3.476   7.019  11.638  0.00  0.00    +0.038 A 
ATOM      4  C   UNL     1      -3.345   8.026  12.597  0.00  0.00    +0.028 A 
ATOM      5  C   UNL     1      -4.179   8.041  13.695  0.00  0.00    +0.019 A 
ATOM      6  C   UNL     1      -5.146   7.061  13.852  0.00  0.00    +0.019 A 
ATOM      7  C   UNL     1      -5.285   6.059  12.910  0.00  0.00    +0.048 A 
ATOM      8  C   UNL     1      -4.459   6.032  11.798  0.00  0.00    +0.141 A 
ATOM      9 BR   UNL     1      -4.003   9.405  14.993  0.00  0.00    -0.050 Br
BRANCH   8  10
ATOM     10  O   UNL     1      -4.598   5.051  10.869  0.00  0.00    -0.422 OA
BRANCH  10  11
ATOM     11  C   UNL     1      -3.825   3.957  11.015  0.00  0.00    +0.345 C 
ATOM     12  O   UNL     1      -2.998   3.912  11.903  0.00  0.00    -0.245 OA
BRANCH  11  13
ATOM     13  C   UNL     1      -3.983   2.813  10.094  0.00  0.00    +0.062 A 
ATOM     14  C   UNL     1      -5.017   2.806   9.155  0.00  0.00    +0.015 A 
ATOM     15  C   UNL     1      -5.156   1.738   8.294  0.00  0.00    +0.001 A 
ATOM     16  C   UNL     1      -4.280   0.668   8.367  0.00  0.00    +0.000 A 
ATOM     17  C   UNL     1      -3.257   0.666   9.299  0.00  0.00    +0.004 A 
ATOM     18  C   UNL     1      -3.104   1.731  10.162  0.00  0.00    -0.036 A 
ATOM     19  C   UNL     1      -1.989   1.726  11.176  0.00  0.00    +0.044 C 
ENDBRANCH  11  13
ENDBRANCH  10  11
ENDBRANCH   8  10
ENDBRANCH   2   3
BRANCH   1  22
ATOM     20  C   UNL     1      -2.050   5.099   7.497  0.00  0.00    +0.318 C 
ATOM     21  O   UNL     1      -3.029   4.381   7.521  0.00  0.00    -0.263 OA
ATOM     22  N   UNL     1      -1.878   6.036   8.451  0.00  0.00    -0.199 N 
ATOM     23  H   UNL     1      -1.135   6.657   8.392  0.00  0.00    +0.178 HD
BRANCH  20  25
ATOM     24  N   UNL     1      -1.210   4.007   5.460  0.00  0.00    -0.278 N 
ATOM     25  C   UNL     1      -1.038   4.944   6.413  0.00  0.00    +0.305 C 
ATOM     26  O   UNL     1      -0.060   5.662   6.389  0.00  0.00    -0.265 OA
ATOM     27  H   UNL     1      -2.028   3.486   5.434  0.00  0.00    +0.155 HD
BRANCH  24  31
ATOM     28  C   UNL     1       1.768   3.352   2.624  0.00  0.00    -0.048 A 
ATOM     29  C   UNL     1       2.108   3.767   3.899  0.00  0.00    +0.005 A 
ATOM     30  C   UNL     1       1.123   3.990   4.840  0.00  0.00    +0.023 A 
ATOM     31  C   UNL     1      -0.211   3.787   4.508  0.00  0.00    +0.034 A 
ATOM     32  C   UNL     1      -0.549   3.365   3.229  0.00  0.00    +0.023 A 
ATOM     33  C   UNL     1       0.442   3.148   2.291  0.00  0.00    +0.005 A 
BRANCH  28  35
ATOM     34  C   UNL     1       3.107   4.408   0.824  0.00  0.00    +0.009 C 
ATOM     35  C   UNL     1       2.846   3.115   1.598  0.00  0.00    +0.032 C 
ENDBRANCH  28  35
ENDBRANCH  24  31
ENDBRANCH  20  25
ENDBRANCH   1  22
TORSDOF 8
