REMARK  Name = ZINC39704038
REMARK  9 active torsions:
REMARK  status: ('A' for Active; 'I' for Inactive)
REMARK    1  A    between atoms: C_4  and  C_7
REMARK    2  A    between atoms: C_7  and  C_9
REMARK    3  A    between atoms: C_11  and  N_20
REMARK    4  A    between atoms: C_21  and  C_23
REMARK    5  A    between atoms: C_23  and  S_24
REMARK    6  A    between atoms: S_24  and  C_25
REMARK    7  A    between atoms: C_29  and  C_32
REMARK    8  A    between atoms: C_32  and  C_33
REMARK    9  A    between atoms: C_33  and  C_34
REMARK                            x       y       z     vdW  Elec       q    Type
REMARK                         _______ _______ _______ _____ _____    ______ ____
ROOT
ATOM      1  N   UNL     1       2.349  -3.042  -1.945  0.00  0.00    -0.302 N 
ATOM      2  C   UNL     1       1.898  -2.639  -3.149  0.00  0.00    +0.224 C 
ATOM      3  O   UNL     1       2.612  -1.980  -3.875  0.00  0.00    -0.275 OA
ATOM      4  H   UNL     1       1.777  -3.569  -1.365  0.00  0.00    +0.150 HD
ENDROOT
BRANCH   1   6
ATOM      5  C   UNL     1       3.716  -2.186  -0.046  0.00  0.00    +0.117 C 
ATOM      6  C   UNL     1       3.702  -2.684  -1.512  0.00  0.00    +0.150 C 
ATOM      7  S   UNL     1       4.766  -4.174  -1.312  0.00  0.00    -0.106 S 
ATOM      8  C   UNL     1       5.605  -3.694   0.180  0.00  0.00    -0.013 C 
ATOM      9  C   UNL     1       4.944  -2.662   0.688  0.00  0.00    -0.047 C 
ATOM     10  C   UNL     1       5.415  -1.985   1.973  0.00  0.00    +0.032 C 
ATOM     11  C   UNL     1       6.349  -2.932   2.726  0.00  0.00    +0.005 C 
ATOM     12  C   UNL     1       7.458  -3.412   1.784  0.00  0.00    +0.005 C 
ATOM     13  C   UNL     1       6.836  -4.346   0.744  0.00  0.00    +0.042 C 
BRANCH   5  14
ATOM     14  C   UNL     1       3.691  -0.679  -0.038  0.00  0.00    +0.173 C 
ATOM     15  O   UNL     1       4.731  -0.056  -0.045  0.00  0.00    -0.291 OA
BRANCH  14  19
ATOM     16  C   UNL     1      -0.017   1.380   0.010  0.00  0.00    +0.000 A 
ATOM     17  C   UNL     1       1.168   2.095   0.002  0.00  0.00    +0.001 A 
ATOM     18  C   UNL     1       2.377   1.433  -0.013  0.00  0.00    +0.011 A 
ATOM     19  C   UNL     1       2.405   0.035  -0.021  0.00  0.00    +0.018 A 
ATOM     20  C   UNL     1       1.203  -0.681  -0.013  0.00  0.00    +0.011 A 
ATOM     21  C   UNL     1       0.002  -0.004   0.002  0.00  0.00    +0.001 A 
ENDBRANCH  14  19
ENDBRANCH   5  14
ENDBRANCH   1   6
BRANCH   2  22
ATOM     22  C   UNL     1       0.506  -3.007  -3.595  0.00  0.00    +0.173 C 
BRANCH  22  23
ATOM     23  S   UNL     1       0.199  -2.322  -5.247  0.00  0.00    -0.075 S 
BRANCH  23  24
ATOM     24  C   UNL     1      -1.445  -2.833  -5.620  0.00  0.00    +0.213 A 
ATOM     25  N   UNL     1      -1.990  -2.491  -6.782  0.00  0.00    -0.180 NA
ATOM     26  C   UNL     1      -3.231  -2.878  -7.058  0.00  0.00    +0.296 A 
ATOM     27  O   UNL     1      -3.813  -2.544  -8.235  0.00  0.00    -0.264 OA
ATOM     28  C   UNL     1      -3.922  -3.636  -6.112  0.00  0.00    +0.130 A 
ATOM     29  N   UNL     1      -3.328  -3.945  -4.975  0.00  0.00    -0.146 NA
ATOM     30  N   UNL     1      -2.123  -3.559  -4.740  0.00  0.00    -0.122 NA
BRANCH  28  31
ATOM     31  C   UNL     1      -5.332  -4.095  -6.386  0.00  0.00    +0.074 C 
BRANCH  31  32
ATOM     32  C   UNL     1      -5.298  -5.461  -7.074  0.00  0.00    +0.131 C 
BRANCH  32  33
ATOM     33  C   UNL     1      -6.707  -5.920  -7.348  0.00  0.00    +0.356 C 
ATOM     34  O   UNL     1      -7.650  -5.221  -7.022  0.00  0.00    -0.246 OA
ATOM     35  O   UNL     1      -6.903  -6.992  -7.895  0.00  0.00    -0.246 OA
ENDBRANCH  32  33
ENDBRANCH  31  32
ENDBRANCH  28  31
ENDBRANCH  23  24
ENDBRANCH  22  23
ENDBRANCH   2  22
TORSDOF 9
