REMARK  Name = ZINC04276385
REMARK  5 active torsions:
REMARK  status: ('A' for Active; 'I' for Inactive)
REMARK    1  A    between atoms: C_1  and  C_2
REMARK    2  A    between atoms: C_3  and  C_17
REMARK    3  A    between atoms: C_4  and  C_10
REMARK    4  A    between atoms: C_13  and  O_16
REMARK    5  A    between atoms: N_19  and  C_20
REMARK                            x       y       z     vdW  Elec       q    Type
REMARK                         _______ _______ _______ _____ _____    ______ ____
ROOT
ATOM      1  C   UNL     1       5.246  -4.308   0.106  0.00  0.00    +0.061 C 
ATOM      2  C   UNL     1       3.908  -5.001   0.062  0.00  0.00    +0.019 C 
ATOM      3  C   UNL     1       2.781  -4.263  -0.012  0.00  0.00    +0.056 C 
ATOM      4  C   UNL     1       1.457  -4.999  -0.049  0.00  0.00    +0.142 C 
ATOM      5  N   UNL     1       1.510  -6.470  -0.010  0.00  0.00    -0.288 N 
ATOM      6  C   UNL     1       2.716  -7.067   0.064  0.00  0.00    +0.304 C 
ATOM      7  O   UNL     1       2.771  -8.281   0.101  0.00  0.00    -0.252 OA
ATOM      8  N   UNL     1       3.857  -6.366   0.098  0.00  0.00    -0.273 N 
ATOM      9  H   UNL     1       0.696  -6.997  -0.033  0.00  0.00    +0.151 HD
ATOM     10  H   UNL     1       4.693  -6.854   0.151  0.00  0.00    +0.156 HD
ENDROOT
BRANCH   4  11
ATOM     11  C   UNL     1       0.736  -4.597  -1.309  0.00  0.00    -0.022 A 
ATOM     12  C   UNL     1       1.100  -5.156  -2.521  0.00  0.00    +0.009 A 
ATOM     13  C   UNL     1       0.437  -4.793  -3.677  0.00  0.00    +0.046 A 
ATOM     14  C   UNL     1      -0.587  -3.859  -3.624  0.00  0.00    +0.117 A 
ATOM     15  C   UNL     1      -0.946  -3.295  -2.408  0.00  0.00    +0.046 A 
ATOM     16  C   UNL     1      -0.284  -3.666  -1.254  0.00  0.00    +0.009 A 
BRANCH  14  17
ATOM     17  O   UNL     1      -1.237  -3.497  -4.761  0.00  0.00    -0.507 OA
ATOM     18  H   UNL     1      -0.840  -2.743  -5.218  0.00  0.00    +0.292 HD
ENDBRANCH  14  17
ENDBRANCH   4  11
BRANCH   3  19
ATOM     19  C   UNL     1       2.833  -2.848  -0.049  0.00  0.00    +0.248 C 
ATOM     20  O   UNL     1       2.537  -2.202   0.940  0.00  0.00    -0.270 OA
ATOM     21  N   UNL     1       3.210  -2.216  -1.178  0.00  0.00    -0.279 N 
ATOM     22  H   UNL     1       3.350  -2.723  -1.994  0.00  0.00    +0.155 HD
BRANCH  21  23
ATOM     23  C   UNL     1       3.401  -0.830  -1.174  0.00  0.00    +0.069 A 
ATOM     24  C   UNL     1       2.657  -0.027  -0.320  0.00  0.00    +0.026 A 
ATOM     25  C   UNL     1       2.847   1.341  -0.318  0.00  0.00    +0.002 A 
ATOM     26  C   UNL     1       3.778   1.913  -1.166  0.00  0.00    +0.003 A 
ATOM     27  C   UNL     1       4.522   1.118  -2.018  0.00  0.00    +0.040 A 
ATOM     28  C   UNL     1       4.337  -0.252  -2.026  0.00  0.00    +0.144 A 
ATOM     29  F   UNL     1       5.063  -1.029  -2.859  0.00  0.00    -0.204 F 
ENDBRANCH  21  23
ENDBRANCH   3  19
TORSDOF 4
