REMARK  Name = ZINC39992945
REMARK  6 active torsions:
REMARK  status: ('A' for Active; 'I' for Inactive)
REMARK    1  A    between atoms: C_5  and  N_7
REMARK    2  A    between atoms: C_8  and  C_10
REMARK    3  A    between atoms: C_10  and  C_31
REMARK    4  A    between atoms: C_11  and  C_12
REMARK    5  A    between atoms: C_13  and  O_23
REMARK    6  A    between atoms: O_23  and  C_24
REMARK                            x       y       z     vdW  Elec       q    Type
REMARK                         _______ _______ _______ _____ _____    ______ ____
ROOT
ATOM      1  C   UNL     1      -0.672  -6.315  -0.221  0.00  0.00    +0.103 A 
ATOM      2  C   UNL     1      -1.773  -7.206  -0.215  0.00  0.00    +0.235 A 
ATOM      3  N   UNL     1      -1.556  -8.510  -0.236  0.00  0.00    -0.194 NA
ATOM      4  C   UNL     1      -0.321  -9.016  -0.262  0.00  0.00    +0.144 A 
ATOM      5  C   UNL     1      -0.155 -10.411  -0.283  0.00  0.00    +0.047 A 
ATOM      6  C   UNL     1       1.102 -10.939  -0.311  0.00  0.00    +0.005 A 
ATOM      7  C   UNL     1       2.211 -10.083  -0.317  0.00  0.00    +0.018 A 
ATOM      8  C   UNL     1       2.032  -8.742  -0.296  0.00  0.00    +0.096 A 
ATOM      9  N   UNL     1       0.780  -8.206  -0.270  0.00  0.00    -0.268 N 
ATOM     10  C   UNL     1       0.637  -6.863  -0.255  0.00  0.00    +0.269 A 
ATOM     11  O   UNL     1       1.613  -6.136  -0.267  0.00  0.00    -0.266 OA
ENDROOT
BRANCH   1  13
ATOM     12  C   UNL     1      -1.634  -4.315  -1.188  0.00  0.00    +0.114 C 
ATOM     13  C   UNL     1      -0.871  -4.923  -0.200  0.00  0.00    +0.042 C 
BRANCH  12  15
ATOM     14  N   UNL     1      -2.582  -2.274  -2.124  0.00  0.00    -0.280 N 
ATOM     15  C   UNL     1      -1.842  -2.864  -1.164  0.00  0.00    +0.259 C 
ATOM     16  O   UNL     1      -1.347  -2.192  -0.278  0.00  0.00    -0.269 OA
ATOM     17  H   UNL     1      -3.042  -2.816  -2.784  0.00  0.00    +0.155 HD
BRANCH  14  22
ATOM     18  C   UNL     1      -2.776   1.234  -1.037  0.00  0.00    +0.002 A 
ATOM     19  C   UNL     1      -2.897   1.879  -2.254  0.00  0.00    +0.002 A 
ATOM     20  C   UNL     1      -2.915   1.149  -3.428  0.00  0.00    +0.022 A 
ATOM     21  C   UNL     1      -2.811  -0.228  -3.389  0.00  0.00    +0.062 A 
ATOM     22  C   UNL     1      -2.688  -0.879  -2.167  0.00  0.00    +0.052 A 
ATOM     23  C   UNL     1      -2.671  -0.143  -0.990  0.00  0.00    +0.025 A 
ATOM     24 CL   UNL     1      -2.833  -1.144  -4.864  0.00  0.00    -0.082 Cl
ENDBRANCH  14  22
ENDBRANCH  12  15
BRANCH  12  25
ATOM     25  C   UNL     1      -2.216  -5.105  -2.230  0.00  0.00    +0.104 C 
ATOM     26  N   UNL     1      -2.679  -5.732  -3.057  0.00  0.00    -0.191 NA
ENDBRANCH  12  25
ENDBRANCH   1  13
BRANCH   2  27
ATOM     27  O   UNL     1      -3.037  -6.727  -0.188  0.00  0.00    -0.436 OA
BRANCH  27  28
ATOM     28  C   UNL     1      -4.055  -7.619  -0.067  0.00  0.00    +0.149 A 
ATOM     29  C   UNL     1      -4.732  -8.057  -1.196  0.00  0.00    +0.048 A 
ATOM     30  C   UNL     1      -5.767  -8.964  -1.071  0.00  0.00    +0.004 A 
ATOM     31  C   UNL     1      -6.129  -9.435   0.177  0.00  0.00    +0.002 A 
ATOM     32  C   UNL     1      -5.456  -9.001   1.305  0.00  0.00    +0.024 A 
ATOM     33  C   UNL     1      -4.416  -8.098   1.185  0.00  0.00    +0.083 A 
ATOM     34 CL   UNL     1      -3.567  -7.558   2.599  0.00  0.00    -0.080 Cl
ENDBRANCH  27  28
ENDBRANCH   2  27
TORSDOF 6
