REMARK  Name = ZINC22064083
REMARK  4 active torsions:
REMARK  status: ('A' for Active; 'I' for Inactive)
REMARK    1  A    between atoms: C_1  and  C_2
REMARK    2  A    between atoms: N_11  and  C_12
REMARK    3  A    between atoms: C_12  and  C_13
REMARK    4  A    between atoms: N_15  and  C_16
REMARK                            x       y       z     vdW  Elec       q    Type
REMARK                         _______ _______ _______ _____ _____    ______ ____
ROOT
ATOM      1  C   UNL     1       5.977   3.403   0.399  0.00  0.00    +0.201 C 
ATOM      2  O   UNL     1       5.928   2.230   0.703  0.00  0.00    -0.278 OA
ATOM      3  N   UNL     1       4.866   4.036  -0.027  0.00  0.00    -0.286 N 
ATOM      4  H   UNL     1       4.929   5.073  -0.389  0.00  0.00    +0.155 HD
ENDROOT
BRANCH   3   5
ATOM      5  C   UNL     1       3.631   3.374  -0.008  0.00  0.00    +0.051 A 
ATOM      6  C   UNL     1       3.419   2.325   0.876  0.00  0.00    +0.073 A 
ATOM      7  C   UNL     1       2.198   1.671   0.895  0.00  0.00    +0.164 A 
ATOM      8  C   UNL     1       1.185   2.068   0.030  0.00  0.00    +0.163 A 
ATOM      9  C   UNL     1       1.400   3.115  -0.854  0.00  0.00    +0.066 A 
ATOM     10  C   UNL     1       2.619   3.767  -0.874  0.00  0.00    +0.043 A 
ATOM     11 BR   UNL     1       2.908   5.194  -2.080  0.00  0.00    -0.048 Br
ATOM     12  O   UNL     1      -0.024   1.440   0.038  0.00  0.00    -0.485 OA
ATOM     13  C   UNL     1      -0.079   0.158   0.672  0.00  0.00    +0.270 C 
ATOM     14  C   UNL     1       0.651   0.257   2.019  0.00  0.00    +0.270 C 
ATOM     15  O   UNL     1       2.006   0.643   1.766  0.00  0.00    -0.485 OA
ENDBRANCH   3   5
BRANCH   1  16
ATOM     16  C   UNL     1       7.281   4.152   0.496  0.00  0.00    +0.020 C 
BRANCH  16  26
ATOM     17  C   UNL     1       9.221   4.975   2.473  0.00  0.00    -0.008 C 
ATOM     18  C   UNL     1       9.543   3.992   1.345  0.00  0.00    -0.039 C 
ATOM     19  C   UNL     1      10.602   3.001   1.817  0.00  0.00    -0.051 A 
ATOM     20  C   UNL     1      11.716   3.356   2.575  0.00  0.00    +0.010 A 
ATOM     21  C   UNL     1      12.605   2.410   2.955  0.00  0.00    +0.045 A 
ATOM     22  S   UNL     1      11.899   0.931   2.242  0.00  0.00    -0.101 S 
ATOM     23  C   UNL     1      10.480   1.682   1.496  0.00  0.00    -0.010 A 
ATOM     24  C   UNL     1       9.384   1.057   0.696  0.00  0.00    +0.024 C 
ATOM     25  C   UNL     1       8.608   2.188  -0.001  0.00  0.00    -0.072 C 
ATOM     26  N   UNL     1       8.331   3.246   0.981  0.00  0.00    +0.390 N 
ATOM     27  H   UNL     1       7.968   2.754   1.895  0.00  0.00    -0.080 HD
ENDBRANCH  16  26
ENDBRANCH   1  16
TORSDOF 3
