REMARK  Name = ZINC09577675
REMARK  10 active torsions:
REMARK  status: ('A' for Active; 'I' for Inactive)
REMARK    1  A    between atoms: C_1  and  C_2
REMARK    2  A    between atoms: C_4  and  C_35
REMARK    3  A    between atoms: C_5  and  N_9
REMARK    4  A    between atoms: C_6  and  C_8
REMARK    5  A    between atoms: C_10  and  C_12
REMARK    6  A    between atoms: C_12  and  N_13
REMARK    7  A    between atoms: C_14  and  C_16
REMARK    8  A    between atoms: C_16  and  N_17
REMARK    9  A    between atoms: C_20  and  C_24
REMARK   10  A    between atoms: C_20  and  C_25
REMARK                            x       y       z     vdW  Elec       q    Type
REMARK                         _______ _______ _______ _____ _____    ______ ____
ROOT
ATOM      1  C   UNL     1       8.972   1.611  -1.129  0.00  0.00    +0.213 C 
ENDROOT
BRANCH   1   2
ATOM      2  N   UNL     1      10.193   0.842  -1.380  0.00  0.00    -0.215 N 
ATOM      3  C   UNL     1      10.627   0.487  -2.605  0.00  0.00    +0.251 C 
ATOM      4  O   UNL     1      10.100   0.736  -3.669  0.00  0.00    -0.272 OA
ATOM      5  C   UNL     1      11.911  -0.285  -2.378  0.00  0.00    +0.136 C 
ATOM      6  N   UNL     1      12.066  -0.276  -0.913  0.00  0.00    -0.281 N 
ATOM      7  C   UNL     1      11.019   0.409  -0.420  0.00  0.00    +0.310 C 
ATOM      8  O   UNL     1      10.841   0.609   0.766  0.00  0.00    -0.252 OA
ATOM      9  C   UNL     1      11.775  -1.719  -2.896  0.00  0.00    +0.047 C 
ATOM     10  H   UNL     1      12.786  -0.681  -0.404  0.00  0.00    +0.152 HD
BRANCH   5  11
ATOM     11  C   UNL     1      13.072   0.409  -3.042  0.00  0.00    -0.008 A 
ATOM     12  C   UNL     1      14.112   0.870  -2.295  0.00  0.00    +0.007 A 
ATOM     13  C   UNL     1      15.194   1.514  -2.891  0.00  0.00    +0.001 A 
ATOM     14  C   UNL     1      15.243   1.700  -4.239  0.00  0.00    +0.008 A 
ATOM     15  C   UNL     1      14.188   1.238  -5.043  0.00  0.00    -0.018 A 
ATOM     16  C   UNL     1      13.090   0.578  -4.437  0.00  0.00    -0.012 A 
ATOM     17  C   UNL     1      12.032   0.120  -5.241  0.00  0.00    +0.009 A 
ATOM     18  C   UNL     1      12.081   0.307  -6.588  0.00  0.00    +0.001 A 
ATOM     19  C   UNL     1      13.163   0.951  -7.185  0.00  0.00    +0.001 A 
ATOM     20  C   UNL     1      14.203   1.412  -6.438  0.00  0.00    +0.008 A 
ENDBRANCH   5  11
ENDBRANCH   1   2
BRANCH   1  22
ATOM     21  N   UNL     1       6.576   1.154  -0.716  0.00  0.00    -0.305 N 
ATOM     22  C   UNL     1       7.810   0.667  -0.957  0.00  0.00    +0.231 C 
ATOM     23  O   UNL     1       7.984  -0.530  -1.036  0.00  0.00    -0.274 OA
ATOM     24  H   UNL     1       6.436   2.111  -0.653  0.00  0.00    +0.149 HD
BRANCH  21  25
ATOM     25  C   UNL     1       5.447   0.236  -0.548  0.00  0.00    +0.200 C 
BRANCH  25  27
ATOM     26  N   UNL     1       3.018   0.389  -0.105  0.00  0.00    -0.284 N 
ATOM     27  C   UNL     1       4.190   1.028  -0.291  0.00  0.00    +0.234 C 
ATOM     28  O   UNL     1       4.234   2.239  -0.251  0.00  0.00    -0.274 OA
ATOM     29  H   UNL     1       2.990  -0.580  -0.093  0.00  0.00    +0.155 HD
BRANCH  26  34
ATOM     30  C   UNL     1      -1.751   3.378   0.611  0.00  0.00    +0.044 C 
ATOM     31  C   UNL     1      -0.486   2.581   0.418  0.00  0.00    -0.050 A 
ATOM     32  C   UNL     1      -0.195   1.531   1.270  0.00  0.00    +0.008 A 
ATOM     33  C   UNL     1       0.965   0.803   1.099  0.00  0.00    -0.029 A 
ATOM     34  C   UNL     1       1.841   1.125   0.070  0.00  0.00    +0.039 A 
ATOM     35  C   UNL     1       1.546   2.180  -0.784  0.00  0.00    -0.029 A 
ATOM     36  C   UNL     1       0.383   2.904  -0.608  0.00  0.00    +0.008 A 
ATOM     37  C   UNL     1       2.493   2.533  -1.901  0.00  0.00    +0.045 C 
ATOM     38  C   UNL     1       1.282  -0.341   2.028  0.00  0.00    +0.045 C 
ENDBRANCH  26  34
ENDBRANCH  25  27
ENDBRANCH  21  25
ENDBRANCH   1  22
TORSDOF 6
