REMARK  Name = ZINC17905939
REMARK  7 active torsions:
REMARK  status: ('A' for Active; 'I' for Inactive)
REMARK    1  A    between atoms: C_1  and  C_2
REMARK    2  A    between atoms: C_5  and  C_16
REMARK    3  A    between atoms: N_8  and  C_10
REMARK    4  A    between atoms: N_18  and  C_19
REMARK    5  A    between atoms: C_19  and  C_20
REMARK    6  A    between atoms: C_22  and  N_27
REMARK    7  A    between atoms: C_25  and  O_26
REMARK                            x       y       z     vdW  Elec       q    Type
REMARK                         _______ _______ _______ _____ _____    ______ ____
ROOT
ATOM      1  C   UNL     1       0.004  -1.886  -4.819  0.00  0.00    +0.251 C 
ATOM      2  O   UNL     1      -0.013  -0.869  -5.488  0.00  0.00    -0.270 OA
ATOM      3  N   UNL     1       0.017  -3.090  -5.425  0.00  0.00    -0.307 N 
ATOM      4  H   UNL     1       0.031  -3.900  -4.892  0.00  0.00    +0.149 HD
ENDROOT
BRANCH   1   9
ATOM      5  C   UNL     1      -0.018   1.503   0.010  0.00  0.00    +0.068 C 
ATOM      6  C   UNL     1       0.002  -0.004   0.002  0.00  0.00    +0.069 A 
ATOM      7  C   UNL     1       0.008  -0.829  -1.170  0.00  0.00    +0.031 A 
ATOM      8  C   UNL     1      -0.001  -0.690  -2.567  0.00  0.00    +0.032 A 
ATOM      9  C   UNL     1       0.010  -1.801  -3.356  0.00  0.00    +0.076 A 
ATOM     10  S   UNL     1       0.034  -3.128  -2.162  0.00  0.00    -0.064 S 
ATOM     11  C   UNL     1       0.028  -2.145  -0.685  0.00  0.00    +0.113 A 
ATOM     12  N   UNL     1       0.033  -2.107   0.663  0.00  0.00    -0.225 N 
ATOM     13  N   UNL     1       0.023  -0.763   1.056  0.00  0.00    -0.170 NA
BRANCH  12  14
ATOM     14  C   UNL     1       0.052  -3.216   1.518  0.00  0.00    +0.067 A 
ATOM     15  C   UNL     1      -0.618  -4.380   1.164  0.00  0.00    +0.028 A 
ATOM     16  C   UNL     1      -0.598  -5.471   2.010  0.00  0.00    +0.002 A 
ATOM     17  C   UNL     1       0.089  -5.407   3.209  0.00  0.00    +0.000 A 
ATOM     18  C   UNL     1       0.757  -4.249   3.564  0.00  0.00    +0.002 A 
ATOM     19  C   UNL     1       0.746  -3.156   2.720  0.00  0.00    +0.028 A 
ENDBRANCH  12  14
ENDBRANCH   1   9
BRANCH   3  20
ATOM     20  C   UNL     1       0.011  -3.174  -6.887  0.00  0.00    +0.143 C 
BRANCH  20  21
ATOM     21  C   UNL     1       0.029  -4.622  -7.307  0.00  0.00    +0.013 A 
ATOM     22  C   UNL     1      -1.120  -5.214  -7.796  0.00  0.00    +0.041 A 
ATOM     23  C   UNL     1      -1.104  -6.542  -8.181  0.00  0.00    +0.127 A 
ATOM     24  C   UNL     1       0.060  -7.280  -8.078  0.00  0.00    +0.036 A 
ATOM     25  C   UNL     1       1.211  -6.693  -7.589  0.00  0.00    +0.048 A 
ATOM     26  C   UNL     1       1.199  -5.359  -7.207  0.00  0.00    +0.122 A 
BRANCH  23  27
ATOM     27  N   UNL     1      -2.336  -7.173  -8.704  0.00  0.00    +0.056 N 
ATOM     28  O   UNL     1      -3.355  -6.529  -8.795  0.00  0.00    -0.126 OA
ATOM     29  O   UNL     1      -2.324  -8.335  -9.041  0.00  0.00    -0.126 OA
ENDBRANCH  23  27
BRANCH  26  30
ATOM     30  O   UNL     1       2.332  -4.777  -6.731  0.00  0.00    -0.506 OA
ATOM     31  H   UNL     1       2.438  -4.850  -5.773  0.00  0.00    +0.292 HD
ENDBRANCH  26  30
ENDBRANCH  20  21
ENDBRANCH   3  20
TORSDOF 6
