REMARK  Name = ZINC59719165
REMARK  9 active torsions:
REMARK  status: ('A' for Active; 'I' for Inactive)
REMARK    1  A    between atoms: C_1  and  C_2
REMARK    2  A    between atoms: C_5  and  N_8
REMARK    3  A    between atoms: C_9  and  C_19
REMARK    4  A    between atoms: N_12  and  C_18
REMARK    5  A    between atoms: C_13  and  C_15
REMARK    6  A    between atoms: C_15  and  C_17
REMARK    7  A    between atoms: C_28  and  O_29
REMARK    8  A    between atoms: O_29  and  C_30
REMARK    9  A    between atoms: C_30  and  C_31
REMARK                            x       y       z     vdW  Elec       q    Type
REMARK                         _______ _______ _______ _____ _____    ______ ____
ROOT
ATOM      1  C   UNL     1      -1.170  -5.761   1.444  0.00  0.00    +0.040 A 
ATOM      2  C   UNL     1      -1.277  -6.676   2.504  0.00  0.00    -0.008 A 
ATOM      3  C   UNL     1      -0.193  -6.927   3.363  0.00  0.00    +0.009 A 
ATOM      4  C   UNL     1      -0.332  -7.820   4.380  0.00  0.00    +0.001 A 
ATOM      5  C   UNL     1      -1.535  -8.493   4.584  0.00  0.00    +0.001 A 
ATOM      6  C   UNL     1      -2.606  -8.276   3.772  0.00  0.00    +0.008 A 
ATOM      7  C   UNL     1      -2.501  -7.361   2.712  0.00  0.00    -0.017 A 
ATOM      8  C   UNL     1      -3.586  -7.111   1.854  0.00  0.00    +0.012 A 
ATOM      9  C   UNL     1      -3.451  -6.219   0.837  0.00  0.00    +0.046 A 
ATOM     10  C   UNL     1      -2.246  -5.539   0.633  0.00  0.00    +0.128 A 
ENDROOT
BRANCH   1  12
ATOM     11  N   UNL     1      -0.010  -4.151   0.029  0.00  0.00    -0.199 N 
ATOM     12  C   UNL     1       0.122  -5.024   1.207  0.00  0.00    +0.216 C 
ATOM     13  N   UNL     1       1.206  -5.987   0.933  0.00  0.00    -0.213 NA
ATOM     14  N   UNL     1       0.938  -6.668  -0.226  0.00  0.00    -0.248 N 
ATOM     15  C   UNL     1       0.516  -5.963  -1.362  0.00  0.00    +0.195 C 
ATOM     16  N   UNL     1       0.046  -4.744  -1.245  0.00  0.00    -0.158 NA
ATOM     17  C   UNL     1       1.093  -8.123  -0.277  0.00  0.00    +0.151 C 
ATOM     18  H   UNL     1       1.328  -6.623   1.706  0.00  0.00    +0.147 HD
BRANCH  11  23
ATOM     19  C   UNL     1      -0.751   1.439   0.612  0.00  0.00    +0.044 C 
ATOM     20  C   UNL     1      -0.553  -0.047   0.457  0.00  0.00    -0.050 A 
ATOM     21  C   UNL     1      -0.501  -0.607  -0.806  0.00  0.00    +0.005 A 
ATOM     22  C   UNL     1      -0.321  -1.968  -0.952  0.00  0.00    +0.025 A 
ATOM     23  C   UNL     1      -0.192  -2.775   0.172  0.00  0.00    +0.054 A 
ATOM     24  C   UNL     1      -0.245  -2.208   1.440  0.00  0.00    +0.025 A 
ATOM     25  C   UNL     1      -0.420  -0.845   1.578  0.00  0.00    +0.005 A 
ENDBRANCH  11  23
BRANCH  15  26
ATOM     26  C   UNL     1       0.593  -6.571  -2.638  0.00  0.00    +0.195 C 
ATOM     27  O   UNL     1       0.923  -7.735  -2.737  0.00  0.00    -0.289 OA
ATOM     28  C   UNL     1       0.265  -5.772  -3.873  0.00  0.00    +0.095 C 
ENDBRANCH  15  26
ENDBRANCH   1  12
BRANCH  10  29
ATOM     29  O   UNL     1      -2.143  -4.649  -0.389  0.00  0.00    -0.487 OA
BRANCH  29  30
ATOM     30  C   UNL     1      -3.303  -4.459  -1.203  0.00  0.00    +0.264 C 
BRANCH  30  31
ATOM     31  C   UNL     1      -3.002  -3.444  -2.276  0.00  0.00    -0.010 A 
ATOM     32  C   UNL     1      -3.226  -2.101  -2.038  0.00  0.00    +0.008 A 
ATOM     33  C   UNL     1      -2.951  -1.169  -3.022  0.00  0.00    +0.020 A 
ATOM     34  C   UNL     1      -2.451  -1.582  -4.244  0.00  0.00    +0.041 A 
ATOM     35  C   UNL     1      -2.227  -2.926  -4.481  0.00  0.00    +0.020 A 
ATOM     36  C   UNL     1      -2.497  -3.856  -3.495  0.00  0.00    +0.008 A 
ATOM     37 CL   UNL     1      -2.106  -0.412  -5.480  0.00  0.00    -0.084 Cl
ENDBRANCH  30  31
ENDBRANCH  29  30
ENDBRANCH  10  29
TORSDOF 6
