REMARK  Name = ZINC41513604
REMARK  15 active torsions:
REMARK  status: ('A' for Active; 'I' for Inactive)
REMARK    1  A    between atoms: C_1  and  C_2
REMARK    2  A    between atoms: C_4  and  O_32
REMARK    3  A    between atoms: C_5  and  C_22
REMARK    4  A    between atoms: C_11  and  C_12
REMARK    5  A    between atoms: C_17  and  O_18
REMARK    6  A    between atoms: O_18  and  C_19
REMARK    7  A    between atoms: C_22  and  N_23
REMARK    8  A    between atoms: N_23  and  C_24
REMARK    9  A    between atoms: N_23  and  C_28
REMARK   10  A    between atoms: C_24  and  C_25
REMARK   11  A    between atoms: C_25  and  C_26
REMARK   12  A    between atoms: C_25  and  C_27
REMARK   13  A    between atoms: C_28  and  C_29
REMARK   14  A    between atoms: C_29  and  C_30
REMARK   15  A    between atoms: C_29  and  C_31
REMARK                            x       y       z     vdW  Elec       q    Type
REMARK                         _______ _______ _______ _____ _____    ______ ____
ROOT
ATOM      1  C   UNL     1      -0.477   1.949   1.044  0.00  0.00    +0.045 C 
ATOM      2  C   UNL     1      -0.452   0.464   0.785  0.00  0.00    -0.033 A 
ATOM      3  C   UNL     1      -0.928  -0.032  -0.396  0.00  0.00    +0.050 A 
ATOM      4  C   UNL     1      -0.905  -1.403  -0.638  0.00  0.00    +0.122 A 
ATOM      5  C   UNL     1      -0.401  -2.278   0.311  0.00  0.00    +0.020 A 
ATOM      6  C   UNL     1       0.086  -1.790   1.517  0.00  0.00    +0.145 A 
ATOM      7  C   UNL     1       0.063  -0.404   1.747  0.00  0.00    +0.071 A 
ATOM      8  C   UNL     1       0.643  -0.196   3.087  0.00  0.00    +0.232 C 
ATOM      9  O   UNL     1       0.804   0.860   3.674  0.00  0.00    -0.283 OA
ATOM     10  C   UNL     1       0.982  -1.547   3.555  0.00  0.00    +0.176 C 
ATOM     11  C   UNL     1       1.547  -1.864   4.749  0.00  0.00    +0.061 C 
ATOM     12  O   UNL     1       0.620  -2.420   2.586  0.00  0.00    -0.451 OA
ENDROOT
BRANCH  11  13
ATOM     13  C   UNL     1       2.023  -0.800   5.641  0.00  0.00    +0.021 A 
ATOM     14  C   UNL     1       2.680   0.319   5.114  0.00  0.00    +0.027 A 
ATOM     15  C   UNL     1       3.124   1.313   5.959  0.00  0.00    +0.019 A 
ATOM     16  C   UNL     1       2.923   1.212   7.327  0.00  0.00    +0.019 A 
ATOM     17  C   UNL     1       2.276   0.113   7.860  0.00  0.00    +0.047 A 
ATOM     18  C   UNL     1       1.817  -0.895   7.027  0.00  0.00    +0.127 A 
ATOM     19 BR   UNL     1       4.013   2.824   5.248  0.00  0.00    -0.050 Br
BRANCH  18  20
ATOM     20  O   UNL     1       1.176  -1.971   7.549  0.00  0.00    -0.495 OA
ATOM     21  C   UNL     1       1.003  -1.998   8.967  0.00  0.00    +0.277 C 
ENDBRANCH  18  20
ENDBRANCH  11  13
BRANCH   4  22
ATOM     22  O   UNL     1      -1.380  -1.887  -1.814  0.00  0.00    -0.506 OA
ATOM     23  H   UNL     1      -0.714  -1.950  -2.511  0.00  0.00    +0.292 HD
ENDBRANCH   4  22
BRANCH   5  24
ATOM     24  C   UNL     1      -0.383  -3.759   0.036  0.00  0.00    -0.036 C 
BRANCH  24  25
ATOM     25  N   UNL     1       0.884  -4.121  -0.613  0.00  0.00    +0.383 N 
ATOM     26  H   UNL     1       1.012  -3.557  -1.440  0.00  0.00    -0.081 HD
BRANCH  25  27
ATOM     27  C   UNL     1       1.996  -3.885   0.318  0.00  0.00    -0.075 C 
BRANCH  27  28
ATOM     28  C   UNL     1       3.323  -4.157  -0.393  0.00  0.00    -0.034 C 
ATOM     29  C   UNL     1       3.485  -3.183  -1.561  0.00  0.00    +0.005 C 
ATOM     30  C   UNL     1       4.478  -3.968   0.593  0.00  0.00    +0.005 C 
ENDBRANCH  27  28
ENDBRANCH  25  27
BRANCH  25  31
ATOM     31  C   UNL     1       0.854  -5.541  -0.990  0.00  0.00    -0.075 C 
BRANCH  31  32
ATOM     32  C   UNL     1      -0.203  -5.758  -2.074  0.00  0.00    -0.034 C 
ATOM     33  C   UNL     1       0.179  -4.964  -3.325  0.00  0.00    +0.005 C 
ATOM     34  C   UNL     1      -0.281  -7.247  -2.420  0.00  0.00    +0.005 C 
ENDBRANCH  31  32
ENDBRANCH  25  31
ENDBRANCH  24  25
ENDBRANCH   5  24
TORSDOF 9
