REMARK  Name = ZINC34787791
REMARK  5 active torsions:
REMARK  status: ('A' for Active; 'I' for Inactive)
REMARK    1  A    between atoms: C_1  and  C_2
REMARK    2  A    between atoms: C_7  and  C_8
REMARK    3  A    between atoms: N_17  and  C_18
REMARK    4  A    between atoms: C_18  and  C_19
REMARK    5  A    between atoms: C_27  and  C_29
REMARK                            x       y       z     vdW  Elec       q    Type
REMARK                         _______ _______ _______ _____ _____    ______ ____
ROOT
ATOM      1  C   UNL     1      -2.191  -1.862   5.468  0.00  0.00    +0.199 C 
ATOM      2  O   UNL     1      -1.261  -2.145   6.193  0.00  0.00    -0.278 OA
ATOM      3  N   UNL     1      -3.273  -2.664   5.415  0.00  0.00    -0.300 N 
ATOM      4  C   UNL     1      -4.404  -2.337   4.537  0.00  0.00    +0.126 C 
ATOM      5  C   UNL     1      -4.672  -3.533   3.616  0.00  0.00    +0.127 C 
ATOM      6  N   UNL     1      -4.741  -4.751   4.436  0.00  0.00    -0.295 N 
ATOM      7  C   UNL     1      -3.610  -5.078   5.315  0.00  0.00    +0.127 C 
ATOM      8  C   UNL     1      -3.340  -3.884   6.232  0.00  0.00    +0.126 C 
ATOM      9  C   UNL     1      -5.823  -5.553   4.383  0.00  0.00    +0.247 C 
ATOM     10  O   UNL     1      -5.913  -6.502   5.137  0.00  0.00    -0.270 OA
ENDROOT
BRANCH   9  11
ATOM     11  C   UNL     1      -6.900  -5.277   3.410  0.00  0.00    +0.037 A 
ATOM     12  C   UNL     1      -6.573  -4.860   2.107  0.00  0.00    +0.013 A 
ATOM     13  C   UNL     1      -7.544  -4.601   1.195  0.00  0.00    +0.009 A 
ATOM     14  C   UNL     1      -8.899  -4.749   1.547  0.00  0.00    -0.018 A 
ATOM     15  C   UNL     1      -9.921  -4.487   0.620  0.00  0.00    +0.008 A 
ATOM     16  C   UNL     1     -11.223  -4.639   0.990  0.00  0.00    +0.001 A 
ATOM     17  C   UNL     1     -11.560  -5.052   2.278  0.00  0.00    +0.001 A 
ATOM     18  C   UNL     1     -10.597  -5.315   3.203  0.00  0.00    +0.008 A 
ATOM     19  C   UNL     1      -9.241  -5.169   2.857  0.00  0.00    -0.017 A 
ATOM     20  C   UNL     1      -8.224  -5.438   3.785  0.00  0.00    +0.021 A 
ENDBRANCH   9  11
BRANCH   1  21
ATOM     21  C   UNL     1      -2.136  -0.614   4.625  0.00  0.00    +0.020 C 
BRANCH  21  30
ATOM     22  C   UNL     1      -0.764   1.228   3.951  0.00  0.00    -0.005 C 
ATOM     23  C   UNL     1       0.510   2.003   4.272  0.00  0.00    -0.047 A 
ATOM     24  C   UNL     1       1.123   2.893   3.394  0.00  0.00    +0.010 A 
ATOM     25  C   UNL     1       2.256   3.537   3.763  0.00  0.00    +0.045 A 
ATOM     26  S   UNL     1       2.520   2.901   5.412  0.00  0.00    -0.101 S 
ATOM     27  C   UNL     1       1.110   1.835   5.485  0.00  0.00    -0.010 A 
ATOM     28  C   UNL     1       0.642   0.944   6.589  0.00  0.00    +0.024 C 
ATOM     29  C   UNL     1      -0.800   0.518   6.262  0.00  0.00    -0.072 C 
ATOM     30  N   UNL     1      -0.863   0.081   4.861  0.00  0.00    +0.393 N 
ATOM     31  H   UNL     1      -0.101  -0.554   4.678  0.00  0.00    -0.080 HD
BRANCH  22  38
ATOM     32  C   UNL     1      -1.655   2.945   1.805  0.00  0.00    +0.044 C 
ATOM     33  C   UNL     1      -1.140   1.562   1.499  0.00  0.00    -0.049 A 
ATOM     34  C   UNL     1      -1.088   1.117   0.192  0.00  0.00    +0.003 A 
ATOM     35  C   UNL     1      -0.616  -0.151  -0.089  0.00  0.00    +0.000 A 
ATOM     36  C   UNL     1      -0.194  -0.975   0.939  0.00  0.00    +0.000 A 
ATOM     37  C   UNL     1      -0.245  -0.529   2.246  0.00  0.00    +0.002 A 
ATOM     38  C   UNL     1      -0.714   0.741   2.526  0.00  0.00    -0.054 A 
ENDBRANCH  22  38
ENDBRANCH  21  30
ENDBRANCH   1  21
TORSDOF 4
