REMARK  Name = ZINC01959168
REMARK  13 active torsions:
REMARK  status: ('A' for Active; 'I' for Inactive)
REMARK    1  A    between atoms: C_1  and  C_2
REMARK    2  A    between atoms: C_2  and  C_3
REMARK    3  A    between atoms: C_2  and  C_4
REMARK    4  A    between atoms: C_4  and  N_66
REMARK    5  A    between atoms: C_5  and  C_6
REMARK    6  A    between atoms: C_5  and  N_66
REMARK    7  A    between atoms: C_7  and  O_31
REMARK    8  A    between atoms: C_13  and  C_27
REMARK    9  A    between atoms: C_14  and  C_17
REMARK   10  A    between atoms: C_32  and  C_33
REMARK   11  A    between atoms: C_32  and  N_66
REMARK   12  A    between atoms: C_33  and  C_34
REMARK   13  A    between atoms: C_33  and  C_35
REMARK                            x       y       z     vdW  Elec       q    Type
REMARK                         _______ _______ _______ _____ _____    ______ ____
ROOT
ATOM      1  C   UNL     1      -6.860   2.075   0.056  0.00  0.00    +0.020 A 
ATOM      2  C   UNL     1      -7.863   2.379   0.961  0.00  0.00    +0.122 A 
ATOM      3  C   UNL     1      -7.688   2.137   2.322  0.00  0.00    +0.046 A 
ATOM      4  C   UNL     1      -6.521   1.596   2.781  0.00  0.00    +0.019 A 
ATOM      5  C   UNL     1      -5.502   1.284   1.882  0.00  0.00    +0.065 A 
ATOM      6  C   UNL     1      -5.668   1.524   0.506  0.00  0.00    +0.144 A 
ATOM      7  O   UNL     1      -4.681   1.223  -0.361  0.00  0.00    -0.450 OA
ATOM      8  C   UNL     1      -3.512   0.697   0.011  0.00  0.00    +0.219 A 
ATOM      9  C   UNL     1      -3.220   0.408   1.307  0.00  0.00    +0.077 A 
ATOM     10  C   UNL     1      -4.229   0.698   2.341  0.00  0.00    +0.201 A 
ATOM     11  O   UNL     1      -4.022   0.466   3.520  0.00  0.00    -0.286 OA
ENDROOT
BRANCH   9  12
ATOM     12  C   UNL     1      -1.912  -0.180   1.673  0.00  0.00    -0.003 A 
ATOM     13  C   UNL     1      -1.748  -1.554   1.710  0.00  0.00    +0.009 A 
ATOM     14  C   UNL     1      -0.523  -2.114   2.054  0.00  0.00    +0.001 A 
ATOM     15  C   UNL     1       0.547  -1.330   2.363  0.00  0.00    +0.008 A 
ATOM     16  C   UNL     1       0.426   0.070   2.337  0.00  0.00    -0.017 A 
ATOM     17  C   UNL     1      -0.815   0.657   1.990  0.00  0.00    -0.010 A 
ATOM     18  C   UNL     1      -0.934   2.054   1.965  0.00  0.00    +0.009 A 
ATOM     19  C   UNL     1       0.143   2.828   2.274  0.00  0.00    +0.001 A 
ATOM     20  C   UNL     1       1.364   2.253   2.617  0.00  0.00    +0.001 A 
ATOM     21  C   UNL     1       1.516   0.900   2.651  0.00  0.00    +0.008 A 
ENDBRANCH   9  12
BRANCH   8  22
ATOM     22  C   UNL     1      -2.479   0.406  -1.047  0.00  0.00    +0.451 C 
ATOM     23  F   UNL     1      -2.660  -0.894  -1.530  0.00  0.00    -0.163 F 
ATOM     24  F   UNL     1      -2.618   1.319  -2.098  0.00  0.00    -0.163 F 
ATOM     25  F   UNL     1      -1.200   0.524  -0.493  0.00  0.00    -0.163 F 
ENDBRANCH   8  22
BRANCH   2  26
ATOM     26  O   UNL     1      -9.028   2.918   0.518  0.00  0.00    -0.506 OA
ATOM     27  H   UNL     1      -9.702   2.264   0.289  0.00  0.00    +0.292 HD
ENDBRANCH   2  26
BRANCH   1  28
ATOM     28  C   UNL     1      -7.062   2.342  -1.413  0.00  0.00    -0.036 C 
BRANCH  28  29
ATOM     29  N   UNL     1      -7.679   1.150  -2.034  0.00  0.00    +0.383 N 
ATOM     30  H   UNL     1      -8.511   0.886  -1.493  0.00  0.00    -0.081 HD
BRANCH  29  31
ATOM     31  C   UNL     1      -8.085   1.456  -3.421  0.00  0.00    -0.075 C 
BRANCH  31  33
ATOM     32  C   UNL     1      -9.766   2.678  -4.808  0.00  0.00    +0.005 C 
ATOM     33  C   UNL     1      -9.378   2.273  -3.385  0.00  0.00    -0.034 C 
ATOM     34  C   UNL     1     -10.498   1.428  -2.772  0.00  0.00    +0.005 C 
ENDBRANCH  31  33
ENDBRANCH  29  31
BRANCH  29  35
ATOM     35  C   UNL     1      -6.722   0.024  -2.024  0.00  0.00    -0.075 C 
BRANCH  35  36
ATOM     36  C   UNL     1      -7.482  -1.269  -2.327  0.00  0.00    -0.034 C 
ATOM     37  C   UNL     1      -6.491  -2.429  -2.438  0.00  0.00    +0.005 C 
ATOM     38  C   UNL     1      -8.475  -1.553  -1.198  0.00  0.00    +0.005 C 
ENDBRANCH  35  36
ENDBRANCH  29  35
ENDBRANCH  28  29
ENDBRANCH   1  28
TORSDOF 9
