REMARK  Name = ZINC39609363
REMARK  12 active torsions:
REMARK  status: ('A' for Active; 'I' for Inactive)
REMARK    1  A    between atoms: C_1  and  C_2
REMARK    2  A    between atoms: C_5  and  C_9
REMARK    3  A    between atoms: C_7  and  C_8
REMARK    4  A    between atoms: C_9  and  C_10
REMARK    5  A    between atoms: C_10  and  N_11
REMARK    6  A    between atoms: C_12  and  C_14
REMARK    7  A    between atoms: C_25  and  C_27
REMARK    8  A    between atoms: C_27  and  C_29
REMARK    9  A    between atoms: C_27  and  O_32
REMARK   10  A    between atoms: C_29  and  C_30
REMARK   11  A    between atoms: C_29  and  C_31
REMARK   12  A    between atoms: O_32  and  C_33
REMARK                            x       y       z     vdW  Elec       q    Type
REMARK                         _______ _______ _______ _____ _____    ______ ____
ROOT
ATOM      1  C   UNL     1       2.869  -7.987  -0.051  0.00  0.00    +0.100 C 
ATOM      2  C   UNL     1       2.041  -8.600  -1.203  0.00  0.00    +0.121 C 
ATOM      3  N   UNL     1       3.042  -8.954  -2.236  0.00  0.00    -0.297 N 
ATOM      4  C   UNL     1       4.196  -9.480  -1.468  0.00  0.00    +0.115 C 
ATOM      5  C   UNL     1       4.281  -8.570  -0.226  0.00  0.00    -0.004 C 
ATOM      6  C   UNL     1       4.672  -9.387   1.002  0.00  0.00    -0.010 C 
ATOM      7  C   UNL     1       6.102  -9.908   0.829  0.00  0.00    -0.082 C 
ATOM      8  N   UNL     1       7.019  -8.775   0.658  0.00  0.00    +0.379 N 
ATOM      9  C   UNL     1       6.694  -8.049  -0.576  0.00  0.00    -0.082 C 
ATOM     10  C   UNL     1       5.290  -7.450  -0.463  0.00  0.00    -0.010 C 
ATOM     11  C   UNL     1       2.929  -8.827  -3.574  0.00  0.00    +0.257 C 
ATOM     12  O   UNL     1       3.809  -9.241  -4.298  0.00  0.00    -0.272 OA
ATOM     13  H   UNL     1       6.933  -8.151   1.446  0.00  0.00    -0.086 HD
ATOM     14  H   UNL     1       7.967  -9.117   0.606  0.00  0.00    -0.086 HD
ENDROOT
BRANCH   1  16
ATOM     15  N   UNL     1       3.003  -5.723   0.936  0.00  0.00    -0.315 N 
ATOM     16  C   UNL     1       2.903  -6.486  -0.171  0.00  0.00    +0.218 C 
ATOM     17  O   UNL     1       2.839  -5.963  -1.264  0.00  0.00    -0.275 OA
ATOM     18  H   UNL     1       3.054  -6.141   1.810  0.00  0.00    +0.149 HD
BRANCH  15  19
ATOM     19  C   UNL     1       3.036  -4.263   0.820  0.00  0.00    +0.109 C 
BRANCH  19  20
ATOM     20  C   UNL     1       3.153  -3.643   2.213  0.00  0.00    +0.054 C 
BRANCH  20  25
ATOM     21  C   UNL     1       3.282   2.116   1.757  0.00  0.00    +0.044 C 
ATOM     22  C   UNL     1       3.248   0.614   1.876  0.00  0.00    -0.048 A 
ATOM     23  C   UNL     1       2.039  -0.041   2.015  0.00  0.00    +0.004 A 
ATOM     24  C   UNL     1       2.008  -1.419   2.124  0.00  0.00    +0.004 A 
ATOM     25  C   UNL     1       3.186  -2.141   2.094  0.00  0.00    -0.046 A 
ATOM     26  C   UNL     1       4.395  -1.486   1.954  0.00  0.00    +0.007 A 
ATOM     27  C   UNL     1       4.426  -0.108   1.841  0.00  0.00    -0.047 A 
ATOM     28  C   UNL     1       5.744   0.606   1.683  0.00  0.00    +0.044 C 
ENDBRANCH  20  25
ENDBRANCH  19  20
ENDBRANCH  15  19
ENDBRANCH   1  16
BRANCH  11  29
ATOM     29  C   UNL     1       1.710  -8.171  -4.168  0.00  0.00    +0.261 C 
BRANCH  29  30
ATOM     30  C   UNL     1       0.619  -9.222  -4.385  0.00  0.00    +0.033 C 
ATOM     31  C   UNL     1       0.336  -9.943  -3.065  0.00  0.00    +0.011 C 
ATOM     32  C   UNL     1      -0.658  -8.538  -4.876  0.00  0.00    +0.011 C 
ENDBRANCH  29  30
BRANCH  29  33
ATOM     33  O   UNL     1       2.053  -7.575  -5.421  0.00  0.00    -0.479 OA
BRANCH  33  34
ATOM     34  C   UNL     1       1.407  -6.427  -5.755  0.00  0.00    +0.122 A 
ATOM     35  C   UNL     1       0.533  -5.834  -4.855  0.00  0.00    +0.045 A 
ATOM     36  C   UNL     1      -0.122  -4.667  -5.197  0.00  0.00    +0.004 A 
ATOM     37  C   UNL     1       0.093  -4.089  -6.435  0.00  0.00    +0.000 A 
ATOM     38  C   UNL     1       0.963  -4.678  -7.334  0.00  0.00    +0.004 A 
ATOM     39  C   UNL     1       1.625  -5.842  -6.994  0.00  0.00    +0.045 A 
ENDBRANCH  33  34
ENDBRANCH  29  33
ENDBRANCH  11  29
TORSDOF 8
