REMARK  Name = ZINC46791279
REMARK  8 active torsions:
REMARK  status: ('A' for Active; 'I' for Inactive)
REMARK    1  A    between atoms: C_1  and  C_2
REMARK    2  A    between atoms: C_8  and  O_14
REMARK    3  A    between atoms: O_14  and  C_15
REMARK    4  A    between atoms: C_15  and  C_16
REMARK    5  A    between atoms: N_18  and  C_19
REMARK    6  A    between atoms: C_19  and  C_20
REMARK    7  A    between atoms: C_28  and  C_35
REMARK    8  A    between atoms: C_31  and  C_34
REMARK                            x       y       z     vdW  Elec       q    Type
REMARK                         _______ _______ _______ _____ _____    ______ ____
ROOT
ATOM      1  C   UNL     1       1.777  -8.045  -0.024  0.00  0.00    +0.251 C 
ATOM      2  O   UNL     1       0.812  -8.779  -0.042  0.00  0.00    -0.272 OA
ATOM      3  N   UNL     1       3.020  -8.566  -0.038  0.00  0.00    -0.308 N 
ATOM      4  H   UNL     1       3.792  -7.979  -0.024  0.00  0.00    +0.149 HD
ENDROOT
BRANCH   1   5
ATOM      5  C   UNL     1       1.587  -6.550   0.013  0.00  0.00    +0.324 C 
BRANCH   5   6
ATOM      6  O   UNL     1       0.191  -6.248   0.022  0.00  0.00    -0.482 OA
BRANCH   6  14
ATOM      7  C   UNL     1      -0.028   1.495   0.211  0.00  0.00    +0.073 C 
ATOM      8  C   UNL     1      -0.006  -0.011   0.175  0.00  0.00    +0.076 A 
ATOM      9  N   UNL     1      -1.010  -0.845   0.155  0.00  0.00    -0.243 NA
ATOM     10  C   UNL     1      -0.849  -2.185   0.122  0.00  0.00    +0.093 A 
ATOM     11  C   UNL     1       0.489  -2.636   0.110  0.00  0.00    +0.044 A 
ATOM     12  S   UNL     1       1.401  -1.113   0.140  0.00  0.00    -0.072 S 
ATOM     13  C   UNL     1       0.813  -3.975   0.078  0.00  0.00    +0.063 A 
ATOM     14  C   UNL     1      -0.156  -4.934   0.055  0.00  0.00    +0.131 A 
ATOM     15  C   UNL     1      -1.533  -4.562   0.065  0.00  0.00    +0.033 A 
ATOM     16  C   UNL     1      -1.835  -3.195   0.099  0.00  0.00    +0.049 A 
ATOM     17  S   UNL     1      -3.608  -3.151   0.100  0.00  0.00    -0.094 S 
ATOM     18  C   UNL     1      -3.925  -4.904   0.058  0.00  0.00    +0.046 A 
ATOM     19  C   UNL     1      -2.696  -5.441   0.044  0.00  0.00    +0.020 A 
ENDBRANCH   6  14
ENDBRANCH   5   6
ENDBRANCH   1   5
BRANCH   3  20
ATOM     20  C   UNL     1       3.205 -10.019  -0.074  0.00  0.00    +0.141 C 
BRANCH  20  21
ATOM     21  C   UNL     1       4.678 -10.338  -0.084  0.00  0.00    -0.014 A 
ATOM     22  C   UNL     1       5.363 -10.451  -1.286  0.00  0.00    +0.010 A 
ATOM     23  C   UNL     1       6.714 -10.745  -1.251  0.00  0.00    +0.042 A 
ATOM     24  C   UNL     1       7.337 -10.916  -0.018  0.00  0.00    +0.099 A 
ATOM     25  N   UNL     1       6.649 -10.800   1.107  0.00  0.00    -0.349 N 
ATOM     26  C   UNL     1       5.360 -10.515   1.103  0.00  0.00    +0.089 A 
ATOM     27  N   UNL     1       8.694 -11.212   0.032  0.00  0.00    -0.312 N 
ATOM     28  C   UNL     1       9.459 -11.473  -1.198  0.00  0.00    +0.137 C 
ATOM     29  C   UNL     1      10.233 -12.784  -1.017  0.00  0.00    +0.133 C 
ATOM     30  O   UNL     1      10.986 -12.722   0.198  0.00  0.00    -0.371 OA
ATOM     31  C   UNL     1      10.186 -12.594   1.375  0.00  0.00    +0.133 C 
ATOM     32  C   UNL     1       9.410 -11.268   1.317  0.00  0.00    +0.137 C 
ATOM     33  C   UNL     1      11.089 -12.603   2.610  0.00  0.00    +0.039 C 
ATOM     34  C   UNL     1      11.184 -12.982  -2.199  0.00  0.00    +0.039 C 
ATOM     35  H   UNL     1       7.103 -10.924   1.954  0.00  0.00    +0.167 HD
ENDBRANCH  20  21
ENDBRANCH   3  20
TORSDOF 5
