REMARK  Name = ZINC13022554
REMARK  16 active torsions:
REMARK  status: ('A' for Active; 'I' for Inactive)
REMARK    1  A    between atoms: C_1  and  C_2
REMARK    2  A    between atoms: C_2  and  C_3
REMARK    3  A    between atoms: C_3  and  C_4
REMARK    4  A    between atoms: C_4  and  N_5
REMARK    5  A    between atoms: C_6  and  N_33
REMARK    6  A    between atoms: C_7  and  N_14
REMARK    7  A    between atoms: N_14  and  C_15
REMARK    8  A    between atoms: C_15  and  C_16
REMARK    9  A    between atoms: C_16  and  O_17
REMARK   10  A    between atoms: O_17  and  C_18
REMARK   11  A    between atoms: C_19  and  C_21
REMARK   12  A    between atoms: C_21  and  S_22
REMARK   13  A    between atoms: S_22  and  C_23
REMARK   14  A    between atoms: C_24  and  C_31
REMARK   15  A    between atoms: C_25  and  C_30
REMARK   16  A    between atoms: C_27  and  C_29
REMARK                            x       y       z     vdW  Elec       q    Type
REMARK                         _______ _______ _______ _____ _____    ______ ____
ROOT
ATOM      1  N   UNL     1      -2.561   2.659   6.327  0.00  0.00    -0.261 N 
ATOM      2  C   UNL     1      -1.683   2.344   5.352  0.00  0.00    +0.230 C 
ATOM      3  O   UNL     1      -0.569   1.958   5.640  0.00  0.00    -0.274 OA
ENDROOT
BRANCH   1   6
ATOM      4  N   UNL     1      -1.638   1.002   9.474  0.00  0.00    -0.280 N 
ATOM      5  C   UNL     1      -1.970   1.175   8.150  0.00  0.00    +0.127 A 
ATOM      6  C   UNL     1      -2.219   2.448   7.680  0.00  0.00    +0.140 A 
ATOM      7  C   UNL     1      -2.120   3.534   8.570  0.00  0.00    +0.277 A 
ATOM      8  O   UNL     1      -2.330   4.669   8.180  0.00  0.00    -0.266 OA
ATOM      9  N   UNL     1      -1.798   3.308   9.859  0.00  0.00    -0.273 N 
ATOM     10  H   UNL     1      -1.736   4.078  10.495  0.00  0.00    +0.173 HD
ATOM     11  C   UNL     1      -1.558   2.061  10.300  0.00  0.00    +0.331 A 
ATOM     12  O   UNL     1      -1.265   1.886  11.467  0.00  0.00    -0.246 OA
BRANCH   5  13
ATOM     13  N   UNL     1      -2.052   0.093   7.307  0.00  0.00    -0.343 N 
ATOM     14  H   UNL     1      -2.391   0.206   6.405  0.00  0.00    +0.144 HD
ATOM     15  H   UNL     1      -1.770  -0.783   7.613  0.00  0.00    +0.144 HD
ENDBRANCH   5  13
BRANCH   4  16
ATOM     16  C   UNL     1      -1.371  -0.344   9.988  0.00  0.00    +0.128 C 
BRANCH  16  17
ATOM     17  C   UNL     1       0.118  -0.660   9.837  0.00  0.00    +0.021 C 
BRANCH  17  19
ATOM     18  C   UNL     1       1.887  -2.382  10.223  0.00  0.00    +0.004 C 
ATOM     19  C   UNL     1       0.398  -2.066  10.373  0.00  0.00    -0.002 C 
ENDBRANCH  17  19
ENDBRANCH  16  17
ENDBRANCH   4  16
ENDBRANCH   1   6
BRANCH   1  20
ATOM     20  C   UNL     1      -3.869   3.220   5.981  0.00  0.00    +0.142 C 
BRANCH  20  21
ATOM     21  C   UNL     1      -4.875   2.084   5.784  0.00  0.00    +0.178 C 
BRANCH  21  22
ATOM     22  O   UNL     1      -5.072   1.402   7.024  0.00  0.00    -0.381 OA
ATOM     23  C   UNL     1      -5.999   0.317   6.949  0.00  0.00    +0.194 C 
ENDBRANCH  21  22
ENDBRANCH  20  21
ENDBRANCH   1  20
BRANCH   2  24
ATOM     24  C   UNL     1      -2.085   2.470   3.905  0.00  0.00    +0.172 C 
BRANCH  24  25
ATOM     25  S   UNL     1      -0.701   1.978   2.849  0.00  0.00    -0.096 S 
BRANCH  25  26
ATOM     26  C   UNL     1      -1.428   2.216   1.261  0.00  0.00    +0.112 A 
ATOM     27  C   UNL     1      -0.680   1.945   0.101  0.00  0.00    +0.098 A 
ATOM     28  C   UNL     1      -1.279   2.148  -1.149  0.00  0.00    -0.032 A 
ATOM     29  C   UNL     1      -2.586   2.598  -1.186  0.00  0.00    +0.027 A 
ATOM     30  C   UNL     1      -3.257   2.843  -0.001  0.00  0.00    +0.040 A 
ATOM     31  N   UNL     1      -2.676   2.651   1.167  0.00  0.00    -0.245 NA
ATOM     32  C   UNL     1      -4.680   3.339  -0.046  0.00  0.00    +0.065 C 
ATOM     33  C   UNL     1      -0.518   1.877  -2.421  0.00  0.00    +0.045 C 
BRANCH  27  34
ATOM     34  C   UNL     1       0.707   1.462   0.199  0.00  0.00    +0.389 C 
ATOM     35  O   UNL     1       0.933   0.269   0.248  0.00  0.00    -0.240 OA
ATOM     36  O   UNL     1       1.727   2.342   0.227  0.00  0.00    -0.240 OA
ENDBRANCH  27  34
ENDBRANCH  25  26
ENDBRANCH  24  25
ENDBRANCH   2  24
TORSDOF 12
