REMARK  Name = ZINC22475260
REMARK  7 active torsions:
REMARK  status: ('A' for Active; 'I' for Inactive)
REMARK    1  A    between atoms: C_1  and  C_2
REMARK    2  A    between atoms: C_4  and  C_17
REMARK    3  A    between atoms: C_6  and  C_12
REMARK    4  A    between atoms: N_9  and  C_11
REMARK    5  A    between atoms: C_17  and  N_19
REMARK    6  A    between atoms: N_26  and  C_29
REMARK    7  A    between atoms: C_29  and  C_30
REMARK                            x       y       z     vdW  Elec       q    Type
REMARK                         _______ _______ _______ _____ _____    ______ ____
ROOT
ATOM      1  N   UNL     1      -0.481   0.998  -4.458  0.00  0.00    -0.152 NA
ATOM      2  C   UNL     1      -0.537   2.241  -4.933  0.00  0.00    +0.164 A 
ATOM      3  N   UNL     1      -0.389   3.412  -4.255  0.00  0.00    -0.339 N 
ATOM      4  C   UNL     1      -0.481   4.597  -4.929  0.00  0.00    +0.024 A 
ATOM      5  C   UNL     1      -0.721   4.492  -6.247  0.00  0.00    -0.004 A 
ATOM      6  S   UNL     1      -0.801   2.745  -6.517  0.00  0.00    -0.059 S 
ATOM      7  C   UNL     1      -0.873   5.613  -7.221  0.00  0.00    -0.033 C 
ATOM      8  N   UNL     1      -1.093   6.860  -6.463  0.00  0.00    +0.386 N 
ATOM      9  C   UNL     1      -0.069   6.985  -5.418  0.00  0.00    -0.072 C 
ATOM     10  C   UNL     1      -0.331   5.976  -4.296  0.00  0.00    +0.035 C 
ATOM     11  H   UNL     1      -0.219   3.405  -3.300  0.00  0.00    +0.167 HD
ATOM     12  H   UNL     1      -2.008   6.837  -6.037  0.00  0.00    -0.081 HD
ENDROOT
BRANCH   1  13
ATOM     13  C   UNL     1      -0.260   0.788  -3.159  0.00  0.00    +0.270 C 
ATOM     14  O   UNL     1      -0.109   1.736  -2.406  0.00  0.00    -0.268 OA
BRANCH  13  18
ATOM     15  C   UNL     1      -1.725   1.304  -0.445  0.00  0.00    +0.068 C 
ATOM     16  C   UNL     1      -1.415  -0.170  -0.376  0.00  0.00    +0.070 A 
ATOM     17  C   UNL     1      -0.748  -0.918  -1.369  0.00  0.00    +0.054 A 
ATOM     18  C   UNL     1      -0.198  -0.594  -2.632  0.00  0.00    +0.053 A 
ATOM     19  C   UNL     1       0.401  -1.611  -3.361  0.00  0.00    +0.045 A 
ATOM     20  C   UNL     1       0.440  -2.906  -2.828  0.00  0.00    +0.109 A 
ATOM     21  N   UNL     1      -0.085  -3.179  -1.642  0.00  0.00    -0.224 NA
ATOM     22  C   UNL     1      -0.668  -2.246  -0.905  0.00  0.00    +0.160 A 
ATOM     23  N   UNL     1      -1.274  -2.262   0.325  0.00  0.00    -0.249 N 
ATOM     24  N   UNL     1      -1.714  -0.964   0.612  0.00  0.00    -0.174 NA
ATOM     25  C   UNL     1      -1.430  -3.433   1.191  0.00  0.00    +0.174 C 
BRANCH  20  26
ATOM     26  C   UNL     1       1.077  -3.989  -3.603  0.00  0.00    +0.153 A 
ATOM     27  C   UNL     1       1.184  -5.290  -3.219  0.00  0.00    +0.051 A 
ATOM     28  C   UNL     1       1.857  -5.964  -4.255  0.00  0.00    +0.042 A 
ATOM     29  C   UNL     1       2.126  -5.052  -5.211  0.00  0.00    +0.196 A 
ATOM     30  O   UNL     1       1.648  -3.862  -4.817  0.00  0.00    -0.461 OA
ENDBRANCH  20  26
ENDBRANCH  13  18
ENDBRANCH   1  13
BRANCH   8  31
ATOM     31  C   UNL     1      -1.006   8.008  -7.375  0.00  0.00    -0.043 C 
BRANCH  31  32
ATOM     32  C   UNL     1      -2.133   7.944  -8.373  0.00  0.00    -0.064 A 
ATOM     33  C   UNL     1      -1.960   7.271  -9.568  0.00  0.00    +0.002 A 
ATOM     34  C   UNL     1      -2.994   7.212 -10.484  0.00  0.00    +0.000 A 
ATOM     35  C   UNL     1      -4.201   7.826 -10.205  0.00  0.00    +0.000 A 
ATOM     36  C   UNL     1      -4.374   8.499  -9.010  0.00  0.00    +0.000 A 
ATOM     37  C   UNL     1      -3.341   8.554  -8.092  0.00  0.00    +0.002 A 
ENDBRANCH  31  32
ENDBRANCH   8  31
TORSDOF 5
