REMARK  Name = ZINC13028988
REMARK  14 active torsions:
REMARK  status: ('A' for Active; 'I' for Inactive)
REMARK    1  A    between atoms: C_1  and  C_2
REMARK    2  A    between atoms: C_2  and  C_3
REMARK    3  A    between atoms: C_6  and  C_9
REMARK    4  A    between atoms: C_9  and  C_11
REMARK    5  A    between atoms: C_9  and  N_18
REMARK    6  A    between atoms: N_13  and  C_14
REMARK    7  A    between atoms: C_14  and  C_15
REMARK    8  A    between atoms: C_14  and  C_16
REMARK    9  A    between atoms: C_14  and  C_17
REMARK   10  A    between atoms: N_18  and  C_19
REMARK   11  A    between atoms: C_24  and  C_25
REMARK   12  A    between atoms: C_25  and  C_27
REMARK   13  A    between atoms: C_28  and  C_30
REMARK   14  A    between atoms: C_30  and  N_31
REMARK                            x       y       z     vdW  Elec       q    Type
REMARK                         _______ _______ _______ _____ _____    ______ ____
ROOT
ATOM      1  N   UNL     1      -5.507   3.514  -1.584  0.00  0.00    -0.253 N 
ATOM      2  C   UNL     1      -4.347   4.062  -1.170  0.00  0.00    +0.242 C 
ATOM      3  O   UNL     1      -3.517   4.409  -1.983  0.00  0.00    -0.273 OA
ENDROOT
BRANCH   1   4
ATOM      4  C   UNL     1      -6.460   3.116  -0.651  0.00  0.00    +0.048 A 
ATOM      5  C   UNL     1      -7.446   4.002  -0.239  0.00  0.00    +0.024 A 
ATOM      6  C   UNL     1      -8.390   3.606   0.687  0.00  0.00    +0.002 A 
ATOM      7  C   UNL     1      -8.364   2.323   1.212  0.00  0.00    +0.001 A 
ATOM      8  C   UNL     1      -7.395   1.428   0.816  0.00  0.00    +0.013 A 
ATOM      9  C   UNL     1      -6.433   1.813  -0.126  0.00  0.00    +0.039 A 
BRANCH   9  10
ATOM     10  C   UNL     1      -5.401   0.863  -0.557  0.00  0.00    +0.162 C 
ATOM     11  O   UNL     1      -4.566   1.202  -1.370  0.00  0.00    -0.292 OA
ATOM     12  C   UNL     1      -5.377  -0.533   0.009  0.00  0.00    +0.091 C 
ENDBRANCH   9  10
ENDBRANCH   1   4
BRANCH   1  13
ATOM     13  C   UNL     1      -5.765   3.339  -3.015  0.00  0.00    +0.197 C 
BRANCH  13  17
ATOM     14  C   UNL     1      -6.879  -0.715  -3.775  0.00  0.00    -0.048 A 
ATOM     15  C   UNL     1      -7.683   0.087  -2.987  0.00  0.00    +0.004 A 
ATOM     16  C   UNL     1      -7.323   1.399  -2.741  0.00  0.00    +0.006 A 
ATOM     17  C   UNL     1      -6.158   1.909  -3.283  0.00  0.00    -0.018 A 
ATOM     18  C   UNL     1      -5.356   1.108  -4.075  0.00  0.00    +0.006 A 
ATOM     19  C   UNL     1      -5.714  -0.205  -4.317  0.00  0.00    +0.004 A 
BRANCH  14  21
ATOM     20  C   UNL     1      -8.134  -2.208  -5.306  0.00  0.00    +0.009 C 
ATOM     21  C   UNL     1      -7.272  -2.144  -4.043  0.00  0.00    +0.032 C 
ENDBRANCH  14  21
ENDBRANCH  13  17
BRANCH  13  22
ATOM     22  C   UNL     1      -6.883   4.255  -3.440  0.00  0.00    +0.239 C 
ATOM     23  O   UNL     1      -7.413   4.983  -2.628  0.00  0.00    -0.273 OA
ATOM     24  N   UNL     1      -7.295   4.265  -4.724  0.00  0.00    -0.309 N 
ATOM     25  H   UNL     1      -6.871   3.683  -5.374  0.00  0.00    +0.149 HD
BRANCH  24  26
ATOM     26  C   UNL     1      -8.382   5.156  -5.137  0.00  0.00    +0.026 C 
ATOM     27  C   UNL     1      -7.983   6.608  -4.865  0.00  0.00    +0.031 C 
ATOM     28  C   UNL     1      -8.651   4.972  -6.632  0.00  0.00    +0.031 C 
ATOM     29  C   UNL     1      -9.647   4.818  -4.346  0.00  0.00    +0.031 C 
ENDBRANCH  24  26
ENDBRANCH  13  22
ENDBRANCH   1  13
BRANCH   2  30
ATOM     30  C   UNL     1      -4.082   4.242   0.302  0.00  0.00    +0.242 C 
BRANCH  30  31
ATOM     31  N   UNL     1      -2.764   4.853   0.490  0.00  0.00    -0.235 N 
ATOM     32  C   UNL     1      -1.565   4.195   0.635  0.00  0.00    +0.090 A 
ATOM     33  C   UNL     1      -1.195   2.855   0.651  0.00  0.00    +0.029 A 
ATOM     34  C   UNL     1       0.118   2.515   0.824  0.00  0.00    +0.002 A 
ATOM     35  C   UNL     1       1.088   3.497   0.973  0.00  0.00    +0.002 A 
ATOM     36  C   UNL     1       0.751   4.819   0.955  0.00  0.00    +0.032 A 
ATOM     37  C   UNL     1      -0.588   5.194   0.785  0.00  0.00    +0.113 A 
ATOM     38  N   UNL     1      -1.211   6.388   0.728  0.00  0.00    -0.129 NA
ATOM     39  N   UNL     1      -2.475   6.224   0.556  0.00  0.00    -0.064 NA
ENDBRANCH  30  31
ENDBRANCH   2  30
TORSDOF 9
