REMARK  Name = ZINC16602040
REMARK  9 active torsions:
REMARK  status: ('A' for Active; 'I' for Inactive)
REMARK    1  A    between atoms: C_1  and  C_2
REMARK    2  A    between atoms: C_2  and  C_3
REMARK    3  A    between atoms: C_2  and  C_4
REMARK    4  A    between atoms: C_8  and  C_32
REMARK    5  A    between atoms: C_9  and  N_10
REMARK    6  A    between atoms: C_17  and  C_20
REMARK    7  A    between atoms: C_22  and  C_25
REMARK    8  A    between atoms: C_32  and  C_33
REMARK    9  A    between atoms: C_32  and  C_34
REMARK                            x       y       z     vdW  Elec       q    Type
REMARK                         _______ _______ _______ _____ _____    ______ ____
ROOT
ATOM      1  N   UNL     1      -0.081   1.405   0.116  0.00  0.00    -0.269 N 
ATOM      2  C   UNL     1      -0.102   0.219  -0.525  0.00  0.00    +0.306 C 
ATOM      3  O   UNL     1      -1.136  -0.183  -1.024  0.00  0.00    -0.252 OA
ATOM      4  N   UNL     1       1.021  -0.520  -0.613  0.00  0.00    -0.285 N 
ATOM      5  C   UNL     1       2.251  -0.098   0.071  0.00  0.00    +0.109 C 
ATOM      6  C   UNL     1       3.393  -0.049  -0.942  0.00  0.00    +0.020 C 
ATOM      7  C   UNL     1       3.500  -1.400  -1.652  0.00  0.00    +0.016 C 
ATOM      8  C   UNL     1       2.198  -1.689  -2.402  0.00  0.00    +0.095 C 
ATOM      9  C   UNL     1       1.041  -1.760  -1.401  0.00  0.00    +0.122 C 
ATOM     10  H   UNL     1       0.730   1.702   0.559  0.00  0.00    +0.156 HD
ENDROOT
BRANCH   1  16
ATOM     11  C   UNL     1      -1.179   3.498  -0.378  0.00  0.00    -0.023 A 
ATOM     12  C   UNL     1      -2.312   4.288  -0.360  0.00  0.00    +0.006 A 
ATOM     13  C   UNL     1      -3.488   3.801   0.181  0.00  0.00    +0.001 A 
ATOM     14  C   UNL     1      -3.535   2.520   0.700  0.00  0.00    +0.006 A 
ATOM     15  C   UNL     1      -2.408   1.724   0.680  0.00  0.00    -0.023 A 
ATOM     16  C   UNL     1      -1.225   2.210   0.138  0.00  0.00    +0.042 A 
BRANCH  11  18
ATOM     17  C   UNL     1      -0.148   4.510  -2.393  0.00  0.00    +0.012 C 
ATOM     18  C   UNL     1       0.103   4.032  -0.962  0.00  0.00    +0.015 C 
ATOM     19  C   UNL     1       0.601   5.203  -0.113  0.00  0.00    +0.012 C 
ENDBRANCH  11  18
BRANCH  15  20
ATOM     20  C   UNL     1      -2.460   0.328   1.247  0.00  0.00    +0.015 C 
ATOM     21  C   UNL     1      -2.675   0.400   2.760  0.00  0.00    +0.012 C 
ATOM     22  C   UNL     1      -3.615  -0.441   0.603  0.00  0.00    +0.012 C 
ENDBRANCH  15  20
ENDBRANCH   1  16
BRANCH   8  23
ATOM     23  C   UNL     1       2.317  -3.005  -3.127  0.00  0.00    +0.232 A 
ATOM     24  N   UNL     1       2.212  -3.194  -4.419  0.00  0.00    -0.191 NA
ATOM     25  C   UNL     1       2.388  -4.521  -4.607  0.00  0.00    +0.202 A 
ATOM     26  N   UNL     1       2.588  -5.055  -3.431  0.00  0.00    -0.056 NA
ATOM     27  O   UNL     1       2.556  -4.198  -2.573  0.00  0.00    -0.337 OA
BRANCH  25  28
ATOM     28  C   UNL     1       2.360  -5.238  -5.907  0.00  0.00    +0.023 A 
ATOM     29  C   UNL     1       2.130  -4.535  -7.088  0.00  0.00    +0.013 A 
ATOM     30  C   UNL     1       2.110  -5.205  -8.294  0.00  0.00    +0.016 A 
ATOM     31  C   UNL     1       2.308  -6.575  -8.331  0.00  0.00    +0.018 A 
ATOM     32  C   UNL     1       2.531  -7.278  -7.160  0.00  0.00    +0.016 A 
ATOM     33  C   UNL     1       2.558  -6.617  -5.949  0.00  0.00    +0.013 A 
ATOM     34 BR   UNL     1       2.272  -7.488  -9.986  0.00  0.00    -0.050 Br
ENDBRANCH  25  28
ENDBRANCH   8  23
TORSDOF 5
