REMARK  Name = ZINC35523516
REMARK  7 active torsions:
REMARK  status: ('A' for Active; 'I' for Inactive)
REMARK    1  A    between atoms: C_1  and  C_2
REMARK    2  A    between atoms: C_7  and  C_9
REMARK    3  A    between atoms: C_7  and  C_10
REMARK    4  A    between atoms: C_13  and  C_15
REMARK    5  A    between atoms: C_18  and  C_20
REMARK    6  A    between atoms: C_20  and  N_21
REMARK    7  A    between atoms: C_29  and  C_31
REMARK                            x       y       z     vdW  Elec       q    Type
REMARK                         _______ _______ _______ _____ _____    ______ ____
ROOT
ATOM      1  C   UNL     1       3.952  -0.279  -4.857  0.00  0.00    -0.002 C 
ENDROOT
BRANCH   1   2
ATOM      2  N   UNL     1       3.371   0.730  -5.753  0.00  0.00    +0.394 N 
ATOM      3  C   UNL     1       2.293   1.442  -5.054  0.00  0.00    -0.055 C 
ATOM      4  C   UNL     1       1.476   2.265  -6.057  0.00  0.00    +0.103 C 
ATOM      5  N   UNL     1       2.411   3.070  -6.853  0.00  0.00    -0.353 N 
ATOM      6  C   UNL     1       2.140   4.145  -7.634  0.00  0.00    +0.086 A 
ATOM      7  C   UNL     1       3.300   4.576  -8.175  0.00  0.00    +0.019 A 
ATOM      8  C   UNL     1       4.327   3.728  -7.708  0.00  0.00    +0.021 A 
ATOM      9  C   UNL     1       3.757   2.816  -6.906  0.00  0.00    +0.009 A 
ATOM     10  C   UNL     1       4.418   1.681  -6.163  0.00  0.00    +0.014 C 
ATOM     11  H   UNL     1       2.994   0.274  -6.571  0.00  0.00    -0.080 HD
BRANCH  10  12
ATOM     12  C   UNL     1       5.407   0.990  -7.066  0.00  0.00    -0.020 A 
ATOM     13  C   UNL     1       5.019  -0.115  -7.800  0.00  0.00    +0.008 A 
ATOM     14  C   UNL     1       5.925  -0.749  -8.628  0.00  0.00    +0.039 A 
ATOM     15  C   UNL     1       7.224  -0.278  -8.724  0.00  0.00    +0.126 A 
ATOM     16  C   UNL     1       7.614   0.829  -7.990  0.00  0.00    +0.077 A 
ATOM     17  C   UNL     1       6.704   1.466  -7.165  0.00  0.00    +0.128 A 
ATOM     18  F   UNL     1       7.082   2.550  -6.452  0.00  0.00    -0.205 F 
ATOM     19  F   UNL     1       8.110  -0.899  -9.533  0.00  0.00    -0.205 F 
ENDBRANCH  10  12
ENDBRANCH   1   2
BRANCH   1  23
ATOM     20  C   UNL     1       1.276  -2.378  -3.526  0.00  0.00    +0.190 A 
ATOM     21  C   UNL     1       1.645  -3.139  -4.598  0.00  0.00    +0.055 A 
ATOM     22  C   UNL     1       2.692  -2.456  -5.236  0.00  0.00    +0.043 A 
ATOM     23  C   UNL     1       2.913  -1.322  -4.534  0.00  0.00    +0.090 A 
ATOM     24  O   UNL     1       2.054  -1.276  -3.507  0.00  0.00    -0.457 OA
BRANCH  20  36
ATOM     25  C   UNL     1      -0.019   1.532   0.011  0.00  0.00    +0.013 C 
ATOM     26  C   UNL     1       0.002  -0.004   0.002  0.00  0.00    -0.014 C 
ATOM     27  C   UNL     1      -1.426  -0.614  -0.023  0.00  0.00    +0.030 C 
ATOM     28  C   UNL     1      -1.088  -2.044  -0.513  0.00  0.00    +0.078 C 
ATOM     29  C   UNL     1      -0.480  -2.795   0.669  0.00  0.00    +0.029 C 
ATOM     30  C   UNL     1       0.727  -2.106   1.280  0.00  0.00    -0.033 C 
ATOM     31  C   UNL     1       0.726  -0.590   1.213  0.00  0.00    +0.014 C 
ATOM     32  C   UNL     1       0.765  -2.497   2.779  0.00  0.00    +0.011 C 
ATOM     33  C   UNL     1       2.014  -2.662   0.655  0.00  0.00    +0.011 C 
ATOM     34  N   UNL     1      -0.054  -1.854  -1.550  0.00  0.00    -0.291 N 
ATOM     35  C   UNL     1       0.625  -0.576  -1.291  0.00  0.00    +0.115 C 
ATOM     36  C   UNL     1       0.214  -2.699  -2.566  0.00  0.00    +0.282 C 
ATOM     37  O   UNL     1      -0.424  -3.728  -2.687  0.00  0.00    -0.267 OA
ENDBRANCH  20  36
ENDBRANCH   1  23
TORSDOF 4
