REMARK  Name = ZINC16038406
REMARK  7 active torsions:
REMARK  status: ('A' for Active; 'I' for Inactive)
REMARK    1  A    between atoms: C_1  and  C_2
REMARK    2  A    between atoms: C_2  and  C_3
REMARK    3  A    between atoms: C_2  and  C_4
REMARK    4  A    between atoms: C_2  and  C_5
REMARK    5  A    between atoms: C_5  and  C_7
REMARK    6  A    between atoms: C_9  and  C_33
REMARK    7  A    between atoms: C_36  and  N_39
REMARK                            x       y       z     vdW  Elec       q    Type
REMARK                         _______ _______ _______ _____ _____    ______ ____
ROOT
ATOM      1  C   UNL     1      -3.517   1.065  -0.671  0.00  0.00    +0.150 C 
ATOM      2  C   UNL     1      -2.327   1.961  -1.108  0.00  0.00    +0.070 C 
ATOM      3  C   UNL     1      -1.837   2.625   0.196  0.00  0.00    +0.127 C 
ATOM      4  C   UNL     1      -3.043   2.510   1.124  0.00  0.00    +0.119 C 
ATOM      5  N   UNL     1      -3.575   1.162   0.784  0.00  0.00    -0.311 N 
ATOM      6  C   UNL     1      -4.766   0.955   1.434  0.00  0.00    +0.038 A 
ATOM      7  C   UNL     1      -5.877   0.390   0.839  0.00  0.00    +0.024 A 
ATOM      8  C   UNL     1      -7.041   0.226   1.568  0.00  0.00    +0.002 A 
ATOM      9  C   UNL     1      -7.104   0.626   2.892  0.00  0.00    +0.001 A 
ATOM     10  C   UNL     1      -6.002   1.191   3.505  0.00  0.00    +0.010 A 
ATOM     11  C   UNL     1      -4.826   1.358   2.787  0.00  0.00    -0.004 A 
ATOM     12  C   UNL     1      -3.614   1.946   3.405  0.00  0.00    +0.007 C 
ATOM     13  C   UNL     1      -2.716   2.525   2.587  0.00  0.00    -0.003 C 
ATOM     14  C   UNL     1      -0.628   1.922   0.746  0.00  0.00    +0.180 C 
ATOM     15  O   UNL     1      -0.549   0.752   1.053  0.00  0.00    -0.291 OA
ATOM     16  C   UNL     1       0.438   2.923   0.831  0.00  0.00    +0.029 A 
ATOM     17  C   UNL     1       1.755   2.777   1.278  0.00  0.00    +0.012 A 
ATOM     18  C   UNL     1       2.559   3.909   1.252  0.00  0.00    +0.001 A 
ATOM     19  C   UNL     1       2.093   5.130   0.807  0.00  0.00    +0.001 A 
ATOM     20  C   UNL     1       0.790   5.302   0.357  0.00  0.00    +0.012 A 
ATOM     21  C   UNL     1      -0.041   4.178   0.373  0.00  0.00    +0.029 A 
ATOM     22  C   UNL     1      -1.443   4.058  -0.035  0.00  0.00    +0.180 C 
ATOM     23  O   UNL     1      -2.147   4.940  -0.478  0.00  0.00    -0.291 OA
ENDROOT
BRANCH   2  24
ATOM     24  C   UNL     1      -1.232   1.121  -1.713  0.00  0.00    -0.041 A 
ATOM     25  C   UNL     1      -0.658   1.495  -2.914  0.00  0.00    +0.006 A 
ATOM     26  C   UNL     1       0.350   0.728  -3.467  0.00  0.00    +0.033 A 
ATOM     27  C   UNL     1       0.776  -0.420  -2.824  0.00  0.00    +0.126 A 
ATOM     28  C   UNL     1       0.199  -0.796  -1.626  0.00  0.00    +0.033 A 
ATOM     29  C   UNL     1      -0.806  -0.026  -1.071  0.00  0.00    +0.006 A 
BRANCH  27  30
ATOM     30  N   UNL     1       1.851  -1.245  -3.419  0.00  0.00    +0.056 N 
ATOM     31  O   UNL     1       2.227  -2.256  -2.853  0.00  0.00    -0.126 OA
ATOM     32  O   UNL     1       2.360  -0.913  -4.475  0.00  0.00    -0.126 OA
ENDBRANCH  27  30
ENDBRANCH   2  24
BRANCH   1  33
ATOM     33  C   UNL     1      -3.274  -0.362  -1.090  0.00  0.00    +0.159 C 
ATOM     34  O   UNL     1      -2.773  -1.141  -0.316  0.00  0.00    -0.295 OA
BRANCH  33  36
ATOM     35  C   UNL     1      -3.272  -2.286  -2.654  0.00  0.00    +0.018 C 
ATOM     36  C   UNL     1      -3.656  -0.816  -2.475  0.00  0.00    +0.022 C 
ATOM     37  C   UNL     1      -5.166  -0.657  -2.665  0.00  0.00    +0.018 C 
ATOM     38  C   UNL     1      -2.919   0.034  -3.512  0.00  0.00    +0.018 C 
ENDBRANCH  33  36
ENDBRANCH   1  33
TORSDOF 4
