REMARK  Name = ZINC40125107
REMARK  5 active torsions:
REMARK  status: ('A' for Active; 'I' for Inactive)
REMARK    1  A    between atoms: C_1  and  C_2
REMARK    2  A    between atoms: C_3  and  C_8
REMARK    3  A    between atoms: C_5  and  C_7
REMARK    4  A    between atoms: C_8  and  C_10
REMARK    5  A    between atoms: C_15  and  C_17
REMARK                            x       y       z     vdW  Elec       q    Type
REMARK                         _______ _______ _______ _____ _____    ______ ____
ROOT
ATOM      1  C   UNL     1      -0.061  -1.301  -3.538  0.00  0.00    +0.077 C 
ATOM      2  C   UNL     1      -0.019  -1.062  -4.869  0.00  0.00    +0.249 C 
ATOM      3  C   UNL     1      -0.006  -2.349  -5.594  0.00  0.00    +0.285 C 
ATOM      4  O   UNL     1       0.030  -2.468  -6.803  0.00  0.00    -0.267 OA
ATOM      5  N   UNL     1      -0.040  -3.370  -4.718  0.00  0.00    -0.298 N 
ATOM      6  C   UNL     1      -0.071  -2.802  -3.365  0.00  0.00    +0.143 C 
ATOM      7  O   UNL     1       0.007   0.163  -5.445  0.00  0.00    -0.282 OA
ATOM      8  H   UNL     1      -0.040  -4.314  -4.941  0.00  0.00    +0.150 HD
ENDROOT
BRANCH   6   9
ATOM      9  C   UNL     1       1.142  -3.242  -2.587  0.00  0.00    -0.009 A 
ATOM     10  C   UNL     1       2.292  -3.618  -3.255  0.00  0.00    +0.007 A 
ATOM     11  C   UNL     1       3.405  -4.021  -2.541  0.00  0.00    +0.000 A 
ATOM     12  C   UNL     1       3.369  -4.049  -1.159  0.00  0.00    +0.001 A 
ATOM     13  C   UNL     1       2.219  -3.673  -0.491  0.00  0.00    +0.015 A 
ATOM     14  C   UNL     1       1.106  -3.265  -1.205  0.00  0.00    +0.023 A 
ATOM     15 BR   UNL     1      -0.465  -2.744  -0.290  0.00  0.00    -0.050 Br
ENDBRANCH   6   9
BRANCH   1  16
ATOM     16  C   UNL     1      -0.086  -0.296  -2.469  0.00  0.00    +0.203 C 
ATOM     17  O   UNL     1       0.923  -0.065  -1.827  0.00  0.00    -0.286 OA
BRANCH  16  20
ATOM     18  C   UNL     1      -0.563   1.744  -0.146  0.00  0.00    +0.067 C 
ATOM     19  C   UNL     1      -1.601   1.344  -1.163  0.00  0.00    +0.057 A 
ATOM     20  C   UNL     1      -1.325   0.430  -2.173  0.00  0.00    +0.082 A 
ATOM     21  S   UNL     1      -2.902   0.386  -3.010  0.00  0.00    -0.069 S 
ATOM     22  C   UNL     1      -3.716   1.487  -2.032  0.00  0.00    +0.076 A 
ATOM     23  N   UNL     1      -2.815   1.835  -1.142  0.00  0.00    -0.249 NA
ATOM     24  C   UNL     1      -5.142   1.960  -2.147  0.00  0.00    +0.073 C 
ENDBRANCH  16  20
ENDBRANCH   1  16
TORSDOF 3
