REMARK  Name = ZINC36029708
REMARK  12 active torsions:
REMARK  status: ('A' for Active; 'I' for Inactive)
REMARK    1  A    between atoms: C_1  and  C_2
REMARK    2  A    between atoms: C_2  and  C_3
REMARK    3  A    between atoms: C_2  and  C_4
REMARK    4  A    between atoms: C_4  and  C_5
REMARK    5  A    between atoms: N_9  and  C_26
REMARK    6  A    between atoms: C_17  and  C_19
REMARK    7  A    between atoms: C_26  and  C_27
REMARK    8  A    between atoms: C_27  and  C_28
REMARK    9  A    between atoms: C_31  and  O_36
REMARK   10  A    between atoms: C_32  and  O_34
REMARK   11  A    between atoms: O_34  and  C_35
REMARK   12  A    between atoms: O_36  and  C_37
REMARK                            x       y       z     vdW  Elec       q    Type
REMARK                         _______ _______ _______ _____ _____    ______ ____
ROOT
ATOM      1  C   UNL     1      -3.231  -1.071  -1.864  0.00  0.00    +0.019 C 
ATOM      2  C   UNL     1      -4.724  -1.308  -1.804  0.00  0.00    +0.200 C 
ATOM      3  O   UNL     1      -5.265  -2.345  -1.484  0.00  0.00    -0.277 OA
ATOM      4  N   UNL     1      -5.353  -0.171  -2.167  0.00  0.00    -0.313 N 
ATOM      5  C   UNL     1      -4.358   0.857  -2.487  0.00  0.00    +0.006 C 
ATOM      6  N   UNL     1      -3.080   0.404  -1.895  0.00  0.00    +0.401 N 
ATOM      7  C   UNL     1      -4.766   2.196  -1.874  0.00  0.00    +0.025 C 
ATOM      8  C   UNL     1      -6.108   2.639  -2.467  0.00  0.00    +0.108 C 
ATOM      9  N   UNL     1      -5.998   2.643  -3.932  0.00  0.00    -0.297 N 
ATOM     10  C   UNL     1      -5.541   1.423  -4.612  0.00  0.00    +0.108 C 
ATOM     11  C   UNL     1      -4.204   0.991  -4.001  0.00  0.00    +0.025 C 
ATOM     12  C   UNL     1      -6.312   3.747  -4.640  0.00  0.00    +0.249 C 
ATOM     13  O   UNL     1      -6.595   4.779  -4.064  0.00  0.00    -0.270 OA
ATOM     14  H   UNL     1      -2.970   0.770  -0.961  0.00  0.00    -0.082 HD
ATOM     15  H   UNL     1      -2.301   0.670  -2.478  0.00  0.00    -0.082 HD
ENDROOT
BRANCH  12  16
ATOM     16  C   UNL     1      -6.312   3.701  -6.117  0.00  0.00    +0.072 A 
ATOM     17  C   UNL     1      -6.958   2.660  -6.787  0.00  0.00    +0.016 A 
ATOM     18  C   UNL     1      -6.955   2.624  -8.165  0.00  0.00    +0.001 A 
ATOM     19  C   UNL     1      -6.313   3.616  -8.886  0.00  0.00    +0.003 A 
ATOM     20  C   UNL     1      -5.670   4.650  -8.233  0.00  0.00    +0.039 A 
ATOM     21  C   UNL     1      -5.670   4.703  -6.851  0.00  0.00    +0.135 A 
ATOM     22  F   UNL     1      -5.046   5.717  -6.212  0.00  0.00    -0.205 F 
ENDBRANCH  12  16
BRANCH   1  23
ATOM     23  C   UNL     1      -2.550  -1.651  -0.623  0.00  0.00    -0.004 C 
BRANCH  23  25
ATOM     24  C   UNL     1      -0.377  -1.857   0.594  0.00  0.00    +0.007 C 
ATOM     25  C   UNL     1      -1.041  -1.413  -0.711  0.00  0.00    -0.018 C 
ATOM     26  C   UNL     1      -0.465  -2.220  -1.877  0.00  0.00    +0.007 C 
ENDBRANCH  23  25
ENDBRANCH   1  23
BRANCH   4  27
ATOM     27  C   UNL     1      -6.805   0.009  -2.232  0.00  0.00    +0.110 C 
BRANCH  27  28
ATOM     28  C   UNL     1      -7.325   0.457  -0.865  0.00  0.00    +0.054 C 
BRANCH  28  29
ATOM     29  C   UNL     1      -8.822   0.625  -0.927  0.00  0.00    -0.042 A 
ATOM     30  C   UNL     1      -9.365   1.846  -1.282  0.00  0.00    +0.007 A 
ATOM     31  C   UNL     1     -10.737   2.005  -1.340  0.00  0.00    +0.049 A 
ATOM     32  C   UNL     1     -11.571   0.939  -1.043  0.00  0.00    +0.161 A 
ATOM     33  C   UNL     1     -11.024  -0.290  -0.686  0.00  0.00    +0.162 A 
ATOM     34  C   UNL     1      -9.648  -0.444  -0.634  0.00  0.00    +0.053 A 
BRANCH  33  35
ATOM     35  O   UNL     1     -11.839  -1.339  -0.394  0.00  0.00    -0.491 OA
ATOM     36  C   UNL     1     -11.208  -2.570  -0.035  0.00  0.00    +0.277 C 
ENDBRANCH  33  35
BRANCH  32  37
ATOM     37  O   UNL     1     -12.921   1.094  -1.099  0.00  0.00    -0.491 OA
ATOM     38  C   UNL     1     -13.411   2.384  -1.472  0.00  0.00    +0.277 C 
ENDBRANCH  32  37
ENDBRANCH  28  29
ENDBRANCH  27  28
ENDBRANCH   4  27
TORSDOF 8
