REMARK  Name = ZINC12566139
REMARK  9 active torsions:
REMARK  status: ('A' for Active; 'I' for Inactive)
REMARK    1  A    between atoms: C_1  and  C_2
REMARK    2  A    between atoms: C_2  and  C_3
REMARK    3  A    between atoms: C_2  and  C_4
REMARK    4  A    between atoms: C_4  and  N_5
REMARK    5  A    between atoms: C_14  and  C_26
REMARK    6  A    between atoms: C_20  and  C_24
REMARK    7  A    between atoms: C_20  and  C_25
REMARK    8  A    between atoms: C_29  and  S_32
REMARK    9  A    between atoms: S_32  and  C_33
REMARK                            x       y       z     vdW  Elec       q    Type
REMARK                         _______ _______ _______ _____ _____    ______ ____
ROOT
ATOM      1  N   UNL     1       2.144   1.047  -1.144  0.00  0.00    -0.281 N 
ATOM      2  C   UNL     1       2.136   1.702  -2.352  0.00  0.00    +0.116 A 
ATOM      3  C   UNL     1       2.807   1.168  -3.411  0.00  0.00    +0.067 A 
ATOM      4  C   UNL     1       3.499  -0.045  -3.239  0.00  0.00    +0.260 A 
ATOM      5  O   UNL     1       4.111  -0.540  -4.170  0.00  0.00    -0.267 OA
ATOM      6  N   UNL     1       3.482  -0.655  -2.037  0.00  0.00    -0.275 N 
ATOM      7  H   UNL     1       3.970  -1.519  -1.913  0.00  0.00    +0.173 HD
ATOM      8  C   UNL     1       2.816  -0.110  -1.003  0.00  0.00    +0.331 A 
ATOM      9  O   UNL     1       2.816  -0.675   0.074  0.00  0.00    -0.246 OA
ATOM     10  C   UNL     1       2.809   1.852  -4.747  0.00  0.00    +0.092 C 
ATOM     11  C   UNL     1       2.398   3.297  -4.621  0.00  0.00    +0.024 C 
ATOM     12  C   UNL     1       1.754   3.742  -3.521  0.00  0.00    +0.017 C 
ATOM     13  N   UNL     1       1.461   2.888  -2.492  0.00  0.00    -0.303 N 
ATOM     14  C   UNL     1       1.343   5.188  -3.393  0.00  0.00    +0.058 C 
ATOM     15  C   UNL     1       1.049   5.764  -4.779  0.00  0.00    -0.023 C 
ATOM     16  C   UNL     1       2.307   5.617  -5.642  0.00  0.00    +0.086 C 
ATOM     17  C   UNL     1       2.704   4.167  -5.683  0.00  0.00    +0.162 C 
ATOM     18  O   UNL     1       3.301   3.739  -6.651  0.00  0.00    -0.292 OA
ATOM     19  C   UNL     1      -0.108   4.995  -5.421  0.00  0.00    +0.011 C 
ATOM     20  C   UNL     1       0.676   7.243  -4.654  0.00  0.00    +0.011 C 
ATOM     21  H   UNL     1       0.769   3.124  -1.855  0.00  0.00    +0.153 HD
ENDROOT
BRANCH  10  22
ATOM     22  C   UNL     1       1.849   1.144  -5.666  0.00  0.00    -0.035 A 
ATOM     23  C   UNL     1       0.511   1.052  -5.328  0.00  0.00    +0.005 A 
ATOM     24  C   UNL     1      -0.373   0.408  -6.171  0.00  0.00    +0.015 A 
ATOM     25  C   UNL     1       0.085  -0.158  -7.355  0.00  0.00    +0.008 A 
ATOM     26  C   UNL     1       1.431  -0.069  -7.689  0.00  0.00    +0.015 A 
ATOM     27  C   UNL     1       2.308   0.582  -6.844  0.00  0.00    +0.005 A 
BRANCH  25  28
ATOM     28  S   UNL     1      -1.039  -0.987  -8.429  0.00  0.00    -0.129 S 
ATOM     29  C   UNL     1      -2.639  -0.845  -7.587  0.00  0.00    +0.090 C 
ENDBRANCH  25  28
ENDBRANCH  10  22
BRANCH   1  30
ATOM     30  C   UNL     1       1.423   1.615  -0.003  0.00  0.00    +0.131 C 
BRANCH  30  32
ATOM     31  C   UNL     1      -0.753   1.593  -1.232  0.00  0.00    +0.009 C 
ATOM     32  C   UNL     1      -0.013   1.086   0.008  0.00  0.00    +0.003 C 
ATOM     33  C   UNL     1      -0.729   1.579   1.267  0.00  0.00    +0.009 C 
ENDBRANCH  30  32
ENDBRANCH   1  30
TORSDOF 4
