REMARK  Name = ZINC63491707
REMARK  6 active torsions:
REMARK  status: ('A' for Active; 'I' for Inactive)
REMARK    1  A    between atoms: C_1  and  C_2
REMARK    2  A    between atoms: C_5  and  C_8
REMARK    3  A    between atoms: N_25  and  C_26
REMARK    4  A    between atoms: C_30  and  C_31
REMARK    5  A    between atoms: C_31  and  O_33
REMARK    6  A    between atoms: O_33  and  C_34
REMARK                            x       y       z     vdW  Elec       q    Type
REMARK                         _______ _______ _______ _____ _____    ______ ____
ROOT
ATOM      1  C   UNL     1       0.054  -4.281  -0.015  0.00  0.00    +0.134 C 
ATOM      2  C   UNL     1      -1.331  -4.802   0.382  0.00  0.00    +0.131 C 
ATOM      3  C   UNL     1      -1.174  -6.294   0.649  0.00  0.00    -0.035 C 
ATOM      4  C   UNL     1      -2.043  -6.910  -0.144  0.00  0.00    -0.001 A 
ATOM      5  C   UNL     1      -2.401  -8.331  -0.286  0.00  0.00    +0.010 A 
ATOM      6  C   UNL     1      -3.343  -8.620  -1.222  0.00  0.00    +0.001 A 
ATOM      7  C   UNL     1      -3.957  -7.650  -2.022  0.00  0.00    +0.002 A 
ATOM      8  C   UNL     1      -3.691  -6.321  -1.955  0.00  0.00    +0.026 A 
ATOM      9  C   UNL     1      -2.720  -5.893  -1.003  0.00  0.00    +0.043 A 
ATOM     10  N   UNL     1      -2.294  -4.676  -0.714  0.00  0.00    -0.375 N 
ATOM     11  C   UNL     1      -0.136  -6.842   1.597  0.00  0.00    +0.052 C 
ATOM     12  C   UNL     1       1.208  -6.208   1.197  0.00  0.00    +0.114 C 
ATOM     13  N   UNL     1       1.023  -4.769   0.979  0.00  0.00    -0.276 N 
ATOM     14  C   UNL     1       1.747  -3.887   1.695  0.00  0.00    +0.307 C 
ATOM     15  O   UNL     1       1.519  -2.696   1.602  0.00  0.00    -0.252 OA
ATOM     16  N   UNL     1       2.723  -4.324   2.516  0.00  0.00    -0.268 N 
ATOM     17  H   UNL     1       2.958  -5.265   2.531  0.00  0.00    +0.156 HD
ATOM     18  H   UNL     1      -2.560  -3.848  -1.143  0.00  0.00    +0.160 HD
ENDROOT
BRANCH   1  23
ATOM     19  C   UNL     1       0.035   1.498  -0.046  0.00  0.00    +0.044 C 
ATOM     20  C   UNL     1       0.040  -0.009  -0.038  0.00  0.00    -0.050 A 
ATOM     21  C   UNL     1      -0.874  -0.699   0.735  0.00  0.00    +0.004 A 
ATOM     22  C   UNL     1      -0.870  -2.082   0.743  0.00  0.00    +0.006 A 
ATOM     23  C   UNL     1       0.049  -2.774  -0.024  0.00  0.00    -0.025 A 
ATOM     24  C   UNL     1       0.963  -2.084  -0.798  0.00  0.00    +0.006 A 
ATOM     25  C   UNL     1       0.956  -0.702  -0.809  0.00  0.00    +0.004 A 
ENDBRANCH   1  23
BRANCH  16  26
ATOM     26  C   UNL     1       3.395  -3.423   3.342  0.00  0.00    +0.056 A 
ATOM     27  C   UNL     1       3.176  -2.061   3.281  0.00  0.00    +0.032 A 
ATOM     28  C   UNL     1       3.865  -1.246   4.114  0.00  0.00    +0.048 A 
ATOM     29  S   UNL     1       4.834  -2.286   5.010  0.00  0.00    -0.088 S 
ATOM     30  C   UNL     1       4.331  -3.837   4.290  0.00  0.00    +0.117 A 
BRANCH  30  31
ATOM     31  C   UNL     1       4.769  -5.146   4.598  0.00  0.00    +0.347 C 
ATOM     32  O   UNL     1       4.311  -6.099   3.995  0.00  0.00    -0.244 OA
BRANCH  31  33
ATOM     33  O   UNL     1       5.694  -5.339   5.562  0.00  0.00    -0.464 OA
ATOM     34  C   UNL     1       6.090  -6.687   5.821  0.00  0.00    +0.280 C 
ENDBRANCH  31  33
ENDBRANCH  30  31
ENDBRANCH  16  26
TORSDOF 4
