REMARK  Name = ZINC44657360
REMARK  13 active torsions:
REMARK  status: ('A' for Active; 'I' for Inactive)
REMARK    1  A    between atoms: C_1  and  C_2
REMARK    2  A    between atoms: C_4  and  C_32
REMARK    3  A    between atoms: C_5  and  C_31
REMARK    4  A    between atoms: C_6  and  C_8
REMARK    5  A    between atoms: C_8  and  C_10
REMARK    6  A    between atoms: C_10  and  O_11
REMARK    7  A    between atoms: O_11  and  C_12
REMARK    8  A    between atoms: C_12  and  C_14
REMARK    9  A    between atoms: C_19  and  N_20
REMARK   10  A    between atoms: N_20  and  S_21
REMARK   11  A    between atoms: S_21  and  C_24
REMARK   12  A    between atoms: C_32  and  O_34
REMARK   13  A    between atoms: O_34  and  C_35
REMARK                            x       y       z     vdW  Elec       q    Type
REMARK                         _______ _______ _______ _____ _____    ______ ____
ROOT
ATOM      1  C   UNL     1       3.783  -2.515   5.018  0.00  0.00    +0.342 C 
ATOM      2  O   UNL     1       2.934  -1.933   5.663  0.00  0.00    -0.245 OA
ENDROOT
BRANCH   1   3
ATOM      3  C   UNL     1       4.864  -3.240   5.708  0.00  0.00    +0.083 A 
ATOM      4  C   UNL     1       5.846  -3.906   4.971  0.00  0.00    +0.017 A 
ATOM      5  C   UNL     1       6.854  -4.583   5.622  0.00  0.00    +0.001 A 
ATOM      6  C   UNL     1       6.900  -4.607   7.007  0.00  0.00    +0.002 A 
ATOM      7  C   UNL     1       5.938  -3.954   7.750  0.00  0.00    +0.027 A 
ATOM      8  C   UNL     1       4.917  -3.262   7.111  0.00  0.00    +0.088 A 
BRANCH   8   9
ATOM      9  N   UNL     1       3.950  -2.599   7.856  0.00  0.00    -0.097 NA
BRANCH   9  10
ATOM     10  S   UNL     1       4.017  -2.628   9.511  0.00  0.00    +0.092 S 
ATOM     11  O   UNL     1       3.790  -3.975   9.903  0.00  0.00    -0.148 OA
ATOM     12  O   UNL     1       5.187  -1.913   9.882  0.00  0.00    -0.148 OA
BRANCH  10  13
ATOM     13  C   UNL     1       2.646  -1.693  10.103  0.00  0.00    +0.111 A 
ATOM     14  C   UNL     1       2.779  -0.334  10.320  0.00  0.00    +0.031 A 
ATOM     15  C   UNL     1       1.704   0.400  10.785  0.00  0.00    +0.040 A 
ATOM     16  C   UNL     1       0.494  -0.225  11.033  0.00  0.00    +0.124 A 
ATOM     17  C   UNL     1       0.362  -1.586  10.815  0.00  0.00    +0.040 A 
ATOM     18  C   UNL     1       1.437  -2.318  10.346  0.00  0.00    +0.031 A 
ATOM     19  F   UNL     1      -0.557   0.492  11.487  0.00  0.00    -0.205 F 
ENDBRANCH  10  13
ENDBRANCH   9  10
ENDBRANCH   8   9
ENDBRANCH   1   3
BRANCH   1  20
ATOM     20  O   UNL     1       3.737  -2.497   3.671  0.00  0.00    -0.453 OA
BRANCH  20  21
ATOM     21  C   UNL     1       2.661  -1.774   3.069  0.00  0.00    +0.313 C 
BRANCH  21  22
ATOM     22  C   UNL     1       2.773  -1.865   1.569  0.00  0.00    +0.218 C 
ATOM     23  O   UNL     1       3.681  -2.485   1.067  0.00  0.00    -0.287 OA
BRANCH  22  28
ATOM     24  C   UNL     1      -0.019   1.526   0.010  0.00  0.00    +0.038 C 
ATOM     25  C   UNL     1       0.002  -0.004   0.002  0.00  0.00    +0.140 C 
ATOM     26  C   UNL     1       0.731  -0.510  -1.223  0.00  0.00    +0.065 C 
ATOM     27  C   UNL     1       1.782  -1.217  -0.761  0.00  0.00    -0.010 C 
ATOM     28  C   UNL     1       1.770  -1.193   0.709  0.00  0.00    +0.108 C 
ATOM     29  N   UNL     1       0.761  -0.507   1.153  0.00  0.00    -0.272 NA
ATOM     30  C   UNL     1       2.806  -1.919  -1.615  0.00  0.00    +0.046 C 
BRANCH  26  31
ATOM     31  C   UNL     1       0.368  -0.279  -2.628  0.00  0.00    +0.337 C 
ATOM     32  O   UNL     1       1.050  -0.750  -3.517  0.00  0.00    -0.245 OA
BRANCH  31  33
ATOM     33  O   UNL     1      -0.722   0.455  -2.930  0.00  0.00    -0.465 OA
ATOM     34  C   UNL     1      -1.015   0.639  -4.317  0.00  0.00    +0.280 C 
ENDBRANCH  31  33
ENDBRANCH  26  31
ENDBRANCH  22  28
ENDBRANCH  21  22
ENDBRANCH  20  21
ENDBRANCH   1  20
TORSDOF 10
