REMARK  Name = ZINC38740517
REMARK  5 active torsions:
REMARK  status: ('A' for Active; 'I' for Inactive)
REMARK    1  A    between atoms: C_4  and  C_7
REMARK    2  A    between atoms: C_7  and  C_8
REMARK    3  A    between atoms: C_8  and  O_38
REMARK    4  A    between atoms: C_14  and  C_16
REMARK    5  A    between atoms: C_22  and  C_24
REMARK                            x       y       z     vdW  Elec       q    Type
REMARK                         _______ _______ _______ _____ _____    ______ ____
ROOT
ATOM      1  C   UNL     1       6.494  -4.378   4.152  0.00  0.00    +0.091 C 
ATOM      2  C   UNL     1       6.795  -4.619   2.671  0.00  0.00    +0.040 C 
ATOM      3  C   UNL     1       7.998  -5.505   2.526  0.00  0.00    -0.030 C 
ATOM      4  C   UNL     1       8.479  -6.237   3.479  0.00  0.00    -0.030 C 
ATOM      5  C   UNL     1       7.906  -6.295   4.865  0.00  0.00    +0.040 C 
ATOM      6  C   UNL     1       6.485  -5.730   4.876  0.00  0.00    +0.091 C 
ENDROOT
BRANCH   6   7
ATOM      7  C   UNL     1       6.022  -5.540   6.298  0.00  0.00    +0.220 C 
ATOM      8  O   UNL     1       6.162  -4.465   6.842  0.00  0.00    -0.275 OA
ATOM      9  N   UNL     1       5.454  -6.564   6.964  0.00  0.00    -0.298 N 
ATOM     10  C   UNL     1       5.185  -7.840   6.286  0.00  0.00    +0.126 C 
ATOM     11  C   UNL     1       5.861  -8.967   7.077  0.00  0.00    +0.125 C 
ATOM     12  N   UNL     1       5.498  -8.828   8.495  0.00  0.00    -0.314 N 
ATOM     13  C   UNL     1       5.767  -7.552   9.172  0.00  0.00    +0.125 C 
ATOM     14  C   UNL     1       5.096  -6.427   8.383  0.00  0.00    +0.126 C 
ATOM     15  C   UNL     1       4.912  -9.885   9.182  0.00  0.00    +0.099 A 
ATOM     16  C   UNL     1       4.793 -11.127   8.566  0.00  0.00    +0.042 A 
ATOM     17  C   UNL     1       4.207 -12.169   9.261  0.00  0.00    +0.005 A 
ATOM     18  C   UNL     1       3.758 -11.934  10.554  0.00  0.00    +0.018 A 
ATOM     19  C   UNL     1       3.909 -10.677  11.104  0.00  0.00    +0.084 A 
ATOM     20  N   UNL     1       4.476  -9.702  10.419  0.00  0.00    -0.350 N 
ATOM     21  H   UNL     1       4.573  -8.829  10.830  0.00  0.00    +0.166 HD
ENDBRANCH   6   7
BRANCH   1  28
ATOM     22  C   UNL     1       4.853   0.373   4.078  0.00  0.00    +0.073 C 
ATOM     23  C   UNL     1       6.199  -0.352   4.141  0.00  0.00    +0.054 C 
ATOM     24  C   UNL     1       6.102  -1.667   3.360  0.00  0.00    +0.110 C 
ATOM     25  N   UNL     1       4.972  -2.446   3.884  0.00  0.00    -0.301 N 
ATOM     26  C   UNL     1       3.649  -1.812   3.954  0.00  0.00    +0.110 C 
ATOM     27  C   UNL     1       3.773  -0.495   4.727  0.00  0.00    +0.054 C 
ATOM     28  C   UNL     1       5.146  -3.719   4.293  0.00  0.00    +0.220 C 
ATOM     29  O   UNL     1       4.218  -4.333   4.775  0.00  0.00    -0.275 OA
BRANCH  22  30
ATOM     30  O   UNL     1       4.508   0.621   2.714  0.00  0.00    -0.388 OA
ATOM     31  H   UNL     1       5.150   1.167   2.239  0.00  0.00    +0.210 HD
ENDBRANCH  22  30
BRANCH  22  32
ATOM     32  C   UNL     1       4.955   1.703   4.827  0.00  0.00    +0.070 C 
BRANCH  32  36
ATOM     33  C   UNL     1       7.970   4.130   3.018  0.00  0.00    +0.000 A 
ATOM     34  C   UNL     1       6.661   4.212   2.580  0.00  0.00    +0.000 A 
ATOM     35  C   UNL     1       5.686   3.426   3.165  0.00  0.00    +0.004 A 
ATOM     36  C   UNL     1       6.019   2.559   4.189  0.00  0.00    -0.045 A 
ATOM     37  C   UNL     1       7.327   2.477   4.627  0.00  0.00    +0.004 A 
ATOM     38  C   UNL     1       8.303   3.263   4.042  0.00  0.00    +0.000 A 
ENDBRANCH  32  36
ENDBRANCH  22  32
ENDBRANCH   1  28
TORSDOF 5
