REMARK  Name = ZINC40672231
REMARK  5 active torsions:
REMARK  status: ('A' for Active; 'I' for Inactive)
REMARK    1  A    between atoms: C_1  and  N_2
REMARK    2  A    between atoms: C_6  and  N_9
REMARK    3  A    between atoms: N_9  and  S_10
REMARK    4  A    between atoms: S_10  and  C_13
REMARK    5  A    between atoms: C_16  and  N_20
REMARK                            x       y       z     vdW  Elec       q    Type
REMARK                         _______ _______ _______ _____ _____    ______ ____
ROOT
ATOM      1  S   UNL     1       2.501  -3.824   2.232  0.00  0.00    +0.064 S 
ATOM      2  O   UNL     1       3.054  -4.021   3.526  0.00  0.00    -0.153 OA
ATOM      3  O   UNL     1       1.757  -4.831   1.560  0.00  0.00    -0.153 OA
ENDROOT
BRANCH   1   4
ATOM      4  C   UNL     1       3.840  -3.394   1.171  0.00  0.00    +0.175 A 
ATOM      5  C   UNL     1       3.739  -3.611  -0.193  0.00  0.00    +0.154 A 
ATOM      6  C   UNL     1       4.789  -3.275  -1.028  0.00  0.00    +0.063 A 
ATOM      7  C   UNL     1       5.946  -2.719  -0.497  0.00  0.00    +0.030 A 
ATOM      8  C   UNL     1       6.046  -2.502   0.871  0.00  0.00    +0.063 A 
ATOM      9  C   UNL     1       4.991  -2.835   1.701  0.00  0.00    +0.154 A 
ATOM     10  F   UNL     1       5.085  -2.619   3.032  0.00  0.00    -0.203 F 
ATOM     11  F   UNL     1       2.613  -4.151  -0.709  0.00  0.00    -0.203 F 
BRANCH   7  12
ATOM     12  N   UNL     1       7.008  -2.379  -1.338  0.00  0.00    -0.358 N 
ATOM     13  H   UNL     1       6.939  -2.531  -2.294  0.00  0.00    +0.142 HD
ATOM     14  H   UNL     1       7.816  -1.992  -0.967  0.00  0.00    +0.142 HD
ENDBRANCH   7  12
ENDBRANCH   1   4
BRANCH   1  15
ATOM     15  N   UNL     1       1.514  -2.498   2.336  0.00  0.00    -0.189 NA
ATOM     16  H   UNL     1       1.405  -2.040   3.184  0.00  0.00    +0.148 HD
BRANCH  15  22
ATOM     17  C   UNL     1      -0.018   1.465   0.010  0.00  0.00    -0.096 C 
ATOM     18  N   UNL     1       0.002  -0.004   0.002  0.00  0.00    +0.379 N 
ATOM     19  C   UNL     1      -1.376  -0.511   0.004  0.00  0.00    -0.079 C 
ATOM     20  C   UNL     1      -1.361  -2.038  -0.087  0.00  0.00    -0.017 C 
ATOM     21  C   UNL     1      -0.605  -2.608   1.117  0.00  0.00    +0.017 C 
ATOM     22  C   UNL     1       0.807  -2.015   1.147  0.00  0.00    +0.060 C 
ATOM     23  C   UNL     1       0.712  -0.489   1.192  0.00  0.00    -0.059 C 
ATOM     24  H   UNL     1       0.477  -0.328  -0.827  0.00  0.00    -0.082 HD
ENDBRANCH  15  22
ENDBRANCH   1  15
TORSDOF 4
