REMARK  Name = ZINC38684189
REMARK  14 active torsions:
REMARK  status: ('A' for Active; 'I' for Inactive)
REMARK    1  A    between atoms: C_1  and  C_2
REMARK    2  A    between atoms: C_2  and  C_3
REMARK    3  A    between atoms: C_2  and  C_4
REMARK    4  A    between atoms: C_4  and  O_5
REMARK    5  A    between atoms: O_5  and  C_6
REMARK    6  A    between atoms: C_9  and  C_14
REMARK    7  A    between atoms: C_11  and  O_12
REMARK    8  A    between atoms: O_12  and  C_13
REMARK    9  A    between atoms: C_19  and  O_28
REMARK   10  A    between atoms: C_23  and  N_27
REMARK   11  A    between atoms: C_24  and  C_25
REMARK   12  A    between atoms: O_28  and  C_29
REMARK   13  A    between atoms: C_29  and  C_31
REMARK   14  A    between atoms: C_36  and  N_37
REMARK                            x       y       z     vdW  Elec       q    Type
REMARK                         _______ _______ _______ _____ _____    ______ ____
ROOT
ATOM      1  C   UNL     1       2.195  -1.846   7.613  0.00  0.00    +0.098 C 
ATOM      2  C   UNL     1       3.550  -1.201   7.744  0.00  0.00    +0.008 A 
ATOM      3  C   UNL     1       3.635   0.153   8.015  0.00  0.00    +0.012 A 
ATOM      4  C   UNL     1       4.869   0.761   8.139  0.00  0.00    +0.047 A 
ATOM      5  C   UNL     1       6.029   0.013   7.990  0.00  0.00    +0.135 A 
ATOM      6  C   UNL     1       5.946  -1.342   7.717  0.00  0.00    +0.093 A 
ATOM      7  C   UNL     1       4.705  -1.952   7.593  0.00  0.00    +0.138 A 
ATOM      8  O   UNL     1       4.641  -3.280   7.326  0.00  0.00    -0.441 OA
ATOM      9  C   UNL     1       3.511  -3.961   7.580  0.00  0.00    +0.199 C 
ATOM     10  C   UNL     1       2.321  -3.339   7.726  0.00  0.00    +0.098 C 
ENDROOT
BRANCH   1  14
ATOM     11  C   UNL     1       0.518  -0.853   3.806  0.00  0.00    +0.162 A 
ATOM     12  C   UNL     1       1.718  -1.542   3.879  0.00  0.00    +0.050 A 
ATOM     13  C   UNL     1       2.257  -1.861   5.111  0.00  0.00    +0.008 A 
ATOM     14  C   UNL     1       1.603  -1.495   6.272  0.00  0.00    -0.031 A 
ATOM     15  C   UNL     1       0.405  -0.808   6.207  0.00  0.00    +0.054 A 
ATOM     16  C   UNL     1      -0.139  -0.479   4.975  0.00  0.00    +0.162 A 
BRANCH  16  17
ATOM     17  O   UNL     1      -1.314   0.202   4.909  0.00  0.00    -0.491 OA
ATOM     18  C   UNL     1      -1.931   0.553   6.149  0.00  0.00    +0.277 C 
ENDBRANCH  16  17
BRANCH  11  19
ATOM     19  O   UNL     1      -0.015  -0.537   2.595  0.00  0.00    -0.488 OA
BRANCH  19  20
ATOM     20  C   UNL     1       0.714  -0.953   1.438  0.00  0.00    +0.232 C 
BRANCH  20  22
ATOM     21  C   UNL     1      -0.063   1.016   0.111  0.00  0.00    +0.010 C 
ATOM     22  C   UNL     1      -0.034  -0.512   0.179  0.00  0.00    +0.020 C 
ATOM     23  C   UNL     1       0.679  -1.064  -1.057  0.00  0.00    +0.010 C 
ENDBRANCH  20  22
ENDBRANCH  19  20
ENDBRANCH  11  19
ENDBRANCH   1  14
BRANCH   9  24
ATOM     24  N   UNL     1       3.569  -5.328   7.692  0.00  0.00    -0.328 N 
ATOM     25  H   UNL     1       4.417  -5.788   7.589  0.00  0.00    +0.145 HD
ATOM     26  H   UNL     1       2.762  -5.834   7.875  0.00  0.00    +0.145 HD
ENDBRANCH   9  24
BRANCH  10  27
ATOM     27  C   UNL     1       1.153  -4.123   7.995  0.00  0.00    +0.101 C 
ATOM     28  N   UNL     1       0.227  -4.745   8.208  0.00  0.00    -0.191 NA
ENDBRANCH  10  27
BRANCH   5  29
ATOM     29  O   UNL     1       7.244   0.611   8.110  0.00  0.00    -0.422 OA
BRANCH  29  30
ATOM     30  C   UNL     1       7.594   1.094   9.318  0.00  0.00    +0.347 C 
ATOM     31  O   UNL     1       6.875   0.907  10.279  0.00  0.00    -0.244 OA
BRANCH  30  32
ATOM     32  C   UNL     1       8.852   1.852   9.474  0.00  0.00    +0.089 A 
ATOM     33  C   UNL     1      10.065   1.288   9.072  0.00  0.00    +0.017 A 
ATOM     34  C   UNL     1      11.236   2.001   9.221  0.00  0.00    +0.001 A 
ATOM     35  C   UNL     1      11.211   3.272   9.767  0.00  0.00    +0.002 A 
ATOM     36  C   UNL     1      10.014   3.837  10.167  0.00  0.00    +0.033 A 
ATOM     37  C   UNL     1       8.834   3.137  10.019  0.00  0.00    +0.140 A 
BRANCH  37  38
ATOM     38  N   UNL     1       7.552   3.746  10.441  0.00  0.00    +0.057 N 
ATOM     39  O   UNL     1       7.550   4.803  11.028  0.00  0.00    -0.126 OA
ATOM     40  O   UNL     1       6.509   3.185  10.201  0.00  0.00    -0.126 OA
ENDBRANCH  37  38
ENDBRANCH  30  32
ENDBRANCH  29  30
ENDBRANCH   5  29
TORSDOF 11
