REMARK  Name = ZINC35231995
REMARK  8 active torsions:
REMARK  status: ('A' for Active; 'I' for Inactive)
REMARK    1  A    between atoms: C_1  and  C_2
REMARK    2  A    between atoms: C_6  and  C_8
REMARK    3  A    between atoms: C_22  and  C_24
REMARK    4  A    between atoms: C_24  and  N_25
REMARK    5  A    between atoms: N_25  and  C_26
REMARK    6  A    between atoms: N_31  and  C_32
REMARK    7  A    between atoms: C_36  and  C_39
REMARK    8  A    between atoms: C_37  and  C_38
REMARK                            x       y       z     vdW  Elec       q    Type
REMARK                         _______ _______ _______ _____ _____    ______ ____
ROOT
ATOM      1  C   UNL     1       0.424  -5.907   2.400  0.00  0.00    +0.159 C 
ATOM      2  C   UNL     1      -0.614  -5.899   1.305  0.00  0.00    +0.049 A 
ATOM      3  C   UNL     1      -0.915  -6.845   0.409  0.00  0.00    +0.025 A 
ATOM      4  C   UNL     1      -1.967  -6.348  -0.393  0.00  0.00    +0.020 A 
ATOM      5  C   UNL     1      -2.266  -5.107   0.051  0.00  0.00    +0.092 A 
ATOM      6  N   UNL     1      -1.443  -4.819   1.088  0.00  0.00    -0.316 N 
ATOM      7  C   UNL     1      -1.350  -3.662   1.875  0.00  0.00    +0.068 A 
ATOM      8  C   UNL     1      -2.324  -2.683   1.849  0.00  0.00    +0.028 A 
ATOM      9  C   UNL     1      -2.192  -1.563   2.651  0.00  0.00    +0.002 A 
ATOM     10  C   UNL     1      -1.091  -1.425   3.476  0.00  0.00    +0.002 A 
ATOM     11  C   UNL     1      -0.111  -2.399   3.504  0.00  0.00    +0.025 A 
ATOM     12  C   UNL     1      -0.230  -3.523   2.702  0.00  0.00    +0.061 A 
ATOM     13  N   UNL     1       0.769  -4.508   2.704  0.00  0.00    -0.255 N 
ATOM     14  C   UNL     1       2.045  -4.175   2.982  0.00  0.00    +0.238 C 
ATOM     15  O   UNL     1       2.347  -3.010   3.137  0.00  0.00    -0.273 OA
ENDROOT
BRANCH   1  21
ATOM     16  C   UNL     1       0.044  -9.924   5.361  0.00  0.00    +0.044 C 
ATOM     17  C   UNL     1      -0.319  -8.495   5.046  0.00  0.00    -0.050 A 
ATOM     18  C   UNL     1      -1.165  -7.796   5.886  0.00  0.00    +0.003 A 
ATOM     19  C   UNL     1      -1.497  -6.486   5.598  0.00  0.00    +0.001 A 
ATOM     20  C   UNL     1      -0.983  -5.875   4.470  0.00  0.00    +0.006 A 
ATOM     21  C   UNL     1      -0.136  -6.573   3.630  0.00  0.00    -0.021 A 
ATOM     22  C   UNL     1       0.200  -7.883   3.921  0.00  0.00    +0.009 A 
ENDBRANCH   1  21
BRANCH  14  23
ATOM     23  C   UNL     1       3.095  -5.248   3.100  0.00  0.00    +0.205 C 
BRANCH  23  24
ATOM     24  N   UNL     1       4.362  -4.647   3.525  0.00  0.00    -0.274 N 
ATOM     25  C   UNL     1       5.240  -4.204   2.603  0.00  0.00    +0.307 C 
ATOM     26  O   UNL     1       6.259  -3.641   2.955  0.00  0.00    -0.252 OA
ATOM     27  N   UNL     1       4.989  -4.385   1.291  0.00  0.00    -0.269 N 
ATOM     28  H   UNL     1       4.135  -4.747   1.006  0.00  0.00    +0.156 HD
BRANCH  27  29
ATOM     29  C   UNL     1       5.960  -4.051   0.340  0.00  0.00    +0.038 A 
ATOM     30  C   UNL     1       7.276  -3.844   0.733  0.00  0.00    +0.023 A 
ATOM     31  C   UNL     1       8.232  -3.515  -0.208  0.00  0.00    +0.002 A 
ATOM     32  C   UNL     1       7.880  -3.392  -1.540  0.00  0.00    +0.004 A 
ATOM     33  C   UNL     1       6.571  -3.598  -1.934  0.00  0.00    -0.046 A 
ATOM     34  C   UNL     1       5.611  -3.933  -0.998  0.00  0.00    -0.026 A 
ATOM     35  C   UNL     1       4.185  -4.163  -1.429  0.00  0.00    +0.046 C 
ATOM     36  C   UNL     1       6.191  -3.462  -3.386  0.00  0.00    +0.044 C 
ENDBRANCH  27  29
BRANCH  24  37
ATOM     37  C   UNL     1       4.674  -4.527   4.951  0.00  0.00    +0.078 C 
ATOM     38  C   UNL     1       5.807  -3.578   5.349  0.00  0.00    +0.024 C 
ATOM     39  C   UNL     1       6.012  -5.092   5.431  0.00  0.00    +0.024 C 
ENDBRANCH  24  37
ENDBRANCH  23  24
ENDBRANCH  14  23
TORSDOF 5
