REMARK  Name = ZINC36600721
REMARK  15 active torsions:
REMARK  status: ('A' for Active; 'I' for Inactive)
REMARK    1  A    between atoms: C_1  and  C_2
REMARK    2  A    between atoms: C_2  and  C_3
REMARK    3  A    between atoms: C_3  and  C_4
REMARK    4  A    between atoms: C_4  and  C_5
REMARK    5  A    between atoms: C_5  and  C_6
REMARK    6  A    between atoms: N_8  and  C_9
REMARK    7  A    between atoms: N_8  and  C_16
REMARK    8  A    between atoms: C_9  and  C_10
REMARK    9  A    between atoms: C_13  and  C_15
REMARK   10  A    between atoms: C_16  and  C_18
REMARK   11  A    between atoms: C_16  and  C_24
REMARK   12  A    between atoms: N_26  and  C_27
REMARK   13  A    between atoms: C_27  and  S_28
REMARK   14  A    between atoms: S_28  and  C_31
REMARK   15  A    between atoms: C_34  and  C_37
REMARK                            x       y       z     vdW  Elec       q    Type
REMARK                         _______ _______ _______ _____ _____    ______ ____
ROOT
ATOM      1  C   UNL     1       2.234  -5.502  -2.838  0.00  0.00    +0.193 C 
ENDROOT
BRANCH   1   2
ATOM      2  C   UNL     1       3.482  -4.755  -3.232  0.00  0.00    -0.018 A 
ATOM      3  C   UNL     1       3.443  -3.845  -4.272  0.00  0.00    +0.006 A 
ATOM      4  C   UNL     1       4.587  -3.159  -4.634  0.00  0.00    +0.000 A 
ATOM      5  C   UNL     1       5.771  -3.383  -3.956  0.00  0.00    +0.000 A 
ATOM      6  C   UNL     1       5.810  -4.292  -2.916  0.00  0.00    +0.000 A 
ATOM      7  C   UNL     1       4.664  -4.975  -2.551  0.00  0.00    +0.006 A 
ENDBRANCH   1   2
BRANCH   1   8
ATOM      8  C   UNL     1       1.919  -6.540  -3.884  0.00  0.00    +0.239 C 
ATOM      9  O   UNL     1       1.507  -6.198  -4.973  0.00  0.00    -0.273 OA
ATOM     10  N   UNL     1       2.093  -7.848  -3.610  0.00  0.00    -0.294 N 
ATOM     11  H   UNL     1       2.422  -8.121  -2.739  0.00  0.00    +0.150 HD
BRANCH  10  12
ATOM     12  C   UNL     1       1.786  -8.857  -4.627  0.00  0.00    +0.278 C 
BRANCH  12  13
ATOM     13  S   UNL     1       3.301  -9.288  -5.527  0.00  0.00    +0.013 S 
ATOM     14  O   UNL     1       3.032 -10.312  -6.475  0.00  0.00    -0.168 OA
ATOM     15  O   UNL     1       3.994  -8.109  -5.912  0.00  0.00    -0.168 OA
BRANCH  13  16
ATOM     16  C   UNL     1       4.341 -10.050  -4.326  0.00  0.00    +0.090 A 
ATOM     17  C   UNL     1       5.211  -9.279  -3.578  0.00  0.00    +0.027 A 
ATOM     18  C   UNL     1       6.027  -9.877  -2.635  0.00  0.00    +0.005 A 
ATOM     19  C   UNL     1       5.972 -11.244  -2.441  0.00  0.00    -0.050 A 
ATOM     20  C   UNL     1       5.101 -12.014  -3.188  0.00  0.00    +0.005 A 
ATOM     21  C   UNL     1       4.282 -11.416  -4.128  0.00  0.00    +0.027 A 
ATOM     22  C   UNL     1       6.862 -11.895  -1.414  0.00  0.00    +0.044 C 
ENDBRANCH  13  16
ENDBRANCH  12  13
ENDBRANCH  10  12
ENDBRANCH   1   8
BRANCH   1  25
ATOM     23  C   UNL     1       1.099  -3.646  -1.741  0.00  0.00    +0.217 C 
ATOM     24  O   UNL     1       2.010  -3.600  -0.942  0.00  0.00    -0.276 OA
ATOM     25  N   UNL     1       1.116  -4.563  -2.729  0.00  0.00    -0.279 N 
BRANCH  23  26
ATOM     26  C   UNL     1      -0.051  -2.679  -1.629  0.00  0.00    +0.096 C 
BRANCH  26  27
ATOM     27  C   UNL     1       0.174  -1.754  -0.432  0.00  0.00    +0.009 C 
BRANCH  27  28
ATOM     28  C   UNL     1      -0.994  -0.773  -0.318  0.00  0.00    +0.000 C 
BRANCH  28  30
ATOM     29  C   UNL     1      -1.936   1.134   0.993  0.00  0.00    +0.004 C 
ATOM     30  C   UNL     1      -0.768   0.153   0.879  0.00  0.00    -0.003 C 
ENDBRANCH  28  30
ENDBRANCH  27  28
ENDBRANCH  26  27
ENDBRANCH  23  26
BRANCH  25  31
ATOM     31  C   UNL     1       0.015  -4.619  -3.695  0.00  0.00    +0.183 C 
BRANCH  31  32
ATOM     32  C   UNL     1       0.239  -3.589  -4.772  0.00  0.00    +0.122 A 
ATOM     33  C   UNL     1       0.419  -3.845  -6.080  0.00  0.00    +0.046 A 
ATOM     34  C   UNL     1       0.591  -2.598  -6.722  0.00  0.00    +0.045 A 
ATOM     35  C   UNL     1       0.505  -1.653  -5.768  0.00  0.00    +0.102 A 
ATOM     36  O   UNL     1       0.286  -2.259  -4.590  0.00  0.00    -0.463 OA
ATOM     37  C   UNL     1       0.628  -0.167  -5.985  0.00  0.00    +0.086 C 
ENDBRANCH  31  32
ENDBRANCH  25  31
ENDBRANCH   1  25
TORSDOF 12
