REMARK  Name = ZINC38765864
REMARK  5 active torsions:
REMARK  status: ('A' for Active; 'I' for Inactive)
REMARK    1  A    between atoms: C_8  and  C_11
REMARK    2  A    between atoms: C_11  and  O_13
REMARK    3  A    between atoms: O_13  and  C_14
REMARK    4  A    between atoms: C_14  and  C_15
REMARK    5  A    between atoms: C_17  and  C_20
REMARK                            x       y       z     vdW  Elec       q    Type
REMARK                         _______ _______ _______ _____ _____    ______ ____
ROOT
ATOM      1  O   UNL     1       5.061  -3.334  -0.065  0.00  0.00    -0.454 OA
ENDROOT
BRANCH   1   2
ATOM      2  C   UNL     1       3.713  -3.382  -0.052  0.00  0.00    +0.356 C 
ATOM      3  O   UNL     1       3.143  -4.456  -0.051  0.00  0.00    -0.243 OA
BRANCH   2  11
ATOM      4  C   UNL     1      -0.016   1.360   0.009  0.00  0.00    +0.001 A 
ATOM      5  C   UNL     1       1.170   2.084   0.002  0.00  0.00    +0.002 A 
ATOM      6  C   UNL     1       2.386   1.439  -0.013  0.00  0.00    +0.026 A 
ATOM      7  C   UNL     1       2.431   0.047  -0.021  0.00  0.00    +0.047 A 
ATOM      8  C   UNL     1       1.227  -0.684  -0.013  0.00  0.00    +0.000 A 
ATOM      9  C   UNL     1       0.002  -0.004   0.002  0.00  0.00    +0.010 A 
ATOM     10  C   UNL     1       1.577  -2.056  -0.024  0.00  0.00    +0.042 A 
ATOM     11  C   UNL     1       2.934  -2.137  -0.038  0.00  0.00    +0.125 A 
ATOM     12  N   UNL     1       3.463  -0.860  -0.036  0.00  0.00    -0.349 N 
ATOM     13  H   UNL     1       4.408  -0.641  -0.045  0.00  0.00    +0.166 HD
ENDBRANCH   2  11
ENDBRANCH   1   2
BRANCH   1  14
ATOM     14  C   UNL     1       5.754  -4.583  -0.078  0.00  0.00    +0.291 C 
BRANCH  14  15
ATOM     15  C   UNL     1       7.240  -4.333  -0.091  0.00  0.00    +0.121 A 
ATOM     16  C   UNL     1       7.861  -3.076  -0.086  0.00  0.00    +0.079 A 
ATOM     17  C   UNL     1       9.208  -3.272  -0.102  0.00  0.00    +0.168 A 
ATOM     18  O   UNL     1       9.428  -4.600  -0.118  0.00  0.00    -0.354 OA
ATOM     19  N   UNL     1       8.169  -5.248  -0.105  0.00  0.00    -0.079 NA
BRANCH  17  20
ATOM     20  C   UNL     1      10.243  -2.217  -0.104  0.00  0.00    +0.020 A 
ATOM     21  C   UNL     1       9.872  -0.871  -0.082  0.00  0.00    +0.013 A 
ATOM     22  C   UNL     1      10.842   0.109  -0.083  0.00  0.00    +0.021 A 
ATOM     23  C   UNL     1      12.182  -0.240  -0.106  0.00  0.00    +0.041 A 
ATOM     24  C   UNL     1      12.557  -1.573  -0.128  0.00  0.00    +0.021 A 
ATOM     25  C   UNL     1      11.595  -2.562  -0.122  0.00  0.00    +0.013 A 
ATOM     26 CL   UNL     1      13.398   1.000  -0.107  0.00  0.00    -0.084 Cl
ENDBRANCH  17  20
ENDBRANCH  14  15
ENDBRANCH   1  14
TORSDOF 5
