REMARK  Name = ZINC35641119
REMARK  12 active torsions:
REMARK  status: ('A' for Active; 'I' for Inactive)
REMARK    1  A    between atoms: C_1  and  C_2
REMARK    2  A    between atoms: C_2  and  O_3
REMARK    3  A    between atoms: O_3  and  C_4
REMARK    4  A    between atoms: C_4  and  C_6
REMARK    5  A    between atoms: C_7  and  C_23
REMARK    6  A    between atoms: N_8  and  C_22
REMARK    7  A    between atoms: C_12  and  C_14
REMARK    8  A    between atoms: C_19  and  O_20
REMARK    9  A    between atoms: O_20  and  C_21
REMARK   10  A    between atoms: C_23  and  N_24
REMARK   11  A    between atoms: N_24  and  C_25
REMARK   12  A    between atoms: N_24  and  C_26
REMARK                            x       y       z     vdW  Elec       q    Type
REMARK                         _______ _______ _______ _____ _____    ______ ____
ROOT
ATOM      1  C   UNL     1       1.448  -2.542   2.900  0.00  0.00    +0.077 C 
ATOM      2  C   UNL     1       1.461  -3.877   3.104  0.00  0.00    +0.010 C 
ATOM      3  N   UNL     1       1.933  -4.407   4.271  0.00  0.00    -0.264 N 
ATOM      4  C   UNL     1       2.407  -3.670   5.283  0.00  0.00    +0.307 C 
ATOM      5  O   UNL     1       2.806  -4.232   6.284  0.00  0.00    -0.252 OA
ATOM      6  N   UNL     1       2.459  -2.324   5.228  0.00  0.00    -0.288 N 
ATOM      7  C   UNL     1       1.979  -1.654   4.007  0.00  0.00    +0.147 C 
ATOM      8  C   UNL     1       1.917  -5.864   4.425  0.00  0.00    +0.139 C 
ATOM      9  H   UNL     1       2.807  -1.809   5.973  0.00  0.00    +0.151 HD
ENDROOT
BRANCH   7  10
ATOM     10  C   UNL     1       0.881  -0.702   4.406  0.00  0.00    +0.019 A 
ATOM     11  C   UNL     1       0.035  -1.022   5.450  0.00  0.00    +0.009 A 
ATOM     12  C   UNL     1      -0.973  -0.149   5.817  0.00  0.00    +0.001 A 
ATOM     13  C   UNL     1      -1.137   1.045   5.139  0.00  0.00    +0.004 A 
ATOM     14  C   UNL     1      -0.293   1.369   4.095  0.00  0.00    +0.046 A 
ATOM     15  C   UNL     1       0.723   0.498   3.729  0.00  0.00    +0.125 A 
BRANCH  15  16
ATOM     16  O   UNL     1       1.558   0.817   2.705  0.00  0.00    -0.495 OA
ATOM     17  C   UNL     1       1.404   2.113   2.123  0.00  0.00    +0.277 C 
ENDBRANCH  15  16
ENDBRANCH   7  10
BRANCH   1  18
ATOM     18  C   UNL     1       0.961  -1.992   1.691  0.00  0.00    +0.339 C 
ATOM     19  O   UNL     1       1.740  -1.580   0.853  0.00  0.00    -0.245 OA
BRANCH  18  20
ATOM     20  O   UNL     1      -0.368  -1.925   1.469  0.00  0.00    -0.462 OA
BRANCH  20  22
ATOM     21  C   UNL     1      -2.313  -1.337   0.160  0.00  0.00    +0.048 C 
ATOM     22  C   UNL     1      -0.788  -1.459   0.184  0.00  0.00    +0.229 C 
ENDBRANCH  20  22
ENDBRANCH  18  20
ENDBRANCH   1  18
BRANCH   2  23
ATOM     23  C   UNL     1       0.947  -4.797   2.027  0.00  0.00    -0.026 C 
BRANCH  23  24
ATOM     24  N   UNL     1       2.017  -5.059   1.055  0.00  0.00    +0.383 N 
ATOM     25  C   UNL     1       3.110  -5.785   1.714  0.00  0.00    -0.095 C 
ATOM     26  H   UNL     1       2.364  -4.183   0.694  0.00  0.00    -0.081 HD
BRANCH  24  27
ATOM     27  C   UNL     1       1.486  -5.868  -0.050  0.00  0.00    -0.068 C 
ATOM     28  C   UNL     1       2.601  -6.141  -1.063  0.00  0.00    -0.015 C 
ATOM     29  C   UNL     1       2.048  -6.984  -2.214  0.00  0.00    -0.002 C 
ATOM     30  C   UNL     1       0.909  -6.227  -2.900  0.00  0.00    -0.000 C 
ATOM     31  C   UNL     1      -0.205  -5.955  -1.888  0.00  0.00    -0.002 C 
ATOM     32  C   UNL     1       0.347  -5.111  -0.737  0.00  0.00    -0.015 C 
ENDBRANCH  24  27
ENDBRANCH  23  24
ENDBRANCH   2  23
TORSDOF 8
