REMARK  Name = ZINC36207705
REMARK  16 active torsions:
REMARK  status: ('A' for Active; 'I' for Inactive)
REMARK    1  A    between atoms: C_1  and  C_2
REMARK    2  A    between atoms: C_2  and  C_3
REMARK    3  A    between atoms: C_2  and  N_4
REMARK    4  A    between atoms: N_4  and  C_5
REMARK    5  A    between atoms: N_4  and  C_27
REMARK    6  A    between atoms: C_5  and  C_6
REMARK    7  A    between atoms: C_12  and  C_17
REMARK    8  A    between atoms: C_20  and  O_25
REMARK    9  A    between atoms: C_21  and  O_23
REMARK   10  A    between atoms: O_23  and  C_24
REMARK   11  A    between atoms: O_25  and  C_26
REMARK   12  A    between atoms: C_27  and  C_28
REMARK   13  A    between atoms: C_28  and  C_30
REMARK   14  A    between atoms: C_28  and  O_38
REMARK   15  A    between atoms: C_30  and  O_31
REMARK   16  A    between atoms: O_31  and  C_32
REMARK                            x       y       z     vdW  Elec       q    Type
REMARK                         _______ _______ _______ _____ _____    ______ ____
ROOT
ATOM      1  C   UNL     1      -0.292  -2.671   0.758  0.00  0.00    +0.094 A 
ATOM      2  N   UNL     1      -0.109  -4.016   0.770  0.00  0.00    -0.312 N 
ATOM      3  H   UNL     1      -0.576  -4.565   0.120  0.00  0.00    +0.170 HD
ATOM      4  C   UNL     1       0.707  -4.604   1.664  0.00  0.00    +0.260 A 
ATOM      5  O   UNL     1       0.861  -5.813   1.661  0.00  0.00    -0.267 OA
ATOM      6  C   UNL     1       1.392  -3.787   2.619  0.00  0.00    +0.080 A 
ATOM      7  C   UNL     1       2.317  -4.180   3.675  0.00  0.00    +0.004 A 
ATOM      8  C   UNL     1       2.849  -3.218   4.467  0.00  0.00    +0.056 A 
ATOM      9  S   UNL     1       2.130  -1.716   3.832  0.00  0.00    -0.076 S 
ATOM     10  C   UNL     1       1.141  -2.408   2.531  0.00  0.00    +0.116 A 
ATOM     11  N   UNL     1       0.323  -1.899   1.614  0.00  0.00    -0.229 NA
ENDROOT
BRANCH   7  12
ATOM     12  C   UNL     1       2.669  -5.606   3.879  0.00  0.00    -0.013 A 
ATOM     13  C   UNL     1       1.664  -6.567   3.966  0.00  0.00    +0.012 A 
ATOM     14  C   UNL     1       1.992  -7.895   4.155  0.00  0.00    +0.050 A 
ATOM     15  C   UNL     1       3.321  -8.275   4.259  0.00  0.00    +0.162 A 
ATOM     16  C   UNL     1       4.330  -7.319   4.172  0.00  0.00    +0.162 A 
ATOM     17  C   UNL     1       4.006  -5.988   3.977  0.00  0.00    +0.058 A 
BRANCH  16  18
ATOM     18  O   UNL     1       5.633  -7.694   4.274  0.00  0.00    -0.491 OA
ATOM     19  C   UNL     1       6.615  -6.661   4.176  0.00  0.00    +0.277 C 
ENDBRANCH  16  18
BRANCH  15  20
ATOM     20  O   UNL     1       3.641  -9.583   4.446  0.00  0.00    -0.491 OA
ATOM     21  C   UNL     1       2.556 -10.511   4.527  0.00  0.00    +0.277 C 
ENDBRANCH  15  20
ENDBRANCH   7  12
BRANCH   1  22
ATOM     22  C   UNL     1      -1.215  -2.058  -0.262  0.00  0.00    -0.003 C 
BRANCH  22  23
ATOM     23  N   UNL     1      -1.114  -0.594  -0.197  0.00  0.00    +0.388 N 
ATOM     24  H   UNL     1      -0.988  -0.308   0.762  0.00  0.00    -0.081 HD
BRANCH  23  26
ATOM     25  C   UNL     1       1.317  -0.760  -0.436  0.00  0.00    -0.014 C 
ATOM     26  C   UNL     1       0.034  -0.146  -0.997  0.00  0.00    -0.074 C 
ATOM     27  C   UNL     1      -0.152  -0.591  -2.449  0.00  0.00    -0.014 C 
ENDBRANCH  23  26
BRANCH  23  28
ATOM     28  C   UNL     1      -2.345   0.006  -0.728  0.00  0.00    -0.043 C 
BRANCH  28  29
ATOM     29  C   UNL     1      -2.313   1.519  -0.504  0.00  0.00    +0.135 C 
BRANCH  29  30
ATOM     30  O   UNL     1      -2.239   1.791   0.897  0.00  0.00    -0.390 OA
ATOM     31  H   UNL     1      -2.984   1.443   1.406  0.00  0.00    +0.210 HD
ENDBRANCH  29  30
BRANCH  29  32
ATOM     32  C   UNL     1      -3.585   2.147  -1.078  0.00  0.00    +0.258 C 
BRANCH  32  33
ATOM     33  O   UNL     1      -3.503   3.570  -0.973  0.00  0.00    -0.489 OA
BRANCH  33  34
ATOM     34  C   UNL     1      -4.559   4.285  -1.442  0.00  0.00    +0.121 A 
ATOM     35  C   UNL     1      -5.655   3.631  -1.986  0.00  0.00    +0.045 A 
ATOM     36  C   UNL     1      -6.728   4.360  -2.461  0.00  0.00    +0.004 A 
ATOM     37  C   UNL     1      -6.710   5.741  -2.395  0.00  0.00    +0.000 A 
ATOM     38  C   UNL     1      -5.619   6.395  -1.853  0.00  0.00    +0.004 A 
ATOM     39  C   UNL     1      -4.547   5.670  -1.371  0.00  0.00    +0.045 A 
ENDBRANCH  33  34
ENDBRANCH  32  33
ENDBRANCH  29  32
ENDBRANCH  28  29
ENDBRANCH  23  28
ENDBRANCH  22  23
ENDBRANCH   1  22
TORSDOF 12
