REMARK  Name = ZINC01396551
REMARK  6 active torsions:
REMARK  status: ('A' for Active; 'I' for Inactive)
REMARK    1  A    between atoms: C_5  and  C_7
REMARK    2  A    between atoms: N_9  and  N_10
REMARK    3  A    between atoms: C_11  and  C_13
REMARK    4  A    between atoms: C_14  and  O_18
REMARK    5  A    between atoms: O_18  and  C_19
REMARK    6  A    between atoms: C_19  and  C_20
REMARK                            x       y       z     vdW  Elec       q    Type
REMARK                         _______ _______ _______ _____ _____    ______ ____
ROOT
ATOM      1  N   UNL     1       2.511  -4.206  -0.048  0.00  0.00    -0.231 N 
ATOM      2  C   UNL     1       3.694  -4.850  -0.063  0.00  0.00    +0.270 C 
ATOM      3  O   UNL     1       4.733  -4.215  -0.070  0.00  0.00    -0.268 OA
ATOM      4  H   UNL     1       1.683  -4.712  -0.043  0.00  0.00    +0.173 HD
ENDROOT
BRANCH   1   7
ATOM      5  C   UNL     1       1.266  -2.146  -0.023  0.00  0.00    +0.132 C 
ATOM      6  N   UNL     1       0.155  -2.825  -0.016  0.00  0.00    -0.384 N 
ATOM      7  N   UNL     1       2.476  -2.805  -0.039  0.00  0.00    -0.248 N 
ATOM      8  H   UNL     1       0.180  -3.795  -0.022  0.00  0.00    +0.157 HD
ATOM      9  H   UNL     1       3.303  -2.299  -0.044  0.00  0.00    +0.172 HD
ATOM     10  H   UNL     1      -0.696  -2.361  -0.005  0.00  0.00    +0.157 HD
BRANCH   5  15
ATOM     11  C   UNL     1      -0.017   1.381   0.010  0.00  0.00    +0.004 A 
ATOM     12  C   UNL     1       1.193   2.059   0.002  0.00  0.00    +0.020 A 
ATOM     13  C   UNL     1       2.375   1.339  -0.013  0.00  0.00    +0.111 A 
ATOM     14  N   UNL     1       2.364   0.022  -0.021  0.00  0.00    -0.252 NA
ATOM     15  C   UNL     1       1.229  -0.664  -0.014  0.00  0.00    +0.102 A 
ATOM     16  C   UNL     1       0.002  -0.004   0.002  0.00  0.00    +0.031 A 
ENDBRANCH   5  15
ENDBRANCH   1   7
BRANCH   2  17
ATOM     17  C   UNL     1       3.730  -6.267  -0.072  0.00  0.00    +0.117 A 
ATOM     18  C   UNL     1       4.833  -7.117  -0.083  0.00  0.00    +0.140 A 
ATOM     19  C   UNL     1       4.542  -8.466  -0.090  0.00  0.00    +0.054 A 
ATOM     20  C   UNL     1       3.247  -8.860  -0.086  0.00  0.00    +0.049 A 
ATOM     21  S   UNL     1       2.375  -7.425  -0.065  0.00  0.00    -0.088 S 
BRANCH  18  22
ATOM     22  O   UNL     1       6.108  -6.650  -0.086  0.00  0.00    -0.486 OA
BRANCH  22  23
ATOM     23  C   UNL     1       7.155  -7.623  -0.097  0.00  0.00    +0.266 C 
BRANCH  23  24
ATOM     24  C   UNL     1       8.490  -6.924  -0.100  0.00  0.00    +0.008 A 
ATOM     25  C   UNL     1       8.547  -5.543  -0.086  0.00  0.00    +0.010 A 
ATOM     26  C   UNL     1       9.771  -4.901  -0.088  0.00  0.00    +0.020 A 
ATOM     27  C   UNL     1      10.940  -5.641  -0.103  0.00  0.00    +0.042 A 
ATOM     28  C   UNL     1      10.884  -7.023  -0.117  0.00  0.00    +0.040 A 
ATOM     29  C   UNL     1       9.658  -7.665  -0.110  0.00  0.00    +0.049 A 
ATOM     30 CL   UNL     1       9.586  -9.399  -0.120  0.00  0.00    -0.083 Cl
ATOM     31 CL   UNL     1      12.477  -4.835  -0.107  0.00  0.00    -0.083 Cl
ENDBRANCH  23  24
ENDBRANCH  22  23
ENDBRANCH  18  22
ENDBRANCH   2  17
TORSDOF 6
