REMARK  Name = ZINC32529562
REMARK  13 active torsions:
REMARK  status: ('A' for Active; 'I' for Inactive)
REMARK    1  A    between atoms: C_1  and  C_2
REMARK    2  A    between atoms: C_2  and  O_3
REMARK    3  A    between atoms: O_3  and  C_4
REMARK    4  A    between atoms: C_4  and  C_6
REMARK    5  A    between atoms: C_7  and  C_31
REMARK    6  A    between atoms: C_10  and  N_11
REMARK    7  A    between atoms: C_12  and  C_14
REMARK    8  A    between atoms: C_14  and  C_16
REMARK    9  A    between atoms: C_14  and  S_17
REMARK   10  A    between atoms: S_17  and  C_18
REMARK   11  A    between atoms: C_20  and  C_30
REMARK   12  A    between atoms: C_23  and  C_29
REMARK   13  A    between atoms: C_25  and  C_28
REMARK                            x       y       z     vdW  Elec       q    Type
REMARK                         _______ _______ _______ _____ _____    ______ ____
ROOT
ATOM      1  N   UNL     1       0.002  -0.004   0.002  0.00  0.00    -0.278 N 
ATOM      2  C   UNL     1      -0.016   1.344   0.009  0.00  0.00    +0.231 C 
ATOM      3  O   UNL     1      -1.075   1.936   0.018  0.00  0.00    -0.274 OA
ATOM      4  H   UNL     1       0.962  -0.541  -0.010  0.00  0.00    +0.155 HD
ENDROOT
BRANCH   1   9
ATOM      5  C   UNL     1      -1.369  -2.090  -0.002  0.00  0.00    +0.095 A 
ATOM      6  C   UNL     1      -2.739  -2.568   0.013  0.00  0.00    +0.005 A 
ATOM      7  C   UNL     1      -3.715  -1.625   0.028  0.00  0.00    +0.056 A 
ATOM      8  S   UNL     1      -2.805  -0.094   0.028  0.00  0.00    -0.080 S 
ATOM      9  C   UNL     1      -1.188  -0.713   0.010  0.00  0.00    +0.086 A 
BRANCH   6  10
ATOM     10  C   UNL     1      -3.057  -4.016   0.008  0.00  0.00    -0.017 A 
ATOM     11  C   UNL     1      -2.463  -4.859  -0.930  0.00  0.00    +0.008 A 
ATOM     12  C   UNL     1      -2.759  -6.207  -0.927  0.00  0.00    +0.001 A 
ATOM     13  C   UNL     1      -3.652  -6.720  -0.003  0.00  0.00    +0.000 A 
ATOM     14  C   UNL     1      -4.248  -5.887   0.927  0.00  0.00    +0.001 A 
ATOM     15  C   UNL     1      -3.956  -4.538   0.937  0.00  0.00    +0.008 A 
ENDBRANCH   6  10
BRANCH   5  16
ATOM     16  C   UNL     1      -0.235  -3.013  -0.024  0.00  0.00    +0.342 C 
ATOM     17  O   UNL     1       0.249  -3.407   1.020  0.00  0.00    -0.245 OA
BRANCH  16  18
ATOM     18  O   UNL     1       0.275  -3.426  -1.202  0.00  0.00    -0.461 OA
BRANCH  18  20
ATOM     19  C   UNL     1       1.839  -4.697  -2.571  0.00  0.00    +0.048 C 
ATOM     20  C   UNL     1       1.401  -4.342  -1.148  0.00  0.00    +0.229 C 
ENDBRANCH  18  20
ENDBRANCH  16  18
ENDBRANCH   5  16
ENDBRANCH   1   9
BRANCH   2  21
ATOM     21  C   UNL     1       1.278   2.115   0.001  0.00  0.00    +0.136 C 
ATOM     22  C   UNL     1       1.767   2.275  -1.440  0.00  0.00    +0.029 C 
BRANCH  21  23
ATOM     23  S   UNL     1       1.012   3.748   0.734  0.00  0.00    -0.093 S 
BRANCH  23  24
ATOM     24  C   UNL     1       2.667   4.356   0.737  0.00  0.00    +0.099 A 
ATOM     25  C   UNL     1       2.924   5.639   1.241  0.00  0.00    +0.038 A 
ATOM     26  C   UNL     1       4.198   6.122   1.249  0.00  0.00    -0.039 A 
ATOM     27  C   UNL     1       5.227   5.301   0.743  0.00  0.00    +0.004 A 
ATOM     28  C   UNL     1       6.561   5.736   0.722  0.00  0.00    +0.013 A 
ATOM     29  C   UNL     1       7.529   4.915   0.227  0.00  0.00    -0.050 A 
ATOM     30  C   UNL     1       7.213   3.650  -0.261  0.00  0.00    +0.008 A 
ATOM     31  C   UNL     1       5.929   3.197  -0.255  0.00  0.00    -0.024 A 
ATOM     32  C   UNL     1       4.903   4.014   0.249  0.00  0.00    +0.075 A 
ATOM     33  N   UNL     1       3.634   3.591   0.270  0.00  0.00    -0.240 NA
ATOM     34  C   UNL     1       5.609   1.823  -0.787  0.00  0.00    +0.046 C 
ATOM     35  C   UNL     1       8.962   5.384   0.205  0.00  0.00    +0.044 C 
ATOM     36  C   UNL     1       4.500   7.497   1.785  0.00  0.00    +0.044 C 
ENDBRANCH  23  24
ENDBRANCH  21  23
ENDBRANCH   2  21
TORSDOF 8
