REMARK  Name = ZINC40321874
REMARK  7 active torsions:
REMARK  status: ('A' for Active; 'I' for Inactive)
REMARK    1  A    between atoms: C_6  and  C_7
REMARK    2  A    between atoms: C_7  and  C_9
REMARK    3  A    between atoms: C_7  and  N_28
REMARK    4  A    between atoms: C_9  and  N_10
REMARK    5  A    between atoms: C_11  and  C_13
REMARK    6  A    between atoms: C_16  and  S_18
REMARK    7  A    between atoms: S_18  and  C_21
REMARK                            x       y       z     vdW  Elec       q    Type
REMARK                         _______ _______ _______ _____ _____    ______ ____
ROOT
ATOM      1  N   UNL     1      -1.806  -0.055  -2.253  0.00  0.00    -0.310 N 
ATOM      2  C   UNL     1      -2.091  -0.227  -3.559  0.00  0.00    +0.279 C 
ATOM      3  O   UNL     1      -2.043  -1.340  -4.051  0.00  0.00    -0.267 OA
ATOM      4  H   UNL     1      -1.845   0.832  -1.862  0.00  0.00    +0.149 HD
ENDROOT
BRANCH   2   5
ATOM      5  C   UNL     1      -2.460   0.925  -4.388  0.00  0.00    +0.192 A 
ATOM      6  C   UNL     1      -2.777   0.890  -5.716  0.00  0.00    +0.056 A 
ATOM      7  C   UNL     1      -3.062   2.210  -6.098  0.00  0.00    +0.070 A 
ATOM      8  C   UNL     1      -2.909   2.983  -5.000  0.00  0.00    +0.246 A 
ATOM      9  O   UNL     1      -2.551   2.205  -3.971  0.00  0.00    -0.433 OA
BRANCH   8  10
ATOM     10  S   UNL     1      -3.147   4.728  -4.933  0.00  0.00    +0.058 S 
ATOM     11  O   UNL     1      -2.377   5.201  -3.835  0.00  0.00    -0.161 OA
ATOM     12  O   UNL     1      -2.965   5.214  -6.256  0.00  0.00    -0.161 OA
BRANCH  10  13
ATOM     13  C   UNL     1      -4.837   5.008  -4.521  0.00  0.00    +0.097 A 
ATOM     14  C   UNL     1      -5.783   5.119  -5.523  0.00  0.00    +0.029 A 
ATOM     15  C   UNL     1      -7.109   5.338  -5.200  0.00  0.00    +0.022 A 
ATOM     16  C   UNL     1      -7.489   5.448  -3.875  0.00  0.00    +0.041 A 
ATOM     17  C   UNL     1      -6.542   5.337  -2.872  0.00  0.00    +0.022 A 
ATOM     18  C   UNL     1      -5.217   5.112  -3.196  0.00  0.00    +0.029 A 
ATOM     19 CL   UNL     1      -9.154   5.724  -3.469  0.00  0.00    -0.084 Cl
ENDBRANCH  10  13
ENDBRANCH   8  10
ENDBRANCH   2   5
BRANCH   1  20
ATOM     20  C   UNL     1      -1.438  -1.206  -1.426  0.00  0.00    +0.094 C 
BRANCH  20  21
ATOM     21  C   UNL     1      -1.040  -0.723  -0.029  0.00  0.00    -0.020 C 
BRANCH  21  27
ATOM     22  C   UNL     1       0.059   1.525  -0.102  0.00  0.00    +0.003 A 
ATOM     23  C   UNL     1       1.182   2.325  -0.194  0.00  0.00    +0.020 A 
ATOM     24  C   UNL     1       2.434   1.748  -0.314  0.00  0.00    +0.041 A 
ATOM     25  C   UNL     1       2.560   0.370  -0.342  0.00  0.00    +0.020 A 
ATOM     26  C   UNL     1       1.436  -0.429  -0.250  0.00  0.00    +0.003 A 
ATOM     27  C   UNL     1       0.186   0.148  -0.130  0.00  0.00    -0.059 A 
ATOM     28 CL   UNL     1       3.845   2.752  -0.430  0.00  0.00    -0.084 Cl
ENDBRANCH  21  27
BRANCH  21  29
ATOM     29  N   UNL     1      -0.747  -1.883   0.824  0.00  0.00    +0.385 N 
ATOM     30  C   UNL     1      -1.955  -2.706   0.960  0.00  0.00    -0.078 C 
ATOM     31  C   UNL     1      -1.635  -3.956   1.781  0.00  0.00    -0.019 C 
ATOM     32  C   UNL     1      -1.142  -3.537   3.169  0.00  0.00    -0.004 C 
ATOM     33  C   UNL     1       0.073  -2.618   3.013  0.00  0.00    -0.019 C 
ATOM     34  C   UNL     1      -0.310  -1.417   2.146  0.00  0.00    -0.078 C 
ATOM     35  H   UNL     1      -0.013  -2.433   0.403  0.00  0.00    -0.081 HD
ENDBRANCH  21  29
ENDBRANCH  20  21
ENDBRANCH   1  20
TORSDOF 7
