REMARK  Name = ZINC13276015
REMARK  10 active torsions:
REMARK  status: ('A' for Active; 'I' for Inactive)
REMARK    1  A    between atoms: CB_1  and  CA_2
REMARK    2  A    between atoms: CA_2  and  C_4
REMARK    3  A    between atoms: CA_2  and  N_6
REMARK    4  A    between atoms: C_7  and  C_9
REMARK    5  A    between atoms: C_12  and  O_18
REMARK    6  A    between atoms: C_13  and  N_15
REMARK    7  A    between atoms: O_18  and  C_19
REMARK    8  A    between atoms: C_22  and  N_25
REMARK    9  A    between atoms: N_26  and  C_27
REMARK   10  A    between atoms: C_32  and  C_33
REMARK                            x       y       z     vdW  Elec       q    Type
REMARK                         _______ _______ _______ _____ _____    ______ ____
ROOT
ATOM      1  C   UNK A   0      -0.019   1.389  -0.030  0.00  0.00    +0.039 A 
ATOM      2  C   UNK A   0       0.619   1.092   1.177  0.00  0.00    +0.017 A 
ATOM      3  C   UNK A   0       1.820   0.420   1.171  0.00  0.00    +0.049 A 
ATOM      4  C   UNK A   0       2.398   0.036  -0.034  0.00  0.00    +0.159 A 
ATOM      5  C   UNK A   0       1.767   0.329  -1.236  0.00  0.00    +0.169 A 
ATOM      6  C   UNK A   0       0.565   1.002  -1.239  0.00  0.00    +0.049 A 
ENDROOT
BRANCH   1   8
ATOM      7  N   ALA A   1      -1.866   2.489   1.138  0.00  0.00    -0.298 N 
ATOM      8  C   UNK A   0      -1.304   2.115  -0.029  0.00  0.00    +0.245 C 
ATOM      9  O   UNK A   0      -1.856   2.377  -1.080  0.00  0.00    -0.270 OA
ATOM     10  H   ALA A   1      -1.426   2.280   1.977  0.00  0.00    +0.150 HD
BRANCH   7  12
ATOM     11  CB  ALA A   1      -4.295   2.206   1.073  0.00  0.00    +0.040 C 
ATOM     12  CA  ALA A   1      -3.142   3.209   1.139  0.00  0.00    +0.183 C 
BRANCH  12  13
ATOM     13  C   ALA A   1      -3.256   4.024   2.402  0.00  0.00    +0.376 C 
ATOM     14  O   ALA A   1      -2.365   4.005   3.216  0.00  0.00    -0.244 OA
ATOM     15  OXT ALA A   1      -4.350   4.772   2.621  0.00  0.00    -0.244 OA
ENDBRANCH  12  13
ENDBRANCH   7  12
ENDBRANCH   1   8
BRANCH   5  16
ATOM     16  N   UNK A   0       2.386  -0.082  -2.516  0.00  0.00    +0.060 N 
ATOM     17  O   UNK A   0       1.833   0.174  -3.571  0.00  0.00    -0.126 OA
ATOM     18  O   UNK A   0       3.449  -0.677  -2.515  0.00  0.00    -0.126 OA
ENDBRANCH   5  16
BRANCH   4  19
ATOM     19  O   UNK A   0       3.582  -0.627  -0.035  0.00  0.00    -0.454 OA
BRANCH  19  20
ATOM     20  C   UNK A   0       4.721   0.102  -0.146  0.00  0.00    +0.129 A 
ATOM     21  C   UNK A   0       4.658   1.491  -0.142  0.00  0.00    +0.048 A 
ATOM     22  C   UNK A   0       5.811   2.236  -0.250  0.00  0.00    +0.033 A 
ATOM     23  C   UNK A   0       7.047   1.593  -0.375  0.00  0.00    +0.086 A 
ATOM     24  C   UNK A   0       7.106   0.194  -0.384  0.00  0.00    +0.033 A 
ATOM     25  C   UNK A   0       5.947  -0.541  -0.270  0.00  0.00    +0.048 A 
BRANCH  23  26
ATOM     26  N   UNK A   0       8.191   2.325  -0.488  0.00  0.00    -0.149 NA
ATOM     27  N   UNK A   0       8.135   3.614  -0.479  0.00  0.00    -0.148 NA
BRANCH  27  28
ATOM     28  C   UNK A   0       9.280   4.348  -0.592  0.00  0.00    +0.100 A 
ATOM     29  C   UNK A   0      10.515   3.709  -0.717  0.00  0.00    +0.030 A 
ATOM     30  C   UNK A   0      11.669   4.456  -0.832  0.00  0.00    +0.002 A 
ATOM     31  C   UNK A   0      11.614   5.840  -0.824  0.00  0.00    +0.001 A 
ATOM     32  C   UNK A   0      10.404   6.492  -0.702  0.00  0.00    +0.017 A 
ATOM     33  C   UNK A   0       9.224   5.757  -0.590  0.00  0.00    +0.090 A 
BRANCH  33  34
ATOM     34  C   UNK A   0       7.927   6.448  -0.465  0.00  0.00    +0.389 C 
ATOM     35  O   UNK A   0       6.902   5.803  -0.363  0.00  0.00    -0.241 OA
ATOM     36  O   UNK A   0       7.879   7.795  -0.463  0.00  0.00    -0.241 OA
ENDBRANCH  33  34
ENDBRANCH  27  28
ENDBRANCH  23  26
ENDBRANCH  19  20
ENDBRANCH   4  19
TORSDOF 9
