REMARK  Name = ZINC02422801
REMARK  8 active torsions:
REMARK  status: ('A' for Active; 'I' for Inactive)
REMARK    1  A    between atoms: C_1  and  C_2
REMARK    2  A    between atoms: C_2  and  C_34
REMARK    3  A    between atoms: C_9  and  C_26
REMARK    4  A    between atoms: C_9  and  C_30
REMARK    5  A    between atoms: C_10  and  C_19
REMARK    6  A    between atoms: N_11  and  C_12
REMARK    7  A    between atoms: C_12  and  C_13
REMARK    8  A    between atoms: C_19  and  C_20
REMARK                            x       y       z     vdW  Elec       q    Type
REMARK                         _______ _______ _______ _____ _____    ______ ____
ROOT
ATOM      1  C   UNL     1       6.266   4.996  -1.427  0.00  0.00    +0.011 C 
ATOM      2  C   UNL     1       5.805   3.582  -1.064  0.00  0.00    -0.023 C 
ATOM      3  C   UNL     1       4.340   3.617  -0.621  0.00  0.00    +0.058 C 
ATOM      4  C   UNL     1       3.481   4.104  -1.758  0.00  0.00    +0.022 C 
ATOM      5  C   UNL     1       3.816   3.864  -3.046  0.00  0.00    +0.055 C 
ATOM      6  C   UNL     1       4.991   3.166  -3.370  0.00  0.00    +0.164 C 
ATOM      7  O   UNL     1       5.266   2.968  -4.537  0.00  0.00    -0.292 OA
ATOM      8  C   UNL     1       5.923   2.672  -2.291  0.00  0.00    +0.086 C 
ATOM      9  C   UNL     1       2.930   4.352  -4.164  0.00  0.00    +0.260 C 
ATOM     10  C   UNL     1       1.740   5.559  -2.454  0.00  0.00    +0.080 C 
ATOM     11  N   UNL     1       2.332   4.797  -1.479  0.00  0.00    -0.289 N 
ATOM     12  C   UNL     1       6.672   3.035   0.072  0.00  0.00    +0.011 C 
ATOM     13  N   UNL     1       1.962   5.427  -3.756  0.00  0.00    -0.352 N 
ATOM     14  H   UNL     1       1.498   6.028  -4.447  0.00  0.00    +0.162 HD
ENDROOT
BRANCH   9  15
ATOM     15  C   UNL     1       2.133   3.171  -4.723  0.00  0.00    +0.425 C 
ATOM     16  F   UNL     1       1.339   3.608  -5.789  0.00  0.00    -0.167 F 
ATOM     17  F   UNL     1       3.016   2.184  -5.174  0.00  0.00    -0.167 F 
ATOM     18  F   UNL     1       1.316   2.642  -3.719  0.00  0.00    -0.167 F 
ENDBRANCH   9  15
BRANCH   9  19
ATOM     19  C   UNL     1       3.803   4.936  -5.276  0.00  0.00    +0.425 C 
ATOM     20  F   UNL     1       4.841   5.685  -4.709  0.00  0.00    -0.167 F 
ATOM     21  F   UNL     1       4.342   3.897  -6.041  0.00  0.00    -0.167 F 
ATOM     22  F   UNL     1       3.025   5.763  -6.094  0.00  0.00    -0.167 F 
ENDBRANCH   9  19
BRANCH  11  23
ATOM     23  C   UNL     1       1.740   4.729  -0.140  0.00  0.00    +0.146 C 
BRANCH  23  24
ATOM     24  C   UNL     1       0.758   3.587  -0.083  0.00  0.00    -0.030 A 
ATOM     25  C   UNL     1       1.184   2.327   0.294  0.00  0.00    +0.005 A 
ATOM     26  C   UNL     1       0.283   1.280   0.348  0.00  0.00    +0.000 A 
ATOM     27  C   UNL     1      -1.043   1.492   0.020  0.00  0.00    +0.000 A 
ATOM     28  C   UNL     1      -1.470   2.753  -0.353  0.00  0.00    +0.000 A 
ATOM     29  C   UNL     1      -0.569   3.800  -0.406  0.00  0.00    +0.005 A 
ENDBRANCH  23  24
ENDBRANCH  11  23
BRANCH  10  30
ATOM     30  C   UNL     1       0.762   6.635  -2.059  0.00  0.00    +0.104 C 
BRANCH  30  31
ATOM     31  C   UNL     1       0.252   7.329  -3.296  0.00  0.00    -0.040 A 
ATOM     32  C   UNL     1       0.912   8.440  -3.788  0.00  0.00    +0.004 A 
ATOM     33  C   UNL     1       0.447   9.073  -4.925  0.00  0.00    +0.000 A 
ATOM     34  C   UNL     1      -0.685   8.602  -5.564  0.00  0.00    +0.000 A 
ATOM     35  C   UNL     1      -1.348   7.495  -5.069  0.00  0.00    +0.000 A 
ATOM     36  C   UNL     1      -0.880   6.858  -3.935  0.00  0.00    +0.004 A 
ENDBRANCH  30  31
ENDBRANCH  10  30
TORSDOF 6
