REMARK  Name = ZINC35843663
REMARK  17 active torsions:
REMARK  status: ('A' for Active; 'I' for Inactive)
REMARK    1  A    between atoms: C_1  and  C_2
REMARK    2  A    between atoms: C_2  and  O_3
REMARK    3  A    between atoms: O_3  and  C_4
REMARK    4  A    between atoms: C_4  and  C_6
REMARK    5  A    between atoms: C_6  and  C_8
REMARK    6  A    between atoms: C_6  and  N_9
REMARK    7  A    between atoms: N_9  and  C_10
REMARK    8  A    between atoms: N_9  and  C_14
REMARK    9  A    between atoms: C_10  and  C_11
REMARK   10  A    between atoms: C_11  and  C_12
REMARK   11  A    between atoms: C_11  and  C_13
REMARK   12  A    between atoms: C_14  and  C_15
REMARK   13  A    between atoms: N_17  and  C_18
REMARK   14  A    between atoms: N_17  and  C_30
REMARK   15  A    between atoms: C_18  and  C_19
REMARK   16  A    between atoms: C_19  and  C_20
REMARK   17  A    between atoms: C_30  and  C_31
REMARK                            x       y       z     vdW  Elec       q    Type
REMARK                         _______ _______ _______ _____ _____    ______ ____
ROOT
ATOM      1  C   UNL     1       1.865  -6.221   1.172  0.00  0.00    +0.199 C 
ATOM      2  O   UNL     1       0.998  -6.851   1.741  0.00  0.00    -0.278 OA
ATOM      3  N   UNL     1       2.734  -6.854   0.360  0.00  0.00    -0.298 N 
ENDROOT
BRANCH   1   4
ATOM      4  C   UNL     1       1.970  -4.732   1.374  0.00  0.00    +0.020 C 
BRANCH   4   5
ATOM      5  N   UNL     1       1.032  -4.312   2.424  0.00  0.00    +0.394 N 
ATOM      6  H   UNL     1       0.308  -5.007   2.525  0.00  0.00    -0.080 HD
BRANCH   5   7
ATOM      7  C   UNL     1       0.427  -3.025   2.054  0.00  0.00    +0.040 C 
ATOM      8  C   UNL     1      -0.456  -2.529   3.200  0.00  0.00    -0.002 C 
BRANCH   7   9
ATOM      9  C   UNL     1      -0.410  -3.201   0.814  0.00  0.00    +0.293 C 
ATOM     10  O   UNL     1      -0.683  -4.311   0.421  0.00  0.00    -0.253 OA
BRANCH   9  11
ATOM     11  O   UNL     1      -0.854  -2.125   0.145  0.00  0.00    -0.466 OA
BRANCH  11  13
ATOM     12  C   UNL     1      -2.053  -1.031  -1.645  0.00  0.00    +0.048 C 
ATOM     13  C   UNL     1      -1.642  -2.366  -1.022  0.00  0.00    +0.228 C 
ENDBRANCH  11  13
ENDBRANCH   9  11
ENDBRANCH   7   9
ENDBRANCH   5   7
BRANCH   5  14
ATOM     14  C   UNL     1       1.752  -4.168   3.696  0.00  0.00    -0.074 C 
BRANCH  14  15
ATOM     15  C   UNL     1       2.252  -5.538   4.157  0.00  0.00    -0.034 C 
ATOM     16  C   UNL     1       3.156  -5.366   5.380  0.00  0.00    +0.005 C 
ATOM     17  C   UNL     1       1.057  -6.419   4.527  0.00  0.00    +0.005 C 
ENDBRANCH  14  15
ENDBRANCH   5  14
ENDBRANCH   4   5
ENDBRANCH   1   4
BRANCH   3  18
ATOM     18  C   UNL     1       2.546  -8.274   0.049  0.00  0.00    +0.113 C 
BRANCH  18  19
ATOM     19  C   UNL     1       1.674  -8.411  -1.200  0.00  0.00    +0.056 C 
BRANCH  19  20
ATOM     20  C   UNL     1       1.480  -9.870  -1.520  0.00  0.00    -0.021 A 
ATOM     21  C   UNL     1       2.209 -10.604  -2.376  0.00  0.00    +0.087 A 
ATOM     22  N   UNL     1       1.740 -11.889  -2.407  0.00  0.00    -0.360 N 
ATOM     23  H   UNL     1       2.106 -12.603  -2.951  0.00  0.00    +0.165 HD
ATOM     24  C   UNL     1       0.670 -12.017  -1.549  0.00  0.00    +0.047 A 
ATOM     25  C   UNL     1       0.465 -10.760  -0.951  0.00  0.00    +0.003 A 
ATOM     26  C   UNL     1      -0.562 -10.590  -0.021  0.00  0.00    +0.010 A 
ATOM     27  C   UNL     1      -1.362 -11.649   0.307  0.00  0.00    +0.001 A 
ATOM     28  C   UNL     1      -1.161 -12.892  -0.277  0.00  0.00    +0.002 A 
ATOM     29  C   UNL     1      -0.159 -13.079  -1.204  0.00  0.00    +0.026 A 
ENDBRANCH  19  20
ENDBRANCH  18  19
ENDBRANCH   3  18
BRANCH   3  30
ATOM     30  C   UNL     1       3.868  -6.123  -0.212  0.00  0.00    +0.142 C 
BRANCH  30  31
ATOM     31  C   UNL     1       5.090  -6.344   0.641  0.00  0.00    -0.029 A 
ATOM     32  C   UNL     1       5.359  -5.492   1.697  0.00  0.00    +0.007 A 
ATOM     33  C   UNL     1       6.480  -5.693   2.480  0.00  0.00    +0.022 A 
ATOM     34  C   UNL     1       7.333  -6.747   2.208  0.00  0.00    +0.059 A 
ATOM     35  C   UNL     1       7.064  -7.601   1.152  0.00  0.00    +0.060 A 
ATOM     36  C   UNL     1       5.939  -7.401   0.372  0.00  0.00    +0.026 A 
ATOM     37 CL   UNL     1       8.135  -8.924   0.810  0.00  0.00    -0.082 Cl
ATOM     38 CL   UNL     1       8.742  -7.000   3.192  0.00  0.00    -0.082 Cl
ENDBRANCH  30  31
ENDBRANCH   3  30
TORSDOF 13
