REMARK  Name = ZINC05949490
REMARK  15 active torsions:
REMARK  status: ('A' for Active; 'I' for Inactive)
REMARK    1  A    between atoms: C_1  and  C_2
REMARK    2  A    between atoms: C_2  and  O_3
REMARK    3  A    between atoms: O_3  and  C_4
REMARK    4  A    between atoms: C_9  and  C_10
REMARK    5  A    between atoms: C_10  and  N_11
REMARK    6  A    between atoms: N_11  and  C_12
REMARK    7  A    between atoms: N_11  and  C_22
REMARK    8  A    between atoms: C_14  and  C_20
REMARK    9  A    between atoms: C_14  and  C_21
REMARK   10  A    between atoms: C_16  and  C_18
REMARK   11  A    between atoms: C_16  and  C_19
REMARK   12  A    between atoms: C_22  and  N_24
REMARK   13  A    between atoms: N_24  and  C_25
REMARK   14  A    between atoms: C_28  and  O_31
REMARK   15  A    between atoms: O_31  and  C_32
REMARK                            x       y       z     vdW  Elec       q    Type
REMARK                         _______ _______ _______ _____ _____    ______ ____
ROOT
ATOM      1  N   UNL     1      -4.628  -0.688  -1.127  0.00  0.00    -0.305 N 
ENDROOT
BRANCH   1   2
ATOM      2  C   UNL     1      -5.225  -1.697  -2.012  0.00  0.00    +0.073 C 
ATOM      3  C   UNL     1      -4.114  -2.398  -2.797  0.00  0.00    +0.009 C 
ATOM      4  C   UNL     1      -4.722  -3.443  -3.732  0.00  0.00    -0.072 C 
ATOM      5  N   UNL     1      -5.745  -2.876  -4.598  0.00  0.00    +0.386 N 
ATOM      6  C   UNL     1      -6.745  -2.016  -3.987  0.00  0.00    -0.072 C 
ATOM      7  C   UNL     1      -6.154  -1.006  -3.009  0.00  0.00    +0.009 C 
ATOM      8  C   UNL     1      -7.846  -2.827  -3.298  0.00  0.00    -0.010 C 
ATOM      9  C   UNL     1      -7.422  -1.212  -5.123  0.00  0.00    -0.010 C 
ATOM     10  C   UNL     1      -5.244  -4.633  -2.927  0.00  0.00    -0.010 C 
ATOM     11  C   UNL     1      -3.582  -3.966  -4.636  0.00  0.00    -0.010 C 
ATOM     12  H   UNL     1      -5.279  -2.350  -5.342  0.00  0.00    -0.084 HD
ATOM     13  H   UNL     1      -6.226  -3.644  -5.072  0.00  0.00    -0.084 HD
ENDBRANCH   1   2
BRANCH   1  14
ATOM     14  C   UNL     1      -3.923   0.335  -1.651  0.00  0.00    +0.138 C 
ATOM     15  S   UNL     1      -3.374   1.602  -0.640  0.00  0.00    -0.018 S 
BRANCH  14  16
ATOM     16  N   UNL     1      -3.652   0.360  -2.971  0.00  0.00    -0.297 N 
ATOM     17  H   UNL     1      -4.027  -0.316  -3.556  0.00  0.00    +0.154 HD
BRANCH  16  18
ATOM     18  C   UNL     1      -2.828   1.363  -3.497  0.00  0.00    +0.033 A 
ATOM     19  C   UNL     1      -1.787   1.879  -2.736  0.00  0.00    +0.027 A 
ATOM     20  C   UNL     1      -0.975   2.867  -3.255  0.00  0.00    +0.047 A 
ATOM     21  C   UNL     1      -1.199   3.345  -4.538  0.00  0.00    +0.120 A 
ATOM     22  C   UNL     1      -2.238   2.832  -5.300  0.00  0.00    +0.047 A 
ATOM     23  C   UNL     1      -3.047   1.839  -4.783  0.00  0.00    +0.027 A 
BRANCH  21  24
ATOM     24  O   UNL     1      -0.399   4.319  -5.049  0.00  0.00    -0.495 OA
ATOM     25  C   UNL     1      -0.686   4.765  -6.376  0.00  0.00    +0.277 C 
ENDBRANCH  21  24
ENDBRANCH  16  18
ENDBRANCH  14  16
ENDBRANCH   1  14
BRANCH   1  26
ATOM     26  C   UNL     1      -4.797  -0.794   0.324  0.00  0.00    +0.145 C 
BRANCH  26  32
ATOM     27  C   UNL     1      -2.542  -1.435   1.212  0.00  0.00    +0.125 A 
ATOM     28  C   UNL     1      -1.656  -2.375   1.719  0.00  0.00    +0.046 A 
ATOM     29  C   UNL     1      -2.059  -3.687   1.877  0.00  0.00    +0.004 A 
ATOM     30  C   UNL     1      -3.344  -4.063   1.530  0.00  0.00    +0.001 A 
ATOM     31  C   UNL     1      -4.228  -3.128   1.024  0.00  0.00    +0.009 A 
ATOM     32  C   UNL     1      -3.831  -1.814   0.870  0.00  0.00    +0.011 A 
BRANCH  27  33
ATOM     33  O   UNL     1      -2.147  -0.143   1.056  0.00  0.00    -0.492 OA
BRANCH  33  35
ATOM     34  C   UNL     1      -0.547   1.663   1.185  0.00  0.00    +0.048 C 
ATOM     35  C   UNL     1      -0.805   0.175   1.430  0.00  0.00    +0.225 C 
ENDBRANCH  33  35
ENDBRANCH  27  33
ENDBRANCH  26  32
ENDBRANCH   1  26
TORSDOF 9
