REMARK  Name = ZINC10157710
REMARK  8 active torsions:
REMARK  status: ('A' for Active; 'I' for Inactive)
REMARK    1  A    between atoms: C_1  and  C_2
REMARK    2  A    between atoms: C_2  and  N_3
REMARK    3  A    between atoms: C_12  and  O_13
REMARK    4  A    between atoms: O_13  and  C_14
REMARK    5  A    between atoms: C_14  and  C_15
REMARK    6  A    between atoms: C_16  and  C_21
REMARK    7  A    between atoms: C_18  and  C_19
REMARK    8  A    between atoms: C_18  and  C_20
REMARK                            x       y       z     vdW  Elec       q    Type
REMARK                         _______ _______ _______ _____ _____    ______ ____
ROOT
ATOM      1  N   UNL     1      -1.035   2.444   1.161  0.00  0.00    -0.299 N 
ATOM      2  C   UNL     1      -1.526   1.191   1.234  0.00  0.00    +0.307 C 
ATOM      3  O   UNL     1      -1.039   0.392   2.010  0.00  0.00    -0.252 OA
ATOM      4  N   UNL     1      -2.558   0.825   0.448  0.00  0.00    -0.242 N 
ATOM      5  C   UNL     1      -2.800  -0.526   0.162  0.00  0.00    +0.088 A 
ATOM      6  C   UNL     1      -4.124  -0.928  -0.064  0.00  0.00    +0.003 A 
ATOM      7  C   UNL     1      -4.402  -2.260  -0.355  0.00  0.00    +0.010 A 
ATOM      8  C   UNL     1      -3.370  -3.176  -0.416  0.00  0.00    +0.004 A 
ATOM      9  C   UNL     1      -2.064  -2.780  -0.190  0.00  0.00    +0.047 A 
ATOM     10  C   UNL     1      -1.773  -1.454   0.100  0.00  0.00    +0.142 A 
ATOM     11  C   UNL     1      -5.196   0.084   0.016  0.00  0.00    -0.043 C 
ATOM     12  C   UNL     1      -4.886   1.374  -0.009  0.00  0.00    +0.002 C 
ATOM     13  C   UNL     1      -3.461   1.830  -0.128  0.00  0.00    +0.057 C 
ATOM     14  C   UNL     1      -3.288   3.155   0.618  0.00  0.00    +0.036 C 
ATOM     15  C   UNL     1      -3.119   2.034  -1.605  0.00  0.00    +0.036 C 
ATOM     16  C   UNL     1      -6.636  -0.346   0.125  0.00  0.00    +0.044 C 
ATOM     17  H   UNL     1      -1.439   3.089   0.559  0.00  0.00    +0.150 HD
ENDROOT
BRANCH   1  19
ATOM     18  C   UNL     1       0.532   4.260   1.641  0.00  0.00    +0.024 C 
ATOM     19  C   UNL     1       0.104   2.834   1.995  0.00  0.00    +0.102 C 
ENDBRANCH   1  19
BRANCH  10  20
ATOM     20  O   UNL     1      -0.487  -1.068   0.321  0.00  0.00    -0.490 OA
BRANCH  20  21
ATOM     21  C   UNL     1       0.530  -2.050   0.110  0.00  0.00    +0.226 C 
ATOM     22  C   UNL     1       1.906  -1.394   0.241  0.00  0.00    +0.048 C 
ENDBRANCH  20  21
ENDBRANCH  10  20
TORSDOF 3
