REMARK  Name = ZINC63351283
REMARK  2 active torsions:
REMARK  status: ('A' for Active; 'I' for Inactive)
REMARK    1  A    between atoms: C_8  and  C_16
REMARK    2  A    between atoms: N_22  and  C_25
REMARK                            x       y       z     vdW  Elec       q    Type
REMARK                         _______ _______ _______ _____ _____    ______ ____
ROOT
ATOM      1  C   UNL     1       5.385  -2.565  -0.670  0.00  0.00    +0.101 A 
ATOM      2  C   UNL     1       6.005  -2.661  -1.880  0.00  0.00    +0.261 A 
ATOM      3  N   UNL     1       7.098  -3.478  -2.015  0.00  0.00    -0.302 N 
ATOM      4  H   UNL     1       7.543  -3.550  -2.874  0.00  0.00    +0.171 HD
ATOM      5  C   UNL     1       7.558  -4.181  -0.964  0.00  0.00    +0.168 A 
ATOM      6  S   UNL     1       8.925  -5.194  -1.160  0.00  0.00    -0.012 S 
ATOM      7  N   UNL     1       6.960  -4.100   0.238  0.00  0.00    -0.256 N 
ATOM      8  C   UNL     1       5.887  -3.305   0.416  0.00  0.00    +0.268 A 
ATOM      9  O   UNL     1       5.351  -3.231   1.508  0.00  0.00    -0.267 OA
ATOM     10  O   UNL     1       5.547  -1.958  -2.937  0.00  0.00    -0.267 OA
ENDROOT
BRANCH   1  17
ATOM     11  C   UNL     1       3.195   3.914   0.287  0.00  0.00    +0.001 A 
ATOM     12  C   UNL     1       4.495   4.012  -0.228  0.00  0.00    +0.002 A 
ATOM     13  C   UNL     1       5.295   2.937  -0.391  0.00  0.00    +0.026 A 
ATOM     14  C   UNL     1       4.839   1.638  -0.040  0.00  0.00    +0.043 A 
ATOM     15  N   UNL     1       5.411   0.458  -0.128  0.00  0.00    -0.376 N 
ATOM     16  C   UNL     1       4.520  -0.533   0.467  0.00  0.00    +0.128 C 
ATOM     17  C   UNL     1       4.182  -1.674  -0.496  0.00  0.00    +0.121 C 
ATOM     18  N   UNL     1       3.069  -2.448   0.076  0.00  0.00    -0.307 NA
ATOM     19  C   UNL     1       1.812  -1.696   0.136  0.00  0.00    +0.086 C 
ATOM     20  C   UNL     1       1.949  -0.515   1.114  0.00  0.00    +0.048 C 
ATOM     21  C   UNL     1       3.225   0.212   0.752  0.00  0.00    -0.035 C 
ATOM     22  C   UNL     1       3.463   1.505   0.500  0.00  0.00    -0.001 A 
ATOM     23  C   UNL     1       2.661   2.727   0.650  0.00  0.00    +0.010 A 
ATOM     24  H   UNL     1       2.945  -3.321  -0.415  0.00  0.00    +0.123 HD
ATOM     25  H   UNL     1       6.279   0.276  -0.521  0.00  0.00    +0.160 HD
ENDBRANCH   1  17
BRANCH   7  26
ATOM     26  C   UNL     1       7.461  -4.843   1.316  0.00  0.00    +0.052 A 
ATOM     27  C   UNL     1       6.990  -6.127   1.554  0.00  0.00    +0.028 A 
ATOM     28  C   UNL     1       7.485  -6.857   2.616  0.00  0.00    +0.022 A 
ATOM     29  C   UNL     1       8.450  -6.310   3.443  0.00  0.00    +0.041 A 
ATOM     30  C   UNL     1       8.921  -5.030   3.209  0.00  0.00    +0.022 A 
ATOM     31  C   UNL     1       8.434  -4.298   2.144  0.00  0.00    +0.028 A 
ATOM     32 CL   UNL     1       9.070  -7.231   4.778  0.00  0.00    -0.084 Cl
ENDBRANCH   7  26
TORSDOF 2
