REMARK  Name = ZINC23993741
REMARK  5 active torsions:
REMARK  status: ('A' for Active; 'I' for Inactive)
REMARK    1  A    between atoms: C_1  and  C_2
REMARK    2  A    between atoms: C_2  and  C_3
REMARK    3  A    between atoms: C_10  and  S_13
REMARK    4  A    between atoms: S_13  and  C_14
REMARK    5  A    between atoms: C_14  and  C_15
REMARK                            x       y       z     vdW  Elec       q    Type
REMARK                         _______ _______ _______ _____ _____    ______ ____
ROOT
ATOM      1  C   UNL     1       0.002  -0.004   0.002  0.00  0.00    +0.034 A 
ATOM      2  C   UNL     1      -0.079  -0.682   1.161  0.00  0.00    +0.094 A 
ATOM      3  C   UNL     1      -0.061  -2.100   1.153  0.00  0.00    +0.275 A 
ATOM      4  O   UNL     1      -0.134  -2.717   2.200  0.00  0.00    -0.266 OA
ATOM      5  N   UNL     1       0.039  -2.761  -0.018  0.00  0.00    -0.172 NA
ATOM      6  C   UNL     1       0.122  -2.054  -1.205  0.00  0.00    +0.260 A 
ATOM      7  N   UNL     1       0.098  -0.682  -1.191  0.00  0.00    -0.259 N 
ATOM      8  C   UNL     1       0.187  -0.248  -2.487  0.00  0.00    +0.198 A 
ATOM      9  N   UNL     1       0.257  -1.301  -3.263  0.00  0.00    -0.120 NA
ATOM     10  N   UNL     1       0.224  -2.443  -2.453  0.00  0.00    -0.107 NA
ENDROOT
BRANCH   1  12
ATOM     11  C   UNL     1       1.417   2.032  -0.001  0.00  0.00    +0.010 C 
ATOM     12  C   UNL     1      -0.018   1.503   0.010  0.00  0.00    +0.051 C 
ENDBRANCH   1  12
BRANCH   8  13
ATOM     13  S   UNL     1       0.204   1.433  -3.017  0.00  0.00    -0.074 S 
BRANCH  13  14
ATOM     14  C   UNL     1       0.337   1.322  -4.822  0.00  0.00    +0.202 C 
BRANCH  14  15
ATOM     15  C   UNL     1       0.361   2.709  -5.410  0.00  0.00    +0.366 C 
ATOM     16  O   UNL     1       0.296   3.674  -4.685  0.00  0.00    -0.245 OA
ATOM     17  O   UNL     1       0.456   2.874  -6.739  0.00  0.00    -0.245 OA
ENDBRANCH  14  15
ENDBRANCH  13  14
ENDBRANCH   8  13
TORSDOF 4
