REMARK  Name = ZINC26075260
REMARK  12 active torsions:
REMARK  status: ('A' for Active; 'I' for Inactive)
REMARK    1  A    between atoms: C_1  and  C_2
REMARK    2  A    between atoms: N_6  and  C_14
REMARK    3  A    between atoms: C_14  and  C_15
REMARK    4  A    between atoms: N_17  and  C_18
REMARK    5  A    between atoms: C_18  and  C_19
REMARK    6  A    between atoms: C_19  and  C_20
REMARK    7  A    between atoms: C_20  and  C_21
REMARK    8  A    between atoms: C_21  and  C_22
REMARK    9  A    between atoms: C_22  and  C_23
REMARK   10  A    between atoms: C_25  and  C_28
REMARK   11  A    between atoms: C_31  and  O_34
REMARK   12  A    between atoms: O_34  and  C_35
REMARK                            x       y       z     vdW  Elec       q    Type
REMARK                         _______ _______ _______ _____ _____    ______ ____
ROOT
ATOM      1  C   UNL     1       2.169   7.235  -3.791  0.00  0.00    +0.104 C 
ENDROOT
BRANCH   1   4
ATOM      2  C   UNL     1       1.139   6.281  -1.800  0.00  0.00    +0.231 C 
ATOM      3  O   UNL     1       0.241   5.862  -2.501  0.00  0.00    -0.274 OA
ATOM      4  N   UNL     1       2.151   6.980  -2.349  0.00  0.00    -0.314 N 
ATOM      5  H   UNL     1       2.965   7.360  -1.713  0.00  0.00    +0.149 HD
BRANCH   2   6
ATOM      6  C   UNL     1       1.121   6.019  -0.316  0.00  0.00    +0.209 C 
BRANCH   6  11
ATOM      7  C   UNL     1      -2.408   4.796   2.254  0.00  0.00    +0.062 C 
ATOM      8  C   UNL     1      -2.434   5.057   0.747  0.00  0.00    +0.256 C 
ATOM      9  C   UNL     1      -1.226   5.870   0.358  0.00  0.00    +0.261 C 
ATOM     10  O   UNL     1      -1.287   7.081   0.341  0.00  0.00    -0.271 OA
ATOM     11  N   UNL     1      -0.074   5.244   0.029  0.00  0.00    -0.256 N 
ATOM     12  C   UNL     1      -0.041   3.843   0.023  0.00  0.00    +0.079 A 
ATOM     13  C   UNL     1       1.166   3.164   0.008  0.00  0.00    +0.027 A 
ATOM     14  C   UNL     1       1.177   1.781   0.000  0.00  0.00    +0.002 A 
ATOM     15  C   UNL     1      -0.013   1.076   0.008  0.00  0.00    +0.004 A 
ATOM     16  C   UNL     1      -1.221   1.748   0.017  0.00  0.00    +0.047 A 
ATOM     17  C   UNL     1      -1.240   3.132   0.031  0.00  0.00    +0.143 A 
ATOM     18  O   UNL     1      -2.419   3.809   0.048  0.00  0.00    -0.478 OA
ENDBRANCH   6  11
ENDBRANCH   2   6
ENDBRANCH   1   4
BRANCH   1  19
ATOM     19  C   UNL     1       3.417   8.043  -4.151  0.00  0.00    +0.019 C 
BRANCH  19  20
ATOM     20  C   UNL     1       3.435   8.309  -5.658  0.00  0.00    +0.002 C 
BRANCH  20  21
ATOM     21  C   UNL     1       4.683   9.118  -6.018  0.00  0.00    +0.009 C 
BRANCH  21  22
ATOM     22  C   UNL     1       4.701   9.384  -7.525  0.00  0.00    +0.099 C 
BRANCH  22  23
ATOM     23  C   UNL     1       5.931  10.180  -7.879  0.00  0.00    +0.228 A 
ATOM     24  N   UNL     1       7.101   9.697  -8.214  0.00  0.00    -0.191 NA
ATOM     25  C   UNL     1       7.887  10.773  -8.442  0.00  0.00    +0.202 A 
ATOM     26  N   UNL     1       7.154  11.837  -8.235  0.00  0.00    -0.056 NA
ATOM     27  O   UNL     1       6.030  11.513  -7.917  0.00  0.00    -0.338 OA
BRANCH  25  28
ATOM     28  C   UNL     1       9.313  10.752  -8.851  0.00  0.00    +0.023 A 
ATOM     29  C   UNL     1       9.970   9.535  -9.029  0.00  0.00    +0.015 A 
ATOM     30  C   UNL     1      11.294   9.519  -9.413  0.00  0.00    +0.046 A 
ATOM     31  C   UNL     1      11.976  10.712  -9.612  0.00  0.00    +0.120 A 
ATOM     32  C   UNL     1      11.325  11.925  -9.430  0.00  0.00    +0.046 A 
ATOM     33  C   UNL     1      10.000  11.948  -9.051  0.00  0.00    +0.015 A 
BRANCH  31  34
ATOM     34  O   UNL     1      13.282  10.692  -9.985  0.00  0.00    -0.495 OA
ATOM     35  C   UNL     1      13.889   9.410 -10.155  0.00  0.00    +0.277 C 
ENDBRANCH  31  34
ENDBRANCH  25  28
ENDBRANCH  22  23
ENDBRANCH  21  22
ENDBRANCH  20  21
ENDBRANCH  19  20
ENDBRANCH   1  19
TORSDOF 10
