REMARK  Name = ZINC47375189
REMARK  7 active torsions:
REMARK  status: ('A' for Active; 'I' for Inactive)
REMARK    1  A    between atoms: C_1  and  C_2
REMARK    2  A    between atoms: C_2  and  C_3
REMARK    3  A    between atoms: C_2  and  N_4
REMARK    4  A    between atoms: N_7  and  C_8
REMARK    5  A    between atoms: C_13  and  N_14
REMARK    6  A    between atoms: C_15  and  C_17
REMARK    7  A    between atoms: C_18  and  C_19
REMARK                            x       y       z     vdW  Elec       q    Type
REMARK                         _______ _______ _______ _____ _____    ______ ____
ROOT
ATOM      1  C   UNL     1      -0.010  -1.140   4.662  0.00  0.00    +0.056 A 
ATOM      2  C   UNL     1      -1.364  -0.841   4.695  0.00  0.00    +0.025 A 
ATOM      3  C   UNL     1      -2.055  -0.896   5.890  0.00  0.00    +0.002 A 
ATOM      4  C   UNL     1      -1.401  -1.248   7.057  0.00  0.00    +0.002 A 
ATOM      5  C   UNL     1      -0.052  -1.547   7.034  0.00  0.00    +0.025 A 
ATOM      6  C   UNL     1       0.649  -1.500   5.838  0.00  0.00    +0.055 A 
ENDROOT
BRANCH   1  10
ATOM      7  N   UNL     1       0.691  -1.079   1.117  0.00  0.00    -0.297 N 
ATOM      8  C   UNL     1       0.037  -1.242   2.284  0.00  0.00    +0.304 C 
ATOM      9  O   UNL     1      -1.143  -1.532   2.284  0.00  0.00    -0.253 OA
ATOM     10  N   UNL     1       0.693  -1.085   3.451  0.00  0.00    -0.268 N 
ATOM     11  H   UNL     1       1.633  -0.848   1.117  0.00  0.00    +0.151 HD
ATOM     12  H   UNL     1       1.651  -0.934   3.453  0.00  0.00    +0.156 HD
BRANCH   7  14
ATOM     13  C   UNL     1      -0.717   0.061  -0.526  0.00  0.00    +0.027 C 
ATOM     14  C   UNL     1      -0.021  -1.249  -0.152  0.00  0.00    +0.068 C 
ATOM     15  C   UNL     1       0.975  -1.629  -1.249  0.00  0.00    +0.027 C 
ENDBRANCH   7  14
ENDBRANCH   1  10
BRANCH   6  16
ATOM     16  N   UNL     1       2.014  -1.808   5.811  0.00  0.00    -0.280 N 
ATOM     17  C   UNL     1       2.760  -1.661   6.924  0.00  0.00    +0.241 C 
ATOM     18  O   UNL     1       2.270  -1.167   7.924  0.00  0.00    -0.270 OA
ATOM     19  H   UNL     1       2.424  -2.126   4.992  0.00  0.00    +0.155 HD
BRANCH  17  20
ATOM     20  C   UNL     1       4.110  -2.083   6.932  0.00  0.00    +0.071 C 
ATOM     21  C   UNL     1       4.860  -1.935   8.053  0.00  0.00    +0.051 C 
BRANCH  21  22
ATOM     22  C   UNL     1       6.211  -2.357   8.060  0.00  0.00    +0.129 A 
ATOM     23  C   UNL     1       7.083  -2.272   9.126  0.00  0.00    +0.050 A 
ATOM     24  C   UNL     1       8.304  -2.803   8.686  0.00  0.00    +0.057 A 
ATOM     25  C   UNL     1       8.135  -3.183   7.398  0.00  0.00    +0.171 A 
ATOM     26  O   UNL     1       6.875  -2.918   7.027  0.00  0.00    -0.449 OA
ATOM     27 BR   UNL     1       9.461  -3.966   6.301  0.00  0.00    -0.008 Br
ENDBRANCH  21  22
ENDBRANCH  17  20
ENDBRANCH   6  16
TORSDOF 5
