REMARK  Name = ZINC52267747
REMARK  6 active torsions:
REMARK  status: ('A' for Active; 'I' for Inactive)
REMARK    1  A    between atoms: C_1  and  C_2
REMARK    2  A    between atoms: C_2  and  C_3
REMARK    3  A    between atoms: C_2  and  C_4
REMARK    4  A    between atoms: C_2  and  C_14
REMARK    5  A    between atoms: C_4  and  C_6
REMARK    6  A    between atoms: C_4  and  O_13
REMARK                            x       y       z     vdW  Elec       q    Type
REMARK                         _______ _______ _______ _____ _____    ______ ____
ROOT
ATOM      1  C   UNL     1      -1.248  -0.582  -0.576  0.00  0.00    +0.134 C 
ENDROOT
BRANCH   1   2
ATOM      2  C   UNL     1      -2.443  -0.041   0.212  0.00  0.00    +0.023 C 
ATOM      3  C   UNL     1      -3.748  -0.504  -0.448  0.00  0.00    +0.010 C 
ATOM      4  C   UNL     1      -4.916  -0.103   0.455  0.00  0.00    +0.027 C 
ATOM      5  C   UNL     1      -4.796   1.341   0.844  0.00  0.00    -0.031 C 
ATOM      6  C   UNL     1      -3.706   2.033   0.740  0.00  0.00    -0.031 C 
ATOM      7  C   UNL     1      -2.411   1.488   0.210  0.00  0.00    +0.033 C 
ENDBRANCH   1   2
BRANCH   1   9
ATOM      8  C   UNL     1      -0.041  -0.666   1.610  0.00  0.00    +0.025 C 
ATOM      9  C   UNL     1       0.048  -0.218   0.150  0.00  0.00    +0.092 C 
ATOM     10  C   UNL     1       1.227  -0.919  -0.528  0.00  0.00    +0.025 C 
BRANCH   9  11
ATOM     11  C   UNL     1       0.253   1.274   0.095  0.00  0.00    +0.364 C 
ATOM     12  O   UNL     1       0.402   1.830  -0.980  0.00  0.00    -0.246 OA
ATOM     13  O   UNL     1       0.269   1.926   1.125  0.00  0.00    -0.246 OA
ENDBRANCH   9  11
ENDBRANCH   1   9
BRANCH   1  14
ATOM     14  O   UNL     1      -1.351  -2.003  -0.682  0.00  0.00    -0.390 OA
ATOM     15  H   UNL     1      -1.363  -2.462   0.170  0.00  0.00    +0.210 HD
ENDBRANCH   1  14
TORSDOF 4
