REMARK  Name = ZINC32876190
REMARK  13 active torsions:
REMARK  status: ('A' for Active; 'I' for Inactive)
REMARK    1  A    between atoms: C_1  and  C_2
REMARK    2  A    between atoms: C_3  and  C_28
REMARK    3  A    between atoms: C_4  and  C_27
REMARK    4  A    between atoms: C_7  and  C_8
REMARK    5  A    between atoms: C_8  and  O_10
REMARK    6  A    between atoms: O_10  and  C_11
REMARK    7  A    between atoms: C_11  and  C_12
REMARK    8  A    between atoms: C_14  and  O_15
REMARK    9  A    between atoms: C_24  and  C_26
REMARK   10  A    between atoms: C_28  and  O_30
REMARK   11  A    between atoms: O_30  and  C_31
REMARK   12  A    between atoms: C_31  and  C_32
REMARK   13  A    between atoms: C_31  and  C_33
REMARK                            x       y       z     vdW  Elec       q    Type
REMARK                         _______ _______ _______ _____ _____    ______ ____
ROOT
ATOM      1  C   UNL     1      -0.370  -7.024   0.344  0.00  0.00    +0.269 C 
ENDROOT
BRANCH   1   2
ATOM      2  C   UNL     1      -0.286  -6.287  -0.968  0.00  0.00    +0.007 A 
ATOM      3  C   UNL     1      -0.279  -6.960  -2.147  0.00  0.00    +0.095 A 
ATOM      4  C   UNL     1      -0.200  -6.248  -3.361  0.00  0.00    +0.285 A 
ATOM      5  O   UNL     1      -0.132  -4.908  -3.389  0.00  0.00    -0.425 OA
ATOM      6  C   UNL     1      -0.136  -4.178  -2.253  0.00  0.00    +0.141 A 
ATOM      7  C   UNL     1      -0.211  -4.825  -1.005  0.00  0.00    +0.024 A 
ATOM      8  C   UNL     1      -0.215  -4.073   0.175  0.00  0.00    +0.014 A 
ATOM      9  C   UNL     1      -0.140  -2.712   0.112  0.00  0.00    +0.024 A 
ATOM     10  C   UNL     1      -0.071  -2.064  -1.121  0.00  0.00    +0.037 A 
ATOM     11  C   UNL     1      -0.065  -2.794  -2.300  0.00  0.00    +0.070 A 
ATOM     12  N   UNL     1       0.000  -0.672  -1.169  0.00  0.00    -0.286 N 
ATOM     13  C   UNL     1      -0.605  -0.000  -2.168  0.00  0.00    +0.214 C 
ATOM     14  O   UNL     1      -1.141  -0.609  -3.070  0.00  0.00    -0.276 OA
ATOM     15  C   UNL     1      -0.617   1.507  -2.165  0.00  0.00    +0.109 C 
ATOM     16  H   UNL     1       0.550  -0.122  -0.391  0.00  0.00    +0.155 HD
BRANCH   4  17
ATOM     17  O   UNL     1      -0.194  -6.865  -4.412  0.00  0.00    -0.480 OA
ATOM     18  H   UNL     1      -0.133  -6.323  -5.367  0.00  0.00    +0.295 HD
ENDBRANCH   4  17
ENDBRANCH   1   2
BRANCH   1  19
ATOM     19  O   UNL     1      -0.433  -8.452   0.094  0.00  0.00    -0.455 OA
BRANCH  19  20
ATOM     20  C   UNL     1      -0.512  -9.260   1.171  0.00  0.00    +0.356 C 
ATOM     21  O   UNL     1      -0.527  -8.783   2.289  0.00  0.00    -0.243 OA
BRANCH  20  28
ATOM     22  C   UNL     1      -0.686 -11.357   3.474  0.00  0.00    +0.047 C 
ATOM     23  C   UNL     1      -0.656 -11.638   1.994  0.00  0.00    -0.005 A 
ATOM     24  C   UNL     1      -0.704 -12.910   1.379  0.00  0.00    +0.083 A 
ATOM     25  C   UNL     1      -0.645 -12.703   0.013  0.00  0.00    +0.028 A 
ATOM     26  N   UNL     1      -0.570 -11.382  -0.212  0.00  0.00    -0.352 N 
ATOM     27  H   UNL     1      -0.514 -11.002  -1.243  0.00  0.00    +0.166 HD
ATOM     28  C   UNL     1      -0.579 -10.714   0.994  0.00  0.00    +0.128 A 
ATOM     29  C   UNL     1      -0.661 -13.777  -1.043  0.00  0.00    +0.064 C 
BRANCH  24  30
ATOM     30  C   UNL     1      -0.794 -14.210   2.064  0.00  0.00    +0.341 C 
ATOM     31  O   UNL     1       0.219 -14.800   2.385  0.00  0.00    -0.245 OA
BRANCH  30  32
ATOM     32  O   UNL     1      -2.000 -14.747   2.335  0.00  0.00    -0.458 OA
BRANCH  32  33
ATOM     33  C   UNL     1      -2.014 -16.031   3.013  0.00  0.00    +0.171 C 
ATOM     34  C   UNL     1      -3.273 -16.141   3.874  0.00  0.00    +0.052 C 
ATOM     35  C   UNL     1      -2.006 -17.155   1.974  0.00  0.00    +0.052 C 
ENDBRANCH  32  33
ENDBRANCH  30  32
ENDBRANCH  24  30
ENDBRANCH  20  28
ENDBRANCH  19  20
ENDBRANCH   1  19
TORSDOF 8
