REMARK  Name = ZINC16806195
REMARK  9 active torsions:
REMARK  status: ('A' for Active; 'I' for Inactive)
REMARK    1  A    between atoms: C_1  and  C_2
REMARK    2  A    between atoms: C_2  and  C_3
REMARK    3  A    between atoms: C_3  and  C_5
REMARK    4  A    between atoms: C_3  and  O_30
REMARK    5  A    between atoms: N_7  and  C_8
REMARK    6  A    between atoms: C_9  and  C_19
REMARK    7  A    between atoms: C_14  and  C_18
REMARK    8  A    between atoms: N_21  and  C_22
REMARK    9  A    between atoms: O_30  and  C_31
REMARK                            x       y       z     vdW  Elec       q    Type
REMARK                         _______ _______ _______ _____ _____    ______ ____
ROOT
ATOM      1  C   UNL     1       1.400   1.166  -5.165  0.00  0.00    +0.085 A 
ATOM      2  C   UNL     1       0.738   2.195  -4.509  0.00  0.00    +0.069 A 
ATOM      3  C   UNL     1       1.026   3.555  -4.931  0.00  0.00    -0.023 A 
ATOM      4  C   UNL     1       1.919   3.668  -5.937  0.00  0.00    -0.004 A 
ATOM      5  S   UNL     1       2.377   2.003  -6.325  0.00  0.00    -0.077 S 
ATOM      6  C   UNL     1       2.405   4.933  -6.575  0.00  0.00    +0.046 C 
ATOM      7  C   UNL     1       1.459   6.073  -6.172  0.00  0.00    -0.009 C 
ATOM      8  C   UNL     1       1.233   6.013  -4.658  0.00  0.00    +0.008 C 
ATOM      9  C   UNL     1       0.386   4.789  -4.306  0.00  0.00    +0.037 C 
ATOM     10  C   UNL     1       2.088   7.417  -6.544  0.00  0.00    +0.008 C 
ENDROOT
BRANCH   1  13
ATOM     11  C   UNL     1       2.030  -1.056  -5.689  0.00  0.00    +0.258 C 
ATOM     12  O   UNL     1       2.772  -0.631  -6.549  0.00  0.00    -0.271 OA
ATOM     13  N   UNL     1       1.302  -0.200  -4.945  0.00  0.00    -0.276 N 
ATOM     14  H   UNL     1       0.708  -0.539  -4.257  0.00  0.00    +0.155 HD
BRANCH  11  15
ATOM     15  C   UNL     1       1.923  -2.540  -5.450  0.00  0.00    +0.259 C 
BRANCH  15  17
ATOM     16  C   UNL     1       0.364  -4.492  -5.439  0.00  0.00    +0.008 C 
ATOM     17  C   UNL     1       0.510  -3.012  -5.798  0.00  0.00    +0.051 C 
ENDBRANCH  15  17
BRANCH  15  18
ATOM     18  O   UNL     1       2.870  -3.224  -6.274  0.00  0.00    -0.477 OA
BRANCH  18  19
ATOM     19  C   UNL     1       3.514  -4.287  -5.723  0.00  0.00    +0.157 A 
ATOM     20  C   UNL     1       3.157  -4.736  -4.460  0.00  0.00    +0.048 A 
ATOM     21  C   UNL     1       3.812  -5.817  -3.901  0.00  0.00    +0.004 A 
ATOM     22  C   UNL     1       4.823  -6.451  -4.600  0.00  0.00    +0.003 A 
ATOM     23  C   UNL     1       5.181  -6.007  -5.859  0.00  0.00    +0.042 A 
ATOM     24  C   UNL     1       4.526  -4.928  -6.425  0.00  0.00    +0.165 A 
ATOM     25  F   UNL     1       4.872  -4.497  -7.657  0.00  0.00    -0.202 F 
ENDBRANCH  18  19
ENDBRANCH  15  18
ENDBRANCH  11  15
ENDBRANCH   1  13
BRANCH   2  26
ATOM     26  C   UNL     1      -0.213   1.919  -3.427  0.00  0.00    +0.247 C 
ATOM     27  O   UNL     1      -1.392   1.753  -3.680  0.00  0.00    -0.270 OA
ATOM     28  N   UNL     1       0.219   1.849  -2.152  0.00  0.00    -0.307 N 
ATOM     29  H   UNL     1       1.158   1.982  -1.951  0.00  0.00    +0.149 HD
BRANCH  28  30
ATOM     30  C   UNL     1      -0.731   1.574  -1.071  0.00  0.00    +0.096 C 
ATOM     31  C   UNL     1      -1.396   2.888  -0.631  0.00  0.00    +0.046 C 
ATOM     32  C   UNL     1      -2.149   2.626   0.704  0.00  0.00    +0.168 C 
ATOM     33  S   UNL     1      -0.927   1.548   1.575  0.00  0.00    -0.029 S 
ATOM     34  O   UNL     1      -1.615   0.457   2.171  0.00  0.00    -0.174 OA
ATOM     35  O   UNL     1      -0.077   2.360   2.374  0.00  0.00    -0.174 OA
ATOM     36  C   UNL     1       0.020   0.937   0.122  0.00  0.00    +0.188 C 
ENDBRANCH  28  30
ENDBRANCH   2  26
TORSDOF 7
