REMARK  Name = ZINC39993111
REMARK  8 active torsions:
REMARK  status: ('A' for Active; 'I' for Inactive)
REMARK    1  A    between atoms: C_1  and  C_2
REMARK    2  A    between atoms: C_5  and  C_35
REMARK    3  A    between atoms: C_6  and  N_8
REMARK    4  A    between atoms: C_9  and  C_11
REMARK    5  A    between atoms: C_11  and  C_33
REMARK    6  A    between atoms: C_12  and  C_13
REMARK    7  A    between atoms: C_14  and  O_24
REMARK    8  A    between atoms: O_24  and  C_25
REMARK                            x       y       z     vdW  Elec       q    Type
REMARK                         _______ _______ _______ _____ _____    ______ ____
ROOT
ATOM      1  C   UNL     1      -0.218  -3.232   7.030  0.00  0.00    +0.103 A 
ATOM      2  C   UNL     1      -0.208  -2.705   8.345  0.00  0.00    +0.235 A 
ATOM      3  N   UNL     1      -0.287  -3.527   9.377  0.00  0.00    -0.194 NA
ATOM      4  C   UNL     1      -0.377  -4.849   9.217  0.00  0.00    +0.144 A 
ATOM      5  C   UNL     1      -0.458  -5.671  10.355  0.00  0.00    +0.047 A 
ATOM      6  C   UNL     1      -0.549  -7.023  10.203  0.00  0.00    +0.005 A 
ATOM      7  C   UNL     1      -0.561  -7.574   8.915  0.00  0.00    +0.018 A 
ATOM      8  C   UNL     1      -0.481  -6.768   7.832  0.00  0.00    +0.096 A 
ATOM      9  N   UNL     1      -0.391  -5.416   7.974  0.00  0.00    -0.268 N 
ATOM     10  C   UNL     1      -0.319  -4.640   6.871  0.00  0.00    +0.269 A 
ATOM     11  O   UNL     1      -0.336  -5.138   5.760  0.00  0.00    -0.266 OA
ENDROOT
BRANCH   1  13
ATOM     12  C   UNL     1      -1.085  -1.389   5.723  0.00  0.00    +0.114 C 
ATOM     13  C   UNL     1      -0.136  -2.384   5.912  0.00  0.00    +0.042 C 
BRANCH  12  15
ATOM     14  N   UNL     1      -1.964   0.414   4.338  0.00  0.00    -0.281 N 
ATOM     15  C   UNL     1      -1.042  -0.552   4.521  0.00  0.00    +0.259 C 
ATOM     16  O   UNL     1      -0.172  -0.728   3.688  0.00  0.00    -0.269 OA
ATOM     17  H   UNL     1      -2.609   0.607   5.036  0.00  0.00    +0.155 HD
BRANCH  14  23
ATOM     18  C   UNL     1      -0.908   0.707  -0.454  0.00  0.00    +0.044 C 
ATOM     19  C   UNL     1      -1.486   1.304   0.803  0.00  0.00    -0.049 A 
ATOM     20  C   UNL     1      -2.045   2.568   0.774  0.00  0.00    +0.004 A 
ATOM     21  C   UNL     1      -2.576   3.119   1.925  0.00  0.00    +0.005 A 
ATOM     22  C   UNL     1      -2.551   2.408   3.109  0.00  0.00    -0.029 A 
ATOM     23  C   UNL     1      -1.991   1.137   3.141  0.00  0.00    +0.037 A 
ATOM     24  C   UNL     1      -1.463   0.585   1.982  0.00  0.00    +0.027 A 
ATOM     25  C   UNL     1      -3.130   3.009   4.364  0.00  0.00    +0.045 C 
ENDBRANCH  14  23
ENDBRANCH  12  15
BRANCH  12  26
ATOM     26  C   UNL     1      -2.109  -1.182   6.704  0.00  0.00    +0.104 C 
ATOM     27  N   UNL     1      -2.920  -1.017   7.481  0.00  0.00    -0.191 NA
ENDBRANCH  12  26
ENDBRANCH   1  13
BRANCH   2  28
ATOM     28  O   UNL     1      -0.119  -1.371   8.542  0.00  0.00    -0.436 OA
BRANCH  28  29
ATOM     29  C   UNL     1      -0.003  -0.921   9.820  0.00  0.00    +0.149 A 
ATOM     30  C   UNL     1      -1.137  -0.576  10.540  0.00  0.00    +0.049 A 
ATOM     31  C   UNL     1      -1.018  -0.119  11.838  0.00  0.00    +0.023 A 
ATOM     32  C   UNL     1       0.233  -0.005  12.421  0.00  0.00    +0.043 A 
ATOM     33  C   UNL     1       1.365  -0.349  11.705  0.00  0.00    +0.043 A 
ATOM     34  C   UNL     1       1.250  -0.812  10.408  0.00  0.00    +0.085 A 
ATOM     35 CL   UNL     1       2.671  -1.251   9.512  0.00  0.00    -0.080 Cl
ATOM     36 CL   UNL     1       0.379   0.570  14.052  0.00  0.00    -0.083 Cl
ENDBRANCH  28  29
ENDBRANCH   2  28
TORSDOF 6
