REMARK  Name = ZINC58467359
REMARK  11 active torsions:
REMARK  status: ('A' for Active; 'I' for Inactive)
REMARK    1  A    between atoms: C_1  and  C_2
REMARK    2  A    between atoms: C_4  and  C_32
REMARK    3  A    between atoms: C_5  and  N_9
REMARK    4  A    between atoms: C_6  and  C_8
REMARK    5  A    between atoms: C_10  and  C_12
REMARK    6  A    between atoms: C_12  and  N_13
REMARK    7  A    between atoms: N_16  and  C_17
REMARK    8  A    between atoms: C_17  and  C_18
REMARK    9  A    between atoms: C_18  and  C_20
REMARK   10  A    between atoms: C_18  and  N_25
REMARK   11  A    between atoms: C_28  and  C_31
REMARK                            x       y       z     vdW  Elec       q    Type
REMARK                         _______ _______ _______ _____ _____    ______ ____
ROOT
ATOM      1  N   UNL     1       0.999  -6.944   2.259  0.00  0.00    -0.291 N 
ATOM      2  C   UNL     1       1.180  -8.267   2.440  0.00  0.00    +0.300 C 
ATOM      3  O   UNL     1       1.117  -9.025   1.491  0.00  0.00    -0.253 OA
ATOM      4  N   UNL     1       1.432  -8.751   3.672  0.00  0.00    -0.301 N 
ATOM      5  H   UNL     1       1.049  -6.340   3.016  0.00  0.00    +0.151 HD
ATOM      6  H   UNL     1       1.483  -8.146   4.429  0.00  0.00    +0.150 HD
ENDROOT
BRANCH   1   7
ATOM      7  C   UNL     1       0.725  -6.418   0.919  0.00  0.00    +0.202 C 
BRANCH   7   9
ATOM      8  N   UNL     1       0.304  -4.218  -0.130  0.00  0.00    -0.284 N 
ATOM      9  C   UNL     1       0.563  -4.922   0.990  0.00  0.00    +0.234 C 
ATOM     10  O   UNL     1       0.666  -4.350   2.055  0.00  0.00    -0.274 OA
ATOM     11  H   UNL     1       0.141  -4.681  -0.966  0.00  0.00    +0.155 HD
BRANCH   8  16
ATOM     12  C   UNL     1       0.162   1.450   0.050  0.00  0.00    +0.044 C 
ATOM     13  C   UNL     1       0.199  -0.055   0.002  0.00  0.00    -0.050 A 
ATOM     14  C   UNL     1       1.060  -0.697  -0.870  0.00  0.00    +0.008 A 
ATOM     15  C   UNL     1       1.097  -2.077  -0.916  0.00  0.00    -0.029 A 
ATOM     16  C   UNL     1       0.269  -2.820  -0.085  0.00  0.00    +0.039 A 
ATOM     17  C   UNL     1      -0.594  -2.173   0.790  0.00  0.00    -0.029 A 
ATOM     18  C   UNL     1      -0.623  -0.793   0.835  0.00  0.00    +0.008 A 
ATOM     19  C   UNL     1      -1.494  -2.976   1.693  0.00  0.00    +0.045 C 
ATOM     20  C   UNL     1       2.034  -2.775  -1.867  0.00  0.00    +0.045 C 
ENDBRANCH   8  16
ENDBRANCH   7   9
ENDBRANCH   1   7
BRANCH   4  21
ATOM     21  C   UNL     1       1.630 -10.189   3.869  0.00  0.00    +0.095 C 
BRANCH  21  22
ATOM     22  C   UNL     1       2.030 -10.455   5.321  0.00  0.00    -0.013 C 
BRANCH  22  23
ATOM     23  N   UNL     1       2.150 -11.903   5.538  0.00  0.00    +0.386 N 
ATOM     24  C   UNL     1       2.614 -12.154   6.908  0.00  0.00    -0.078 C 
ATOM     25  C   UNL     1       2.819 -13.656   7.114  0.00  0.00    -0.015 C 
ATOM     26  C   UNL     1       1.492 -14.384   6.881  0.00  0.00    -0.018 C 
ATOM     27  C   UNL     1       0.980 -14.056   5.476  0.00  0.00    -0.015 C 
ATOM     28  C   UNL     1       0.843 -12.538   5.331  0.00  0.00    -0.078 C 
ATOM     29  C   UNL     1       1.707 -15.894   7.008  0.00  0.00    +0.007 C 
ATOM     30  H   UNL     1       2.817 -12.286   4.884  0.00  0.00    -0.081 HD
ENDBRANCH  22  23
BRANCH  22  31
ATOM     31  C   UNL     1       3.352  -9.792   5.608  0.00  0.00    -0.022 A 
ATOM     32  C   UNL     1       3.599  -8.620   6.242  0.00  0.00    +0.009 A 
ATOM     33  C   UNL     1       4.909  -8.204   6.394  0.00  0.00    +0.008 A 
ATOM     34  C   UNL     1       5.907  -8.980   5.905  0.00  0.00    +0.045 A 
ATOM     35  S   UNL     1       5.000 -10.351   5.208  0.00  0.00    -0.103 S 
ENDBRANCH  22  31
ENDBRANCH  21  22
ENDBRANCH   4  21
TORSDOF 7
