REMARK  Name = ZINC39466603
REMARK  7 active torsions:
REMARK  status: ('A' for Active; 'I' for Inactive)
REMARK    1  A    between atoms: C_1  and  O_2
REMARK    2  A    between atoms: O_2  and  C_3
REMARK    3  A    between atoms: P_12  and  C_31
REMARK    4  A    between atoms: C_20  and  S_21
REMARK    5  A    between atoms: S_21  and  O_24
REMARK    6  A    between atoms: O_24  and  C_25
REMARK    7  A    between atoms: C_31  and  C_32
REMARK                            x       y       z     vdW  Elec       q    Type
REMARK                         _______ _______ _______ _____ _____    ______ ____
ROOT
ATOM      1  C   UNL     1       0.606  -0.607  -1.056  0.00  0.00    +0.144 C 
ATOM      2  C   UNL     1       1.154   0.128  -2.029  0.00  0.00    +0.024 C 
ATOM      3  C   UNL     1       1.807  -0.562  -3.196  0.00  0.00    +0.019 C 
ATOM      4  C   UNL     1       1.850   0.360  -4.408  0.00  0.00    -0.002 C 
ATOM      5  C   UNL     1       0.433   0.676  -4.902  0.00  0.00    -0.020 C 
ATOM      6  C   UNL     1       0.577   1.578  -6.135  0.00  0.00    +0.156 C 
ATOM      7  O   UNL     1      -0.728   1.948  -6.616  0.00  0.00    -0.319 OA
ATOM      8  P   UNL     1      -1.811   0.757  -6.851  0.00  0.00    +0.262 P 
ATOM      9  O   UNL     1      -1.560   0.083  -8.145  0.00  0.00    -0.274 OA
ATOM     10  N   UNL     1      -1.574  -0.296  -5.603  0.00  0.00    -0.291 NA
ATOM     11  N   UNL     1      -0.274  -0.565  -5.229  0.00  0.00    +0.397 N 
ATOM     12  C   UNL     1      -0.366  -1.429  -4.042  0.00  0.00    -0.046 C 
ATOM     13  C   UNL     1       1.012  -1.819  -3.558  0.00  0.00    +0.006 C 
ATOM     14  C   UNL     1       0.849  -2.666  -2.318  0.00  0.00    +0.009 C 
ATOM     15  C   UNL     1       0.668  -2.079  -1.138  0.00  0.00    +0.165 C 
ATOM     16  H   UNL     1      -2.324  -0.712  -5.149  0.00  0.00    +0.111 HD
ATOM     17  H   UNL     1       0.206  -1.043  -5.976  0.00  0.00    -0.055 HD
ENDROOT
BRANCH  15  18
ATOM     18  S   UNL     1       0.496  -3.054   0.320  0.00  0.00    +0.154 S 
ATOM     19  O   UNL     1      -0.580  -2.493   1.059  0.00  0.00    -0.131 OA
ATOM     20  O   UNL     1       0.508  -4.412  -0.096  0.00  0.00    -0.131 OA
BRANCH  18  21
ATOM     21  O   UNL     1       1.752  -2.842   1.153  0.00  0.00    -0.342 OA
BRANCH  21  22
ATOM     22  C   UNL     1       1.799  -1.642   1.788  0.00  0.00    +0.157 A 
ATOM     23  C   UNL     1       2.369  -0.545   1.157  0.00  0.00    +0.048 A 
ATOM     24  C   UNL     1       2.415   0.675   1.805  0.00  0.00    +0.004 A 
ATOM     25  C   UNL     1       1.895   0.803   3.079  0.00  0.00    +0.000 A 
ATOM     26  C   UNL     1       1.327  -0.289   3.710  0.00  0.00    +0.004 A 
ATOM     27  C   UNL     1       1.273  -1.510   3.064  0.00  0.00    +0.048 A 
ENDBRANCH  21  22
ENDBRANCH  18  21
ENDBRANCH  15  18
BRANCH   1  29
ATOM     28  C   UNL     1      -0.017   1.425   0.010  0.00  0.00    +0.277 C 
ATOM     29  O   UNL     1       0.002  -0.004   0.002  0.00  0.00    -0.493 OA
ENDBRANCH   1  29
BRANCH   8  30
ATOM     30  C   UNL     1      -3.506   1.426  -6.807  0.00  0.00    +0.147 C 
BRANCH  30  31
ATOM     31  C   UNL     1      -3.667   2.459  -7.892  0.00  0.00    -0.037 A 
ATOM     32  C   UNL     1      -3.378   3.786  -7.631  0.00  0.00    +0.004 A 
ATOM     33  C   UNL     1      -3.526   4.733  -8.627  0.00  0.00    +0.000 A 
ATOM     34  C   UNL     1      -3.962   4.354  -9.883  0.00  0.00    +0.000 A 
ATOM     35  C   UNL     1      -4.250   3.028 -10.143  0.00  0.00    +0.000 A 
ATOM     36  C   UNL     1      -4.098   2.079  -9.149  0.00  0.00    +0.004 A 
ENDBRANCH  30  31
ENDBRANCH   8  30
TORSDOF 6
