REMARK  Name = ZINC09041451
REMARK  6 active torsions:
REMARK  status: ('A' for Active; 'I' for Inactive)
REMARK    1  A    between atoms: C_1  and  O_2
REMARK    2  A    between atoms: O_2  and  C_3
REMARK    3  A    between atoms: C_8  and  N_9
REMARK    4  A    between atoms: C_10  and  C_12
REMARK    5  A    between atoms: C_15  and  C_28
REMARK    6  A    between atoms: C_28  and  C_29
REMARK                            x       y       z     vdW  Elec       q    Type
REMARK                         _______ _______ _______ _____ _____    ______ ____
ROOT
ATOM      1  C   UNL     1       1.010  -2.894   1.224  0.00  0.00    +0.076 C 
ATOM      2  C   UNL     1       0.631  -4.305   0.723  0.00  0.00    -0.003 C 
ATOM      3  C   UNL     1       1.021  -4.318  -0.772  0.00  0.00    -0.061 C 
ATOM      4  C   UNL     1       1.574  -2.178  -0.011  0.00  0.00    +0.049 C 
ATOM      5  C   UNL     1       1.206  -0.722  -0.021  0.00  0.00    -0.027 A 
ATOM      6  C   UNL     1       0.006  -0.047  -0.017  0.00  0.00    +0.019 A 
ATOM      7  C   UNL     1      -0.011   1.337  -0.031  0.00  0.00    +0.018 A 
ATOM      8  C   UNL     1       1.182   2.039  -0.048  0.00  0.00    +0.017 A 
ATOM      9  C   UNL     1       2.386   1.367  -0.052  0.00  0.00    +0.024 A 
ATOM     10  C   UNL     1       2.411  -0.026  -0.038  0.00  0.00    +0.036 A 
ATOM     11  N   UNL     1       3.485  -0.919  -0.038  0.00  0.00    -0.286 N 
ATOM     12  C   UNL     1       3.078  -2.203  -0.022  0.00  0.00    +0.211 C 
ATOM     13  O   UNL     1       3.786  -3.188  -0.018  0.00  0.00    -0.277 OA
ATOM     14 BR   UNL     1      -1.658   2.266  -0.033  0.00  0.00    -0.050 Br
ATOM     15  H   UNL     1       4.416  -0.647  -0.048  0.00  0.00    +0.155 HD
ATOM     16  N   UNL     1       1.026  -2.901  -1.145  0.00  0.00    +0.394 N 
ATOM     17  H   UNL     1       0.070  -2.582  -1.341  0.00  0.00    -0.083 HD
ATOM     18  H   UNL     1       1.612  -2.755  -1.976  0.00  0.00    -0.083 HD
ENDROOT
BRANCH   1  20
ATOM     19  N   UNL     1      -0.092  -1.266   2.725  0.00  0.00    -0.282 N 
ATOM     20  C   UNL     1      -0.211  -2.174   1.735  0.00  0.00    +0.220 C 
ATOM     21  O   UNL     1      -1.300  -2.411   1.257  0.00  0.00    -0.275 OA
ATOM     22  H   UNL     1       0.786  -1.016   3.051  0.00  0.00    +0.155 HD
BRANCH  19  28
ATOM     23  C   UNL     1      -1.206   0.635   3.727  0.00  0.00    +0.141 A 
ATOM     24  C   UNL     1      -2.344   1.208   4.272  0.00  0.00    +0.049 A 
ATOM     25  C   UNL     1      -3.505   0.467   4.385  0.00  0.00    +0.024 A 
ATOM     26  C   UNL     1      -3.537  -0.846   3.949  0.00  0.00    +0.043 A 
ATOM     27  C   UNL     1      -2.407  -1.423   3.398  0.00  0.00    +0.047 A 
ATOM     28  C   UNL     1      -1.239  -0.684   3.282  0.00  0.00    +0.077 A 
ATOM     29 CL   UNL     1      -4.999  -1.771   4.093  0.00  0.00    -0.083 Cl
BRANCH  23  31
ATOM     30  C   UNL     1      -0.101   2.709   4.097  0.00  0.00    +0.277 C 
ATOM     31  O   UNL     1      -0.061   1.362   3.621  0.00  0.00    -0.493 OA
ENDBRANCH  23  31
ENDBRANCH  19  28
ENDBRANCH   1  20
BRANCH   3  32
ATOM     32  C   UNL     1      -0.007  -5.106  -1.586  0.00  0.00    +0.080 C 
BRANCH  32  33
ATOM     33  C   UNL     1       0.417  -5.143  -3.031  0.00  0.00    +0.209 C 
ATOM     34  O   UNL     1       1.441  -4.592  -3.377  0.00  0.00    -0.276 OA
ATOM     35  N   UNL     1      -0.341  -5.787  -3.941  0.00  0.00    -0.329 N 
ATOM     36  H   UNL     1      -1.159  -6.228  -3.664  0.00  0.00    +0.145 HD
ATOM     37  H   UNL     1      -0.067  -5.811  -4.871  0.00  0.00    +0.145 HD
ENDBRANCH  32  33
ENDBRANCH   3  32
TORSDOF 5
