REMARK  Name = ZINC17756786
REMARK  7 active torsions:
REMARK  status: ('A' for Active; 'I' for Inactive)
REMARK    1  A    between atoms: C_1  and  C_2
REMARK    2  A    between atoms: C_2  and  C_4
REMARK    3  A    between atoms: C_2  and  O_17
REMARK    4  A    between atoms: N_6  and  C_7
REMARK    5  A    between atoms: C_9  and  N_14
REMARK    6  A    between atoms: O_17  and  C_18
REMARK    7  A    between atoms: C_18  and  C_20
REMARK                            x       y       z     vdW  Elec       q    Type
REMARK                         _______ _______ _______ _____ _____    ______ ____
ROOT
ATOM      1  C   UNL     1       2.294  -0.299   1.117  0.00  0.00    +0.062 C 
ATOM      2  C   UNL     1       1.449  -0.646  -0.110  0.00  0.00    +0.259 C 
ENDROOT
BRANCH   2   3
ATOM      3  C   UNL     1       0.093   0.000   0.014  0.00  0.00    +0.258 C 
ATOM      4  O   UNL     1      -0.900  -0.689   0.119  0.00  0.00    -0.271 OA
ATOM      5  N   UNL     1      -0.016   1.344   0.009  0.00  0.00    -0.281 N 
ATOM      6  H   UNL     1       0.782   1.895  -0.008  0.00  0.00    +0.155 HD
BRANCH   5   7
ATOM      7  C   UNL     1      -1.281   1.943   0.024  0.00  0.00    +0.054 A 
ATOM      8  C   UNL     1      -2.323   1.353   0.726  0.00  0.00    +0.057 A 
ATOM      9  C   UNL     1      -3.570   1.946   0.738  0.00  0.00    +0.128 A 
ATOM     10  C   UNL     1      -3.782   3.128   0.052  0.00  0.00    +0.034 A 
ATOM     11  C   UNL     1      -2.747   3.719  -0.649  0.00  0.00    +0.024 A 
ATOM     12  C   UNL     1      -1.495   3.133  -0.661  0.00  0.00    +0.062 A 
ATOM     13 CL   UNL     1      -0.194   3.880  -1.535  0.00  0.00    -0.082 Cl
BRANCH   9  14
ATOM     14  N   UNL     1      -4.681   1.318   1.488  0.00  0.00    +0.056 N 
ATOM     15  O   UNL     1      -4.495   0.277   2.093  0.00  0.00    -0.126 OA
ATOM     16  O   UNL     1      -5.781   1.841   1.499  0.00  0.00    -0.126 OA
ENDBRANCH   9  14
ENDBRANCH   5   7
ENDBRANCH   2   3
BRANCH   2  17
ATOM     17  O   UNL     1       1.292  -2.087  -0.198  0.00  0.00    -0.449 OA
BRANCH  17  18
ATOM     18  C   UNL     1       2.222  -2.762  -0.902  0.00  0.00    +0.340 C 
ATOM     19  O   UNL     1       3.139  -2.163  -1.428  0.00  0.00    -0.245 OA
BRANCH  18  20
ATOM     20  C   UNL     1       2.127  -4.228  -1.034  0.00  0.00    +0.064 A 
ATOM     21  C   UNL     1       3.088  -4.928  -1.769  0.00  0.00    +0.064 A 
ATOM     22  C   UNL     1       2.993  -6.301  -1.884  0.00  0.00    +0.164 A 
ATOM     23  C   UNL     1       1.942  -6.982  -1.281  0.00  0.00    +0.180 A 
ATOM     24  C   UNL     1       0.983  -6.289  -0.554  0.00  0.00    +0.087 A 
ATOM     25  C   UNL     1       1.072  -4.918  -0.430  0.00  0.00    +0.039 A 
ATOM     26 CL   UNL     1      -0.327  -7.146   0.197  0.00  0.00    -0.080 Cl
ATOM     27  O   UNL     1       1.858  -8.337  -1.407  0.00  0.00    -0.487 OA
ATOM     28  C   UNL     1       2.869  -9.091  -0.738  0.00  0.00    +0.232 C 
ATOM     29  C   UNL     1       4.118  -9.203  -1.598  0.00  0.00    +0.082 C 
ATOM     30  C   UNL     1       4.780  -7.854  -1.834  0.00  0.00    +0.232 C 
ATOM     31  O   UNL     1       3.928  -6.997  -2.595  0.00  0.00    -0.488 OA
ENDBRANCH  18  20
ENDBRANCH  17  18
ENDBRANCH   2  17
TORSDOF 6
