REMARK  Name = ZINC08849598
REMARK  9 active torsions:
REMARK  status: ('A' for Active; 'I' for Inactive)
REMARK    1  A    between atoms: C_1  and  C_2
REMARK    2  A    between atoms: C_7  and  N_12
REMARK    3  A    between atoms: C_9  and  C_11
REMARK    4  A    between atoms: C_13  and  C_15
REMARK    5  A    between atoms: C_15  and  S_16
REMARK    6  A    between atoms: S_16  and  C_17
REMARK    7  A    between atoms: C_20  and  C_32
REMARK    8  A    between atoms: N_21  and  C_22
REMARK    9  A    between atoms: C_22  and  C_23
REMARK                            x       y       z     vdW  Elec       q    Type
REMARK                         _______ _______ _______ _____ _____    ______ ____
ROOT
ATOM      1  C   UNL     1       1.127   7.732  -2.661  0.00  0.00    +0.193 A 
ATOM      2  N   UNL     1       0.787   8.171  -1.469  0.00  0.00    -0.122 NA
ATOM      3  N   UNL     1       0.874   9.453  -1.430  0.00  0.00    -0.128 NA
ATOM      4  C   UNL     1       1.273   9.911  -2.594  0.00  0.00    +0.165 A 
ATOM      5  N   UNL     1       1.452   8.822  -3.416  0.00  0.00    -0.298 N 
ENDROOT
BRANCH   4   6
ATOM      6  C   UNL     1       1.493  11.328  -2.951  0.00  0.00    +0.019 A 
ATOM      7  C   UNL     1       1.231  11.772  -4.248  0.00  0.00    +0.011 A 
ATOM      8  C   UNL     1       1.434  13.097  -4.575  0.00  0.00    +0.001 A 
ATOM      9  C   UNL     1       1.906  13.983  -3.622  0.00  0.00    +0.000 A 
ATOM     10  C   UNL     1       2.172  13.548  -2.336  0.00  0.00    +0.001 A 
ATOM     11  C   UNL     1       1.969  12.227  -1.995  0.00  0.00    +0.011 A 
ENDBRANCH   4   6
BRANCH   1  12
ATOM     12  S   UNL     1       1.162   6.050  -3.184  0.00  0.00    -0.077 S 
BRANCH  12  13
ATOM     13  C   UNL     1       0.622   5.236  -1.660  0.00  0.00    +0.173 C 
BRANCH  13  15
ATOM     14  N   UNL     1       0.199   2.929  -0.872  0.00  0.00    -0.312 N 
ATOM     15  C   UNL     1       0.576   3.745  -1.876  0.00  0.00    +0.224 C 
ATOM     16  O   UNL     1       0.878   3.279  -2.954  0.00  0.00    -0.275 OA
ATOM     17  H   UNL     1      -0.043   3.302  -0.009  0.00  0.00    +0.149 HD
BRANCH  14  23
ATOM     18  C   UNL     1       1.405  -1.163  -0.901  0.00  0.00    +0.008 C 
ATOM     19  C   UNL     1       0.273  -0.749   0.041  0.00  0.00    -0.009 C 
ATOM     20  C   UNL     1      -1.072  -1.133  -0.580  0.00  0.00    +0.003 C 
ATOM     21  C   UNL     1      -1.237  -0.417  -1.922  0.00  0.00    +0.002 C 
ATOM     22  C   UNL     1      -1.191   1.096  -1.702  0.00  0.00    +0.022 C 
ATOM     23  C   UNL     1       0.154   1.480  -1.082  0.00  0.00    +0.076 C 
ATOM     24  C   UNL     1       0.320   0.765   0.260  0.00  0.00    +0.009 C 
ATOM     25  C   UNL     1       1.665   1.149   0.881  0.00  0.00    +0.009 C 
ENDBRANCH  14  23
ENDBRANCH  13  15
ENDBRANCH  12  13
ENDBRANCH   1  12
BRANCH   5  26
ATOM     26  C   UNL     1       1.898   8.831  -4.811  0.00  0.00    +0.161 C 
BRANCH  26  27
ATOM     27  C   UNL     1       3.403   8.882  -4.858  0.00  0.00    -0.024 A 
ATOM     28  C   UNL     1       4.050  10.099  -4.959  0.00  0.00    +0.009 A 
ATOM     29  C   UNL     1       5.431  10.151  -4.998  0.00  0.00    +0.050 A 
ATOM     30  C   UNL     1       6.170   8.981  -4.944  0.00  0.00    +0.166 A 
ATOM     31  C   UNL     1       5.519   7.754  -4.848  0.00  0.00    +0.167 A 
ATOM     32  C   UNL     1       4.135   7.710  -4.804  0.00  0.00    +0.055 A 
ATOM     33  O   UNL     1       6.457   6.763  -4.812  0.00  0.00    -0.453 OA
ATOM     34  C   UNL     1       7.695   7.418  -4.477  0.00  0.00    +0.466 C 
ATOM     35  O   UNL     1       7.517   8.759  -4.970  0.00  0.00    -0.453 OA
ENDBRANCH  26  27
ENDBRANCH   5  26
TORSDOF 7
