REMARK  Name = ZINC41079961
REMARK  3 active torsions:
REMARK  status: ('A' for Active; 'I' for Inactive)
REMARK    1  A    between atoms: C_3  and  N_11
REMARK    2  A    between atoms: C_4  and  C_8
REMARK    3  A    between atoms: C_6  and  N_7
REMARK                            x       y       z     vdW  Elec       q    Type
REMARK                         _______ _______ _______ _____ _____    ______ ____
ROOT
ATOM      1  C   UNL     1      -0.017   1.387   0.010  0.00  0.00    +0.024 A 
ATOM      2  C   UNL     1       1.164   2.100   0.002  0.00  0.00    +0.026 A 
ATOM      3  C   UNL     1       2.382   1.433  -0.013  0.00  0.00    +0.042 A 
ATOM      4  C   UNL     1       2.408   0.030  -0.021  0.00  0.00    +0.059 A 
ATOM      5  C   UNL     1       1.207  -0.684  -0.013  0.00  0.00    +0.037 A 
ATOM      6  C   UNL     1       0.002  -0.004   0.002  0.00  0.00    +0.025 A 
ENDROOT
BRANCH   3   7
ATOM      7  N   UNL     1       3.572   2.153  -0.021  0.00  0.00    -0.325 N 
ATOM      8  C   UNL     1       4.195   2.551  -1.292  0.00  0.00    +0.110 C 
ATOM      9  C   UNL     1       4.178   4.085  -1.379  0.00  0.00    +0.061 C 
ATOM     10  C   UNL     1       4.574   4.644  -0.051  0.00  0.00    -0.004 A 
ATOM     11  C   UNL     1       4.609   4.003   1.149  0.00  0.00    -0.020 A 
ATOM     12  C   UNL     1       5.010   4.758   2.250  0.00  0.00    +0.013 A 
ATOM     13  C   UNL     1       5.345   6.059   2.092  0.00  0.00    +0.046 A 
ATOM     14  S   UNL     1       5.105   6.291   0.337  0.00  0.00    -0.101 S 
ATOM     15  C   UNL     1       4.222   2.533   1.241  0.00  0.00    +0.141 C 
ENDBRANCH   3   7
BRANCH   4  16
ATOM     16  C   UNL     1       3.697  -0.687  -0.037  0.00  0.00    +0.243 C 
ATOM     17  O   UNL     1       4.740  -0.062  -0.044  0.00  0.00    -0.270 OA
ATOM     18  N   UNL     1       3.718  -2.034  -0.045  0.00  0.00    -0.325 N 
ATOM     19  H   UNL     1       2.886  -2.533  -0.039  0.00  0.00    +0.145 HD
ATOM     20  H   UNL     1       4.565  -2.506  -0.056  0.00  0.00    +0.145 HD
ENDBRANCH   4  16
BRANCH   6  21
ATOM     21  N   UNL     1      -1.202  -0.719   0.010  0.00  0.00    -0.358 N 
ATOM     22  H   UNL     1      -2.048  -0.243   0.021  0.00  0.00    +0.142 HD
ATOM     23  H   UNL     1      -1.191  -1.688   0.005  0.00  0.00    +0.142 HD
ENDBRANCH   6  21
TORSDOF 3
