REMARK  Name = ZINC39896815
REMARK  8 active torsions:
REMARK  status: ('A' for Active; 'I' for Inactive)
REMARK    1  A    between atoms: C_1  and  C_2
REMARK    2  A    between atoms: C_2  and  C_3
REMARK    3  A    between atoms: C_6  and  N_9
REMARK    4  A    between atoms: C_12  and  C_28
REMARK    5  A    between atoms: C_16  and  C_17
REMARK    6  A    between atoms: C_16  and  C_19
REMARK    7  A    between atoms: N_21  and  C_22
REMARK    8  A    between atoms: C_28  and  C_29
REMARK                            x       y       z     vdW  Elec       q    Type
REMARK                         _______ _______ _______ _____ _____    ______ ____
ROOT
ATOM      1  N   UNL     1       2.429  -1.053  -4.964  0.00  0.00    -0.232 N 
ATOM      2  C   UNL     1       1.865  -0.808  -6.134  0.00  0.00    +0.238 C 
ATOM      3  O   UNL     1       0.758  -0.322  -6.228  0.00  0.00    -0.274 OA
ATOM      4  C   UNL     1       2.693  -1.175  -7.356  0.00  0.00    +0.143 C 
ATOM      5  S   UNL     1       4.204  -1.837  -6.539  0.00  0.00    -0.095 S 
ATOM      6  C   UNL     1       3.684  -1.598  -4.847  0.00  0.00    +0.098 C 
ATOM      7  C   UNL     1       4.388  -1.897  -3.679  0.00  0.00    +0.142 C 
ENDROOT
BRANCH   1  11
ATOM      8  C   UNL     1       0.322  -0.117  -1.492  0.00  0.00    -0.048 A 
ATOM      9  C   UNL     1       0.530  -1.440  -1.837  0.00  0.00    +0.005 A 
ATOM     10  C   UNL     1       1.228  -1.753  -2.987  0.00  0.00    +0.024 A 
ATOM     11  C   UNL     1       1.720  -0.738  -3.797  0.00  0.00    +0.042 A 
ATOM     12  C   UNL     1       1.510   0.589  -3.447  0.00  0.00    +0.024 A 
ATOM     13  C   UNL     1       0.807   0.896  -2.299  0.00  0.00    +0.005 A 
BRANCH   8  15
ATOM     14  C   UNL     1      -1.914   0.443  -0.578  0.00  0.00    +0.009 C 
ATOM     15  C   UNL     1      -0.439   0.221  -0.236  0.00  0.00    +0.032 C 
ENDBRANCH   8  15
ENDBRANCH   1  11
BRANCH   7  16
ATOM     16  C   UNL     1       3.856  -1.489  -2.380  0.00  0.00    +0.261 C 
ATOM     17  O   UNL     1       3.287  -2.301  -1.673  0.00  0.00    -0.269 OA
ATOM     18  N   UNL     1       3.995  -0.214  -1.965  0.00  0.00    -0.281 N 
ATOM     19  H   UNL     1       4.387   0.448  -2.556  0.00  0.00    +0.155 HD
BRANCH  18  20
ATOM     20  C   UNL     1       3.576   0.153  -0.682  0.00  0.00    +0.034 A 
ATOM     21  C   UNL     1       3.611  -0.772   0.353  0.00  0.00    +0.023 A 
ATOM     22  C   UNL     1       3.196  -0.405   1.619  0.00  0.00    +0.002 A 
ATOM     23  C   UNL     1       2.748   0.881   1.855  0.00  0.00    +0.000 A 
ATOM     24  C   UNL     1       2.712   1.804   0.827  0.00  0.00    +0.002 A 
ATOM     25  C   UNL     1       3.130   1.446  -0.440  0.00  0.00    +0.023 A 
ENDBRANCH  18  20
ENDBRANCH   7  16
BRANCH   7  26
ATOM     26  C   UNL     1       5.631  -2.604  -3.754  0.00  0.00    +0.107 C 
ATOM     27  N   UNL     1       6.617  -3.165  -3.813  0.00  0.00    -0.191 NA
ENDBRANCH   7  26
BRANCH   4  28
ATOM     28  C   UNL     1       1.998  -2.250  -8.194  0.00  0.00    +0.059 C 
BRANCH  28  29
ATOM     29  C   UNL     1       2.789  -2.495  -9.453  0.00  0.00    -0.046 A 
ATOM     30  C   UNL     1       2.523  -1.756 -10.591  0.00  0.00    +0.004 A 
ATOM     31  C   UNL     1       3.249  -1.980 -11.746  0.00  0.00    +0.000 A 
ATOM     32  C   UNL     1       4.241  -2.943 -11.763  0.00  0.00    +0.000 A 
ATOM     33  C   UNL     1       4.508  -3.681 -10.625  0.00  0.00    +0.000 A 
ATOM     34  C   UNL     1       3.785  -3.454  -9.469  0.00  0.00    +0.004 A 
ENDBRANCH  28  29
ENDBRANCH   4  28
TORSDOF 7
