REMARK  Name = ZINC32594561
REMARK  3 active torsions:
REMARK  status: ('A' for Active; 'I' for Inactive)
REMARK    1  A    between atoms: C_18  and  C_22
REMARK    2  A    between atoms: C_22  and  C_23
REMARK    3  A    between atoms: N_25  and  C_26
REMARK                            x       y       z     vdW  Elec       q    Type
REMARK                         _______ _______ _______ _____ _____    ______ ____
ROOT
ATOM      1  C   UNL     1       4.991   3.310  -1.368  0.00  0.00    +0.001 A 
ATOM      2  C   UNL     1       5.104   4.554  -1.961  0.00  0.00    +0.004 A 
ATOM      3  C   UNL     1       4.045   5.438  -1.917  0.00  0.00    +0.046 A 
ATOM      4  C   UNL     1       2.860   5.084  -1.280  0.00  0.00    +0.135 A 
ATOM      5  C   UNL     1       2.754   3.837  -0.680  0.00  0.00    +0.004 A 
ATOM      6  C   UNL     1       3.819   2.955  -0.730  0.00  0.00    +0.008 A 
ATOM      7  C   UNL     1       1.494   3.436   0.025  0.00  0.00    +0.080 C 
ATOM      8  C   UNL     1       1.211   1.982  -0.008  0.00  0.00    +0.033 A 
ATOM      9  C   UNL     1       0.005   1.369  -0.001  0.00  0.00    +0.087 A 
ATOM     10  N   UNL     1       0.032  -0.006  -0.013  0.00  0.00    -0.311 N 
ATOM     11  H   UNL     1      -0.909  -0.575   0.002  0.00  0.00    +0.170 HD
ATOM     12  C   UNL     1       1.207  -0.666  -0.043  0.00  0.00    +0.289 A 
ATOM     13  O   UNL     1       1.409  -1.868  -0.064  0.00  0.00    -0.260 OA
ATOM     14  S   UNL     1       2.360   0.631  -0.046  0.00  0.00    -0.030 S 
ATOM     15  S   UNL     1      -1.504   2.316   0.003  0.00  0.00    -0.106 S 
ATOM     16  C   UNL     1      -0.911   4.008   0.325  0.00  0.00    +0.095 C 
ATOM     17  C   UNL     1       0.324   4.239  -0.544  0.00  0.00    +0.097 C 
ATOM     18  C   UNL     1       0.736   5.689  -0.553  0.00  0.00    +0.321 C 
ATOM     19  O   UNL     1       0.120   6.540   0.044  0.00  0.00    -0.250 OA
ATOM     20  O   UNL     1       1.838   5.982  -1.277  0.00  0.00    -0.425 OA
ENDROOT
BRANCH  17  21
ATOM     21  C   UNL     1       0.033   3.773  -1.972  0.00  0.00    +0.116 C 
BRANCH  21  22
ATOM     22  C   UNL     1      -1.121   4.565  -2.533  0.00  0.00    +0.218 C 
ATOM     23  O   UNL     1      -1.657   5.417  -1.857  0.00  0.00    -0.275 OA
ATOM     24  N   UNL     1      -1.556   4.325  -3.786  0.00  0.00    -0.285 N 
ATOM     25  H   UNL     1      -1.022   3.607  -4.426  0.00  0.00    +0.155 HD
BRANCH  24  26
ATOM     26  C   UNL     1      -2.687   4.991  -4.273  0.00  0.00    +0.034 A 
ATOM     27  C   UNL     1      -3.556   4.342  -5.141  0.00  0.00    +0.026 A 
ATOM     28  C   UNL     1      -4.674   4.998  -5.616  0.00  0.00    +0.040 A 
ATOM     29  C   UNL     1      -4.924   6.306  -5.237  0.00  0.00    +0.124 A 
ATOM     30  C   UNL     1      -4.056   6.957  -4.376  0.00  0.00    +0.040 A 
ATOM     31  C   UNL     1      -2.939   6.303  -3.894  0.00  0.00    +0.026 A 
ATOM     32  F   UNL     1      -6.016   6.948  -5.707  0.00  0.00    -0.205 F 
ENDBRANCH  24  26
ENDBRANCH  21  22
ENDBRANCH  17  21
TORSDOF 3
