REMARK  Name = ZINC40003285
REMARK  10 active torsions:
REMARK  status: ('A' for Active; 'I' for Inactive)
REMARK    1  A    between atoms: C_1  and  C_2
REMARK    2  A    between atoms: C_2  and  O_3
REMARK    3  A    between atoms: O_3  and  C_4
REMARK    4  A    between atoms: C_7  and  C_12
REMARK    5  A    between atoms: C_9  and  O_10
REMARK    6  A    between atoms: O_10  and  C_11
REMARK    7  A    between atoms: C_14  and  C_25
REMARK    8  A    between atoms: C_25  and  C_27
REMARK    9  A    between atoms: C_28  and  C_37
REMARK   10  A    between atoms: C_35  and  C_36
REMARK                            x       y       z     vdW  Elec       q    Type
REMARK                         _______ _______ _______ _____ _____    ______ ____
ROOT
ATOM      1  C   UNL     1      -1.062  -6.399   0.723  0.00  0.00    +0.152 C 
ATOM      2  C   UNL     1      -1.101  -6.873   2.157  0.00  0.00    +0.078 C 
ATOM      3  C   UNL     1      -0.113  -7.788   2.291  0.00  0.00    +0.250 C 
ATOM      4  C   UNL     1       0.584  -7.944   1.002  0.00  0.00    +0.293 C 
ATOM      5  O   UNL     1       1.520  -8.693   0.801  0.00  0.00    -0.266 OA
ATOM      6  N   UNL     1       0.033  -7.133   0.079  0.00  0.00    -0.232 N 
ATOM      7  C   UNL     1       0.429  -7.013  -1.246  0.00  0.00    +0.168 A 
ATOM      8  N   UNL     1      -0.071  -6.234  -2.182  0.00  0.00    -0.233 NA
ATOM      9  C   UNL     1       0.422  -6.236  -3.406  0.00  0.00    +0.120 A 
ATOM     10  C   UNL     1       1.461  -7.072  -3.651  0.00  0.00    +0.068 A 
ATOM     11  S   UNL     1       1.671  -7.821  -2.044  0.00  0.00    -0.060 S 
ATOM     12  O   UNL     1       0.187  -8.456   3.431  0.00  0.00    -0.282 OA
ENDROOT
BRANCH   1  16
ATOM     13  C   UNL     1      -0.290  -2.195   0.587  0.00  0.00    +0.162 A 
ATOM     14  C   UNL     1       0.723  -3.078   0.924  0.00  0.00    +0.050 A 
ATOM     15  C   UNL     1       0.470  -4.436   0.968  0.00  0.00    +0.009 A 
ATOM     16  C   UNL     1      -0.792  -4.917   0.675  0.00  0.00    -0.018 A 
ATOM     17  C   UNL     1      -1.807  -4.041   0.337  0.00  0.00    +0.055 A 
ATOM     18  C   UNL     1      -1.562  -2.678   0.297  0.00  0.00    +0.162 A 
BRANCH  18  19
ATOM     19  O   UNL     1      -2.561  -1.815  -0.029  0.00  0.00    -0.491 OA
ATOM     20  C   UNL     1      -3.861  -2.373  -0.228  0.00  0.00    +0.277 C 
ENDBRANCH  18  19
BRANCH  13  21
ATOM     21  O   UNL     1      -0.043  -0.858   0.544  0.00  0.00    -0.489 OA
BRANCH  21  23
ATOM     22  C   UNL     1       1.371   1.091   0.754  0.00  0.00    +0.048 C 
ATOM     23  C   UNL     1       1.286  -0.434   0.853  0.00  0.00    +0.226 C 
ENDBRANCH  21  23
ENDBRANCH  13  21
ENDBRANCH   1  16
BRANCH   2  24
ATOM     24  C   UNL     1      -2.030  -6.428   3.202  0.00  0.00    +0.213 C 
ATOM     25  O   UNL     1      -1.824  -5.382   3.795  0.00  0.00    -0.285 OA
BRANCH  24  26
ATOM     26  C   UNL     1      -3.166  -7.212   3.522  0.00  0.00    +0.116 A 
ATOM     27  C   UNL     1      -3.579  -8.376   2.887  0.00  0.00    +0.068 A 
ATOM     28  N   UNL     1      -4.679  -8.803   3.482  0.00  0.00    -0.232 NA
ATOM     29  C   UNL     1      -5.007  -7.975   4.475  0.00  0.00    +0.141 A 
ATOM     30  N   UNL     1      -4.080  -6.974   4.533  0.00  0.00    -0.296 N 
ATOM     31  C   UNL     1      -4.176  -5.992   5.468  0.00  0.00    +0.093 A 
ATOM     32  C   UNL     1      -5.191  -5.990   6.363  0.00  0.00    +0.018 A 
ATOM     33  C   UNL     1      -6.157  -7.005   6.334  0.00  0.00    +0.008 A 
ATOM     34  C   UNL     1      -6.072  -7.989   5.393  0.00  0.00    -0.008 A 
ATOM     35  C   UNL     1      -7.100  -9.089   5.348  0.00  0.00    +0.047 C 
ATOM     36  C   UNL     1      -2.892  -9.038   1.721  0.00  0.00    +0.068 C 
ENDBRANCH  24  26
ENDBRANCH   2  24
TORSDOF 6
