REMARK  Name = ZINC34786474
REMARK  9 active torsions:
REMARK  status: ('A' for Active; 'I' for Inactive)
REMARK    1  A    between atoms: C_1  and  C_2
REMARK    2  A    between atoms: C_2  and  N_3
REMARK    3  A    between atoms: N_3  and  C_4
REMARK    4  A    between atoms: N_3  and  N_6
REMARK    5  A    between atoms: C_4  and  C_5
REMARK    6  A    between atoms: N_6  and  N_27
REMARK    7  A    between atoms: C_17  and  C_22
REMARK    8  A    between atoms: C_19  and  C_21
REMARK    9  A    between atoms: N_27  and  C_28
REMARK                            x       y       z     vdW  Elec       q    Type
REMARK                         _______ _______ _______ _____ _____    ______ ____
ROOT
ATOM      1  N   UNL     1      -0.014  -0.080  -2.505  0.00  0.00    -0.178 N 
ATOM      2  C   UNL     1       0.686   0.808  -3.300  0.00  0.00    +0.164 A 
ATOM      3  C   UNL     1       0.105   1.316  -4.497  0.00  0.00    +0.054 A 
ATOM      4  C   UNL     1      -1.212   1.028  -5.069  0.00  0.00    -0.025 A 
ATOM      5  C   UNL     1      -1.524   1.645  -6.226  0.00  0.00    -0.004 A 
ATOM      6  S   UNL     1      -0.107   2.634  -6.620  0.00  0.00    -0.073 S 
ATOM      7  C   UNL     1       0.908   2.214  -5.227  0.00  0.00    +0.116 A 
ATOM      8  N   UNL     1       2.115   2.553  -4.817  0.00  0.00    -0.203 NA
ATOM      9  C   UNL     1       2.604   2.049  -3.695  0.00  0.00    +0.254 A 
ATOM     10  N   UNL     1       1.900   1.201  -2.956  0.00  0.00    -0.192 NA
ATOM     11  N   UNL     1       3.883   2.419  -3.279  0.00  0.00    -0.202 N 
ATOM     12  C   UNL     1       4.716   3.280  -3.922  0.00  0.00    +0.045 A 
ATOM     13  C   UNL     1       5.854   3.367  -3.195  0.00  0.00    +0.048 A 
ATOM     14  C   UNL     1       5.716   2.538  -2.076  0.00  0.00    +0.061 A 
ATOM     15  N   UNL     1       4.536   1.975  -2.122  0.00  0.00    -0.169 NA
ATOM     16  C   UNL     1       6.749   2.333  -0.998  0.00  0.00    +0.067 C 
ATOM     17  C   UNL     1       4.425   4.004  -5.211  0.00  0.00    +0.066 C 
ATOM     18  C   UNL     1      -2.796   1.518  -7.008  0.00  0.00    +0.043 C 
ATOM     19  C   UNL     1      -3.561   0.290  -6.494  0.00  0.00    +0.005 C 
ATOM     20  C   UNL     1      -3.597   0.340  -4.963  0.00  0.00    +0.005 C 
ATOM     21  C   UNL     1      -2.200   0.075  -4.402  0.00  0.00    +0.037 C 
ENDROOT
BRANCH   1  22
ATOM     22  N   UNL     1      -0.663  -1.140  -3.072  0.00  0.00    -0.221 NA
ATOM     23  H   UNL     1      -1.476  -1.397  -2.533  0.00  0.00    +0.146 HD
BRANCH  22  24
ATOM     24  C   UNL     1       0.242  -2.284  -3.239  0.00  0.00    +0.074 C 
ATOM     25  C   UNL     1       1.013  -2.138  -4.552  0.00  0.00    +0.020 C 
ATOM     26  C   UNL     1       1.957  -3.330  -4.726  0.00  0.00    +0.002 C 
ATOM     27  C   UNL     1       1.142  -4.625  -4.754  0.00  0.00    +0.000 C 
ATOM     28  C   UNL     1       0.371  -4.771  -3.441  0.00  0.00    +0.002 C 
ATOM     29  C   UNL     1      -0.572  -3.579  -3.267  0.00  0.00    +0.020 C 
ENDBRANCH  22  24
ENDBRANCH   1  22
BRANCH   1  30
ATOM     30  N   UNL     1      -0.057   0.101  -1.152  0.00  0.00    -0.211 NA
BRANCH  30  32
ATOM     31  C   UNL     1      -1.942   1.657  -1.292  0.00  0.00    +0.022 C 
ATOM     32  C   UNL     1      -1.432   0.344  -0.696  0.00  0.00    +0.104 C 
ENDBRANCH  30  32
BRANCH  30  33
ATOM     33  C   UNL     1       0.537  -1.044  -0.448  0.00  0.00    +0.104 C 
ATOM     34  C   UNL     1       2.028  -1.128  -0.778  0.00  0.00    +0.022 C 
ENDBRANCH  30  33
ENDBRANCH   1  30
TORSDOF 5
