REMARK  Name = ZINC35033528
REMARK  11 active torsions:
REMARK  status: ('A' for Active; 'I' for Inactive)
REMARK    1  A    between atoms: C_1  and  C_2
REMARK    2  A    between atoms: C_2  and  N_3
REMARK    3  A    between atoms: C_13  and  C_14
REMARK    4  A    between atoms: C_14  and  C_16
REMARK    5  A    between atoms: C_14  and  N_17
REMARK    6  A    between atoms: N_17  and  C_18
REMARK    7  A    between atoms: C_18  and  C_19
REMARK    8  A    between atoms: C_19  and  N_20
REMARK    9  A    between atoms: N_20  and  C_21
REMARK   10  A    between atoms: N_20  and  C_22
REMARK   11  A    between atoms: C_23  and  C_25
REMARK                            x       y       z     vdW  Elec       q    Type
REMARK                         _______ _______ _______ _____ _____    ______ ____
ROOT
ATOM      1  N   UNL     1       4.462  -0.606  -0.621  0.00  0.00    -0.289 N 
ATOM      2  C   UNL     1       5.497   0.072  -0.087  0.00  0.00    +0.249 C 
ATOM      3  O   UNL     1       5.301   1.120   0.496  0.00  0.00    -0.270 OA
ENDROOT
BRANCH   2   4
ATOM      4  C   UNL     1       6.870  -0.459  -0.212  0.00  0.00    +0.055 A 
ATOM      5  C   UNL     1       7.085  -1.734  -0.740  0.00  0.00    +0.016 A 
ATOM      6  C   UNL     1       8.368  -2.223  -0.853  0.00  0.00    +0.021 A 
ATOM      7  C   UNL     1       9.445  -1.454  -0.445  0.00  0.00    +0.042 A 
ATOM      8  C   UNL     1       9.241  -0.189   0.080  0.00  0.00    +0.040 A 
ATOM      9  C   UNL     1       7.961   0.316   0.193  0.00  0.00    +0.054 A 
ATOM     10 CL   UNL     1       7.706   1.905   0.844  0.00  0.00    -0.083 Cl
ATOM     11 CL   UNL     1      11.059  -2.079  -0.591  0.00  0.00    -0.083 Cl
ENDBRANCH   2   4
BRANCH   1  12
ATOM     12  C   UNL     1       3.170   0.058  -0.808  0.00  0.00    +0.139 C 
ATOM     13  C   UNL     1       2.114  -0.625   0.063  0.00  0.00    +0.036 C 
BRANCH  12  24
ATOM     14  N   UNL     1       2.681   1.113  -2.978  0.00  0.00    -0.295 N 
ATOM     15  C   UNL     1       2.325   1.084  -4.283  0.00  0.00    +0.262 A 
ATOM     16  O   UNL     1       2.253   2.104  -4.943  0.00  0.00    -0.267 OA
ATOM     17  C   UNL     1       2.028  -0.229  -4.874  0.00  0.00    +0.065 A 
ATOM     18  C   UNL     1       1.653  -0.370  -6.209  0.00  0.00    +0.017 A 
ATOM     19  C   UNL     1       1.388  -1.614  -6.709  0.00  0.00    +0.021 A 
ATOM     20  C   UNL     1       1.489  -2.741  -5.901  0.00  0.00    +0.043 A 
ATOM     21  C   UNL     1       1.858  -2.629  -4.578  0.00  0.00    +0.048 A 
ATOM     22  C   UNL     1       2.134  -1.368  -4.045  0.00  0.00    +0.080 A 
ATOM     23  N   UNL     1       2.501  -1.207  -2.749  0.00  0.00    -0.232 NA
ATOM     24  C   UNL     1       2.762  -0.035  -2.256  0.00  0.00    +0.133 A 
ATOM     25 CL   UNL     1       1.145  -4.307  -6.566  0.00  0.00    -0.083 Cl
BRANCH  14  27
ATOM     26  C   UNL     1       4.492   2.664  -2.431  0.00  0.00    +0.027 C 
ATOM     27  C   UNL     1       2.988   2.396  -2.339  0.00  0.00    +0.123 C 
ENDBRANCH  14  27
ENDBRANCH  12  24
ENDBRANCH   1  12
BRANCH   1  28
ATOM     28  C   UNL     1       4.629  -2.007  -1.014  0.00  0.00    +0.090 C 
BRANCH  28  29
ATOM     29  C   UNL     1       5.314  -2.076  -2.381  0.00  0.00    -0.060 C 
BRANCH  29  30
ATOM     30  N   UNL     1       5.376  -3.474  -2.829  0.00  0.00    +0.377 N 
ATOM     31  C   UNL     1       4.014  -3.977  -3.051  0.00  0.00    -0.097 C 
ATOM     32  C   UNL     1       6.138  -3.553  -4.082  0.00  0.00    -0.097 C 
ATOM     33  H   UNL     1       5.830  -4.033  -2.122  0.00  0.00    -0.083 HD
ENDBRANCH  29  30
ENDBRANCH  28  29
ENDBRANCH   1  28
TORSDOF 7
