REMARK  Name = ZINC39659618
REMARK  9 active torsions:
REMARK  status: ('A' for Active; 'I' for Inactive)
REMARK    1  A    between atoms: C_1  and  C_2
REMARK    2  A    between atoms: C_12  and  O_13
REMARK    3  A    between atoms: O_13  and  C_14
REMARK    4  A    between atoms: C_14  and  C_15
REMARK    5  A    between atoms: C_19  and  C_28
REMARK    6  A    between atoms: N_30  and  C_31
REMARK    7  A    between atoms: C_31  and  C_32
REMARK    8  A    between atoms: C_36  and  C_38
REMARK    9  A    between atoms: C_36  and  C_39
REMARK                            x       y       z     vdW  Elec       q    Type
REMARK                         _______ _______ _______ _____ _____    ______ ____
ROOT
ATOM      1  C   UNL     1       0.217  -6.185   3.538  0.00  0.00    +0.253 C 
ATOM      2  O   UNL     1       0.251  -6.524   2.374  0.00  0.00    -0.272 OA
ATOM      3  N   UNL     1       0.195  -7.118   4.511  0.00  0.00    -0.297 N 
ATOM      4  C   UNL     1       0.146  -6.901   5.976  0.00  0.00    +0.121 C 
ATOM      5  C   UNL     1      -0.808  -7.996   6.502  0.00  0.00    +0.100 C 
ATOM      6  C   UNL     1      -0.759  -9.104   5.436  0.00  0.00    -0.004 C 
ATOM      7  C   UNL     1       0.206  -8.592   4.357  0.00  0.00    +0.115 C 
ATOM      8  C   UNL     1      -0.233 -10.400   6.045  0.00  0.00    -0.010 C 
ATOM      9  C   UNL     1      -0.248 -11.501   4.981  0.00  0.00    -0.082 C 
ATOM     10  N   UNL     1      -1.618 -11.690   4.488  0.00  0.00    +0.379 N 
ATOM     11  C   UNL     1      -2.082 -10.467   3.821  0.00  0.00    -0.082 C 
ATOM     12  C   UNL     1      -2.145  -9.322   4.836  0.00  0.00    -0.010 C 
ATOM     13  H   UNL     1      -1.636 -12.456   3.832  0.00  0.00    -0.086 HD
ATOM     14  H   UNL     1      -2.228 -11.900   5.264  0.00  0.00    -0.086 HD
ENDROOT
BRANCH   5  15
ATOM     15  C   UNL     1      -2.208  -7.453   6.633  0.00  0.00    +0.218 C 
ATOM     16  O   UNL     1      -2.589  -6.573   5.891  0.00  0.00    -0.275 OA
ATOM     17  N   UNL     1      -3.036  -7.946   7.575  0.00  0.00    -0.312 N 
ATOM     18  H   UNL     1      -2.731  -8.650   8.169  0.00  0.00    +0.149 HD
BRANCH  17  19
ATOM     19  C   UNL     1      -4.397  -7.418   7.703  0.00  0.00    +0.138 C 
BRANCH  19  20
ATOM     20  C   UNL     1      -5.120  -8.144   8.839  0.00  0.00    +0.164 C 
ATOM     21  C   UNL     1      -6.581  -7.645   8.975  0.00  0.00    +0.196 C 
ATOM     22  O   UNL     1      -6.884  -7.895  10.362  0.00  0.00    -0.347 OA
ATOM     23  C   UNL     1      -5.635  -7.985  11.061  0.00  0.00    +0.165 C 
ATOM     24  O   UNL     1      -4.564  -7.779  10.125  0.00  0.00    -0.342 OA
ATOM     25  C   UNL     1      -5.501  -9.370  11.698  0.00  0.00    +0.074 C 
ATOM     26  C   UNL     1      -5.579  -6.914  12.152  0.00  0.00    +0.074 C 
ENDBRANCH  19  20
ENDBRANCH  17  19
ENDBRANCH   5  15
BRANCH   1  27
ATOM     27  C   UNL     1       0.200  -4.722   3.897  0.00  0.00    +0.324 C 
BRANCH  27  28
ATOM     28  O   UNL     1       0.229  -3.938   2.702  0.00  0.00    -0.479 OA
BRANCH  28  40
ATOM     29  C   UNL     1       0.250   1.994   0.840  0.00  0.00    +0.045 C 
ATOM     30  C   UNL     1       0.261   0.493   0.709  0.00  0.00    -0.033 A 
ATOM     31  C   UNL     1       0.298  -0.099  -0.512  0.00  0.00    +0.096 A 
ATOM     32  C   UNL     1       0.309  -1.508  -0.607  0.00  0.00    +0.338 A 
ATOM     33  O   UNL     1       0.342  -2.028  -1.708  0.00  0.00    -0.245 OA
ATOM     34  O   UNL     1       0.282  -2.288   0.484  0.00  0.00    -0.418 OA
ATOM     35  C   UNL     1       0.245  -1.761   1.727  0.00  0.00    +0.181 A 
ATOM     36  C   UNL     1       0.238  -0.367   1.896  0.00  0.00    +0.024 A 
ATOM     37  C   UNL     1       0.205   0.182   3.182  0.00  0.00    +0.012 A 
ATOM     38  C   UNL     1       0.184  -0.651   4.279  0.00  0.00    +0.004 A 
ATOM     39  C   UNL     1       0.196  -2.028   4.115  0.00  0.00    +0.049 A 
ATOM     40  C   UNL     1       0.218  -2.587   2.850  0.00  0.00    +0.164 A 
ENDBRANCH  28  40
ENDBRANCH  27  28
ENDBRANCH   1  27
TORSDOF 6
