REMARK  Name = ZINC06198173
REMARK  14 active torsions:
REMARK  status: ('A' for Active; 'I' for Inactive)
REMARK    1  A    between atoms: C_1  and  C_2
REMARK    2  A    between atoms: C_2  and  C_3
REMARK    3  A    between atoms: C_10  and  C_15
REMARK    4  A    between atoms: C_15  and  C_17
REMARK    5  A    between atoms: C_15  and  N_73
REMARK    6  A    between atoms: N_21  and  C_22
REMARK    7  A    between atoms: C_22  and  C_23
REMARK    8  A    between atoms: C_22  and  C_24
REMARK    9  A    between atoms: C_22  and  C_25
REMARK   10  A    between atoms: C_25  and  C_26
REMARK   11  A    between atoms: C_27  and  C_28
REMARK   12  A    between atoms: C_27  and  N_73
REMARK   13  A    between atoms: C_33  and  C_34
REMARK   14  A    between atoms: C_33  and  N_73
REMARK                            x       y       z     vdW  Elec       q    Type
REMARK                         _______ _______ _______ _____ _____    ______ ____
ROOT
ATOM      1  C   UNL     1       0.212   5.309   1.639  0.00  0.00    +0.039 C 
ENDROOT
BRANCH   1   9
ATOM      2  C   UNL     1      -4.968   2.481   3.498  0.00  0.00    -0.047 A 
ATOM      3  C   UNL     1      -5.308   1.951   2.261  0.00  0.00    +0.005 A 
ATOM      4  C   UNL     1      -4.515   2.176   1.157  0.00  0.00    +0.026 A 
ATOM      5  C   UNL     1      -3.361   2.943   1.281  0.00  0.00    +0.049 A 
ATOM      6  C   UNL     1      -3.019   3.478   2.537  0.00  0.00    -0.001 A 
ATOM      7  C   UNL     1      -3.839   3.237   3.644  0.00  0.00    +0.013 A 
ATOM      8  C   UNL     1      -1.802   4.284   2.658  0.00  0.00    +0.017 A 
ATOM      9  C   UNL     1      -1.046   4.485   1.550  0.00  0.00    +0.011 A 
ATOM     10  C   UNL     1      -1.437   3.930   0.312  0.00  0.00    +0.251 A 
ATOM     11  O   UNL     1      -0.745   4.127  -0.672  0.00  0.00    -0.268 OA
ATOM     12  N   UNL     1      -2.549   3.185   0.193  0.00  0.00    -0.322 N 
ATOM     13  H   UNL     1      -2.792   2.800  -0.698  0.00  0.00    +0.169 HD
BRANCH   2  15
ATOM     14  C   UNL     1      -6.908   3.323   4.794  0.00  0.00    +0.009 C 
ATOM     15  C   UNL     1      -5.851   2.221   4.691  0.00  0.00    +0.032 C 
ENDBRANCH   2  15
ENDBRANCH   1   9
BRANCH   1  16
ATOM     16  C   UNL     1       0.103   6.495   0.715  0.00  0.00    +0.143 A 
ATOM     17  N   UNL     1       0.311   6.500  -0.579  0.00  0.00    -0.115 NA
ATOM     18  N   UNL     1       0.117   7.699  -1.008  0.00  0.00    -0.023 NA
ATOM     19  N   UNL     1      -0.201   8.460  -0.021  0.00  0.00    -0.043 NA
ATOM     20  N   UNL     1      -0.220   7.755   1.059  0.00  0.00    -0.225 N 
BRANCH  20  21
ATOM     21  C   UNL     1      -0.535   8.235   2.407  0.00  0.00    +0.061 C 
ATOM     22  C   UNL     1      -1.615   7.345   3.026  0.00  0.00    +0.036 C 
ATOM     23  C   UNL     1       0.725   8.186   3.273  0.00  0.00    +0.036 C 
BRANCH  21  24
ATOM     24  C   UNL     1      -1.045   9.676   2.329  0.00  0.00    +0.026 C 
ATOM     25  C   UNL     1      -1.374  10.177   3.736  0.00  0.00    +0.006 C 
ENDBRANCH  21  24
ENDBRANCH  20  21
ENDBRANCH   1  16
BRANCH   1  26
ATOM     26  N   UNL     1       1.366   4.486   1.219  0.00  0.00    +0.396 N 
ATOM     27  H   UNL     1       1.401   4.461   0.193  0.00  0.00    -0.080 HD
BRANCH  26  28
ATOM     28  C   UNL     1       2.621   5.079   1.728  0.00  0.00    -0.002 C 
BRANCH  28  29
ATOM     29  C   UNL     1       2.724   4.896   3.220  0.00  0.00    +0.089 A 
ATOM     30  C   UNL     1       3.266   3.836   3.847  0.00  0.00    +0.042 A 
ATOM     31  C   UNL     1       3.158   4.081   5.235  0.00  0.00    +0.041 A 
ATOM     32  C   UNL     1       2.550   5.273   5.373  0.00  0.00    +0.195 A 
ATOM     33  O   UNL     1       2.292   5.763   4.150  0.00  0.00    -0.470 OA
ENDBRANCH  28  29
ENDBRANCH  26  28
BRANCH  26  34
ATOM     34  C   UNL     1       1.215   3.107   1.729  0.00  0.00    -0.045 C 
BRANCH  34  35
ATOM     35  C   UNL     1       2.221   2.205   1.010  0.00  0.00    +0.102 C 
ATOM     36  C   UNL     1       2.000   0.729   1.411  0.00  0.00    +0.032 C 
ATOM     37  C   UNL     1       3.428   0.143   1.483  0.00  0.00    +0.030 C 
ATOM     38  C   UNL     1       4.342   1.333   1.118  0.00  0.00    +0.160 C 
ATOM     39  O   UNL     1       3.565   2.507   1.442  0.00  0.00    -0.378 OA
ENDBRANCH  34  35
ENDBRANCH  26  34
ENDBRANCH   1  26
TORSDOF 10
