REMARK  Name = ZINC64648572
REMARK  3 active torsions:
REMARK  status: ('A' for Active; 'I' for Inactive)
REMARK    1  A    between atoms: C_6  and  C_11
REMARK    2  A    between atoms: C_13  and  C_16
REMARK    3  A    between atoms: N_31  and  C_32
REMARK                            x       y       z     vdW  Elec       q    Type
REMARK                         _______ _______ _______ _____ _____    ______ ____
ROOT
ATOM      1  C   UNL     1       5.119  -5.511  -3.051  0.00  0.00    +0.024 A 
ATOM      2  C   UNL     1       5.428  -6.507  -2.126  0.00  0.00    +0.013 A 
ATOM      3  C   UNL     1       6.014  -7.681  -2.545  0.00  0.00    +0.025 A 
ATOM      4  C   UNL     1       6.305  -7.889  -3.893  0.00  0.00    +0.051 A 
ATOM      5  C   UNL     1       5.994  -6.894  -4.816  0.00  0.00    +0.035 A 
ATOM      6  C   UNL     1       5.401  -5.713  -4.400  0.00  0.00    +0.028 A 
ATOM      7  S   UNL     1       6.343  -7.129  -6.527  0.00  0.00    -0.087 S 
ATOM      8  C   UNL     1       5.392  -8.550  -6.955  0.00  0.00    +0.025 A 
ATOM      9  C   UNL     1       4.418  -8.460  -7.941  0.00  0.00    +0.016 A 
ATOM     10  C   UNL     1       3.674  -9.572  -8.281  0.00  0.00    +0.001 A 
ATOM     11  C   UNL     1       3.897 -10.780  -7.640  0.00  0.00    +0.001 A 
ATOM     12  C   UNL     1       4.857 -10.885  -6.660  0.00  0.00    +0.014 A 
ATOM     13  C   UNL     1       5.622  -9.767  -6.300  0.00  0.00    +0.051 A 
ATOM     14  C   UNL     1       6.633  -9.896  -5.252  0.00  0.00    +0.252 C 
ATOM     15  O   UNL     1       7.320 -10.898  -5.308  0.00  0.00    -0.270 OA
ATOM     16  N   UNL     1       6.899  -9.085  -4.263  0.00  0.00    -0.263 N 
ENDROOT
BRANCH   1  19
ATOM     17  C   UNL     1       3.631  -2.749  -1.285  0.00  0.00    +0.254 A 
ATOM     18  N   UNL     1       4.169  -3.934  -1.332  0.00  0.00    -0.189 NA
ATOM     19  C   UNL     1       4.488  -4.245  -2.602  0.00  0.00    +0.202 A 
ATOM     20  N   UNL     1       4.149  -3.243  -3.376  0.00  0.00    -0.056 NA
ATOM     21  O   UNL     1       3.580  -2.256  -2.529  0.00  0.00    -0.335 OA
BRANCH  17  27
ATOM     22  C   UNL     1      -0.016   1.348   0.009  0.00  0.00    +0.001 A 
ATOM     23  C   UNL     1       1.166   2.101   0.002  0.00  0.00    +0.002 A 
ATOM     24  C   UNL     1       2.391   1.535  -0.013  0.00  0.00    +0.026 A 
ATOM     25  C   UNL     1       2.529   0.120  -0.022  0.00  0.00    +0.043 A 
ATOM     26  N   UNL     1       3.587  -0.654  -0.037  0.00  0.00    -0.370 N 
ATOM     27  C   UNL     1       3.143  -2.053  -0.041  0.00  0.00    +0.193 C 
ATOM     28  C   UNL     1       1.631  -2.008  -0.025  0.00  0.00    +0.017 C 
ATOM     29  C   UNL     1       1.295  -0.698  -0.014  0.00  0.00    -0.004 A 
ATOM     30  C   UNL     1       0.002  -0.004   0.002  0.00  0.00    +0.010 A 
ATOM     31  H   UNL     1       4.509  -0.353  -0.045  0.00  0.00    +0.161 HD
ENDBRANCH  17  27
ENDBRANCH   1  19
BRANCH  16  32
ATOM     32  C   UNL     1       8.008  -9.510  -3.405  0.00  0.00    +0.082 C 
ATOM     33  C   UNL     1       9.286  -9.697  -4.248  0.00  0.00    +0.023 C 
ATOM     34  C   UNL     1       9.983 -10.926  -3.614  0.00  0.00    +0.002 C 
ATOM     35  C   UNL     1       8.791 -11.848  -3.256  0.00  0.00    +0.002 C 
ATOM     36  C   UNL     1       7.693 -10.877  -2.775  0.00  0.00    +0.023 C 
ENDBRANCH  16  32
TORSDOF 3
