REMARK  Name = ZINC08582500
REMARK  10 active torsions:
REMARK  status: ('A' for Active; 'I' for Inactive)
REMARK    1  A    between atoms: C_1  and  C_2
REMARK    2  A    between atoms: C_7  and  C_13
REMARK    3  A    between atoms: C_8  and  O_12
REMARK    4  A    between atoms: C_13  and  C_15
REMARK    5  A    between atoms: C_13  and  N_67
REMARK    6  A    between atoms: N_19  and  C_20
REMARK    7  A    between atoms: C_25  and  C_26
REMARK    8  A    between atoms: C_25  and  N_67
REMARK    9  A    between atoms: C_32  and  C_33
REMARK   10  A    between atoms: C_32  and  N_67
REMARK                            x       y       z     vdW  Elec       q    Type
REMARK                         _______ _______ _______ _____ _____    ______ ____
ROOT
ATOM      1  C   UNL     1       3.400  -0.777  -0.294  0.00  0.00    +0.040 C 
ENDROOT
BRANCH   1   8
ATOM      2  C   UNL     1      -1.278   5.606  -0.747  0.00  0.00    +0.044 C 
ATOM      3  C   UNL     1      -0.489   4.356  -0.453  0.00  0.00    -0.048 A 
ATOM      4  C   UNL     1      -0.706   3.673   0.741  0.00  0.00    +0.004 A 
ATOM      5  C   UNL     1      -0.009   2.540   1.034  0.00  0.00    +0.010 A 
ATOM      6  C   UNL     1       0.940   2.054   0.122  0.00  0.00    +0.001 A 
ATOM      7  C   UNL     1       1.681   0.884   0.390  0.00  0.00    +0.017 A 
ATOM      8  C   UNL     1       2.586   0.467  -0.539  0.00  0.00    +0.008 A 
ATOM      9  C   UNL     1       2.760   1.197  -1.722  0.00  0.00    +0.215 A 
ATOM     10  N   UNL     1       2.066   2.287  -1.966  0.00  0.00    -0.213 NA
ATOM     11  C   UNL     1       1.162   2.746  -1.093  0.00  0.00    +0.075 A 
ATOM     12  C   UNL     1       0.419   3.909  -1.363  0.00  0.00    +0.031 A 
BRANCH   9  13
ATOM     13  O   UNL     1       3.665   0.770  -2.636  0.00  0.00    -0.492 OA
ATOM     14  H   UNL     1       4.552   1.132  -2.510  0.00  0.00    +0.294 HD
ENDBRANCH   9  13
ENDBRANCH   1   8
BRANCH   1  15
ATOM     15  C   UNL     1       3.320  -1.151   1.163  0.00  0.00    +0.143 A 
ATOM     16  N   UNL     1       3.474  -0.347   2.187  0.00  0.00    -0.115 NA
ATOM     17  N   UNL     1       3.332  -1.041   3.263  0.00  0.00    -0.023 NA
ATOM     18  N   UNL     1       3.091  -2.267   2.953  0.00  0.00    -0.044 NA
ATOM     19  N   UNL     1       3.070  -2.374   1.667  0.00  0.00    -0.227 N 
BRANCH  19  20
ATOM     20  C   UNL     1       2.825  -3.598   0.900  0.00  0.00    +0.111 C 
ATOM     21  C   UNL     1       1.451  -4.190   1.275  0.00  0.00    +0.027 C 
ATOM     22  C   UNL     1       1.679  -5.723   1.249  0.00  0.00    +0.002 C 
ATOM     23  C   UNL     1       3.105  -5.867   1.836  0.00  0.00    +0.002 C 
ATOM     24  C   UNL     1       3.876  -4.663   1.256  0.00  0.00    +0.027 C 
ENDBRANCH  19  20
ENDBRANCH   1  15
BRANCH   1  25
ATOM     25  N   UNL     1       4.800  -0.513  -0.685  0.00  0.00    +0.397 N 
ATOM     26  H   UNL     1       4.808  -0.003  -1.576  0.00  0.00    -0.079 HD
BRANCH  25  27
ATOM     27  C   UNL     1       5.527  -1.788  -0.856  0.00  0.00    -0.041 C 
BRANCH  27  28
ATOM     28  C   UNL     1       6.854  -1.507  -1.511  0.00  0.00    -0.064 A 
ATOM     29  C   UNL     1       6.935  -1.387  -2.886  0.00  0.00    +0.002 A 
ATOM     30  C   UNL     1       8.152  -1.123  -3.487  0.00  0.00    +0.000 A 
ATOM     31  C   UNL     1       9.290  -0.991  -2.713  0.00  0.00    +0.000 A 
ATOM     32  C   UNL     1       9.210  -1.117  -1.339  0.00  0.00    +0.000 A 
ATOM     33  C   UNL     1       7.993  -1.375  -0.738  0.00  0.00    +0.002 A 
ENDBRANCH  27  28
ENDBRANCH  25  27
BRANCH  25  34
ATOM     34  C   UNL     1       5.465   0.313   0.346  0.00  0.00    -0.001 C 
BRANCH  34  35
ATOM     35  C   UNL     1       5.031   1.745   0.170  0.00  0.00    +0.089 A 
ATOM     36  C   UNL     1       4.060   2.364   0.865  0.00  0.00    +0.042 A 
ATOM     37  C   UNL     1       3.989   3.690   0.378  0.00  0.00    +0.041 A 
ATOM     38  C   UNL     1       4.921   3.801  -0.586  0.00  0.00    +0.195 A 
ATOM     39  O   UNL     1       5.553   2.622  -0.703  0.00  0.00    -0.470 OA
ENDBRANCH  34  35
ENDBRANCH  25  34
ENDBRANCH   1  25
TORSDOF 9
