REMARK  Name = ZINC36157130
REMARK  11 active torsions:
REMARK  status: ('A' for Active; 'I' for Inactive)
REMARK    1  A    between atoms: C_1  and  C_2
REMARK    2  A    between atoms: C_5  and  C_8
REMARK    3  A    between atoms: C_8  and  N_9
REMARK    4  A    between atoms: N_9  and  C_10
REMARK    5  A    between atoms: N_9  and  C_17
REMARK    6  A    between atoms: C_10  and  C_11
REMARK    7  A    between atoms: C_17  and  C_18
REMARK    8  A    between atoms: C_21  and  C_23
REMARK    9  A    between atoms: C_23  and  C_24
REMARK   10  A    between atoms: C_23  and  C_31
REMARK   11  A    between atoms: C_23  and  O_38
REMARK                            x       y       z     vdW  Elec       q    Type
REMARK                         _______ _______ _______ _____ _____    ______ ____
ROOT
ATOM      1  C   UNL     1       3.140  -5.173   0.700  0.00  0.00    +0.089 A 
ATOM      2  C   UNL     1       4.272  -5.166   1.427  0.00  0.00    +0.043 A 
ATOM      3  C   UNL     1       5.346  -5.262   0.513  0.00  0.00    +0.048 A 
ATOM      4  C   UNL     1       4.807  -5.321  -0.718  0.00  0.00    +0.146 A 
ATOM      5  O   UNL     1       3.470  -5.272  -0.598  0.00  0.00    -0.463 OA
ENDROOT
BRANCH   1   6
ATOM      6  C   UNL     1       1.739  -5.088   1.249  0.00  0.00    -0.002 C 
BRANCH   6   7
ATOM      7  N   UNL     1       1.369  -3.679   1.432  0.00  0.00    +0.390 N 
ATOM      8  H   UNL     1       2.058  -3.222   2.010  0.00  0.00    -0.080 HD
BRANCH   7   9
ATOM      9  C   UNL     1       1.310  -3.014   0.123  0.00  0.00    -0.042 C 
BRANCH   9  14
ATOM     10  C   UNL     1       0.317   2.630   0.869  0.00  0.00    +0.044 C 
ATOM     11  C   UNL     1       0.576   1.158   0.675  0.00  0.00    -0.050 A 
ATOM     12  C   UNL     1       1.874   0.684   0.635  0.00  0.00    +0.003 A 
ATOM     13  C   UNL     1       2.111  -0.666   0.457  0.00  0.00    +0.002 A 
ATOM     14  C   UNL     1       1.051  -1.542   0.319  0.00  0.00    -0.064 A 
ATOM     15  C   UNL     1      -0.247  -1.068   0.359  0.00  0.00    +0.002 A 
ATOM     16  C   UNL     1      -0.485   0.281   0.541  0.00  0.00    +0.003 A 
ENDBRANCH   9  14
ENDBRANCH   7   9
BRANCH   7  17
ATOM     17  C   UNL     1       0.053  -3.598   2.082  0.00  0.00    -0.042 C 
BRANCH  17  18
ATOM     18  C   UNL     1       0.150  -4.148   3.482  0.00  0.00    -0.064 A 
ATOM     19  C   UNL     1      -0.181  -5.467   3.730  0.00  0.00    +0.002 A 
ATOM     20  C   UNL     1      -0.092  -5.971   5.014  0.00  0.00    +0.000 A 
ATOM     21  C   UNL     1       0.328  -5.157   6.049  0.00  0.00    +0.000 A 
ATOM     22  C   UNL     1       0.660  -3.839   5.800  0.00  0.00    +0.000 A 
ATOM     23  C   UNL     1       0.575  -3.335   4.516  0.00  0.00    +0.002 A 
ENDBRANCH  17  18
ENDBRANCH   7  17
ENDBRANCH   6   7
ENDBRANCH   1   6
BRANCH   4  24
ATOM     24  C   UNL     1       5.572  -5.429  -2.011  0.00  0.00    +0.174 C 
BRANCH  24  25
ATOM     25  C   UNL     1       4.744  -6.177  -3.024  0.00  0.00    -0.002 A 
ATOM     26  C   UNL     1       5.151  -7.423  -3.466  0.00  0.00    +0.007 A 
ATOM     27  C   UNL     1       4.392  -8.110  -4.395  0.00  0.00    +0.003 A 
ATOM     28  C   UNL     1       3.226  -7.552  -4.884  0.00  0.00    +0.038 A 
ATOM     29  C   UNL     1       2.817  -6.305  -4.442  0.00  0.00    +0.124 A 
ATOM     30  C   UNL     1       3.575  -5.620  -3.507  0.00  0.00    +0.045 A 
ATOM     31  F   UNL     1       1.678  -5.759  -4.920  0.00  0.00    -0.205 F 
ENDBRANCH  24  25
BRANCH  24  32
ATOM     32  C   UNL     1       5.876  -4.048  -2.532  0.00  0.00    -0.002 A 
ATOM     33  C   UNL     1       4.935  -3.043  -2.416  0.00  0.00    +0.007 A 
ATOM     34  C   UNL     1       5.212  -1.776  -2.893  0.00  0.00    +0.003 A 
ATOM     35  C   UNL     1       6.432  -1.512  -3.488  0.00  0.00    +0.038 A 
ATOM     36  C   UNL     1       7.375  -2.518  -3.605  0.00  0.00    +0.124 A 
ATOM     37  C   UNL     1       7.098  -3.786  -3.121  0.00  0.00    +0.045 A 
ATOM     38  F   UNL     1       8.568  -2.262  -4.187  0.00  0.00    -0.205 F 
ENDBRANCH  24  32
BRANCH  24  39
ATOM     39  O   UNL     1       6.795  -6.133  -1.784  0.00  0.00    -0.372 OA
ATOM     40  H   UNL     1       7.380  -5.707  -1.141  0.00  0.00    +0.212 HD
ENDBRANCH  24  39
ENDBRANCH   4  24
TORSDOF 10
