REMARK  Name = ZINC16525902
REMARK  9 active torsions:
REMARK  status: ('A' for Active; 'I' for Inactive)
REMARK    1  A    between atoms: C_9  and  O_23
REMARK    2  A    between atoms: C_10  and  C_11
REMARK    3  A    between atoms: C_11  and  N_53
REMARK    4  A    between atoms: C_12  and  C_13
REMARK    5  A    between atoms: C_12  and  N_53
REMARK    6  A    between atoms: C_13  and  N_14
REMARK    7  A    between atoms: C_15  and  C_17
REMARK    8  A    between atoms: O_23  and  C_24
REMARK    9  A    between atoms: C_24  and  C_25
REMARK                            x       y       z     vdW  Elec       q    Type
REMARK                         _______ _______ _______ _____ _____    ______ ____
ROOT
ATOM      1  C   UNL     1      -0.013   1.076   0.008  0.00  0.00    +0.001 A 
ATOM      2  C   UNL     1      -1.235   1.746   0.017  0.00  0.00    +0.001 A 
ATOM      3  C   UNL     1      -1.288   3.105   0.030  0.00  0.00    +0.009 A 
ATOM      4  C   UNL     1      -0.095   3.849   0.023  0.00  0.00    -0.013 A 
ATOM      5  C   UNL     1       1.148   3.167   0.008  0.00  0.00    -0.017 A 
ATOM      6  C   UNL     1       1.163   1.762   0.000  0.00  0.00    +0.008 A 
ATOM      7  C   UNL     1       2.342   3.909  -0.001  0.00  0.00    +0.012 A 
ATOM      8  C   UNL     1       2.292   5.268   0.006  0.00  0.00    +0.046 A 
ATOM      9  C   UNL     1       1.067   5.942   0.021  0.00  0.00    +0.123 A 
ATOM     10  C   UNL     1      -0.112   5.253   0.029  0.00  0.00    -0.015 A 
ENDROOT
BRANCH  10  11
ATOM     11  C   UNL     1      -1.423   5.995   0.046  0.00  0.00    -0.042 C 
BRANCH  11  12
ATOM     12  N   UNL     1      -1.830   6.226   1.445  0.00  0.00    +0.383 N 
ATOM     13  H   UNL     1      -1.109   6.782   1.920  0.00  0.00    -0.085 HD
ATOM     14  H   UNL     1      -1.935   5.323   1.921  0.00  0.00    -0.085 HD
BRANCH  12  15
ATOM     15  C   UNL     1      -3.113   6.953   1.491  0.00  0.00    -0.063 C 
BRANCH  15  16
ATOM     16  C   UNL     1      -3.509   7.178   2.952  0.00  0.00    +0.085 C 
BRANCH  16  17
ATOM     17  N   UNL     1      -4.783   7.899   3.007  0.00  0.00    -0.312 N 
ATOM     18  C   UNL     1      -5.331   8.210   4.199  0.00  0.00    +0.269 C 
ATOM     19  O   UNL     1      -4.767   7.892   5.228  0.00  0.00    -0.268 OA
ATOM     20  H   UNL     1      -5.233   8.153   2.186  0.00  0.00    +0.149 HD
BRANCH  18  21
ATOM     21  C   UNL     1      -6.619   8.939   4.255  0.00  0.00    +0.209 A 
ATOM     22  C   UNL     1      -7.386   9.374   5.444  0.00  0.00    +0.192 A 
ATOM     23  N   UNL     1      -8.430   9.965   4.909  0.00  0.00    -0.033 NA
ATOM     24  O   UNL     1      -8.347   9.916   3.704  0.00  0.00    -0.240 OA
ATOM     25  N   UNL     1      -7.366   9.367   3.260  0.00  0.00    -0.042 NA
ATOM     26  N   UNL     1      -7.079   9.202   6.786  0.00  0.00    -0.339 N 
ATOM     27  H   UNL     1      -6.265   8.742   7.042  0.00  0.00    +0.144 HD
ATOM     28  H   UNL     1      -7.679   9.542   7.468  0.00  0.00    +0.144 HD
ENDBRANCH  18  21
ENDBRANCH  16  17
ENDBRANCH  15  16
ENDBRANCH  12  15
ENDBRANCH  11  12
ENDBRANCH  10  11
BRANCH   9  29
ATOM     29  O   UNL     1       1.050   7.301   0.027  0.00  0.00    -0.487 OA
BRANCH  29  30
ATOM     30  C   UNL     1       2.315   7.966   0.018  0.00  0.00    +0.266 C 
BRANCH  30  31
ATOM     31  C   UNL     1       2.098   9.457   0.027  0.00  0.00    +0.008 A 
ATOM     32  C   UNL     1       0.814   9.969   0.041  0.00  0.00    +0.010 A 
ATOM     33  C   UNL     1       0.614  11.336   0.050  0.00  0.00    +0.020 A 
ATOM     34  C   UNL     1       1.700  12.194   0.043  0.00  0.00    +0.042 A 
ATOM     35  C   UNL     1       2.985  11.683   0.029  0.00  0.00    +0.040 A 
ATOM     36  C   UNL     1       3.184  10.314   0.026  0.00  0.00    +0.049 A 
ATOM     37 CL   UNL     1       4.797   9.671   0.015  0.00  0.00    -0.083 Cl
ATOM     38 CL   UNL     1       1.449  13.912   0.053  0.00  0.00    -0.083 Cl
ENDBRANCH  30  31
ENDBRANCH  29  30
ENDBRANCH   9  29
TORSDOF 9
