REMARK  Name = ZINC09762479
REMARK  5 active torsions:
REMARK  status: ('A' for Active; 'I' for Inactive)
REMARK    1  A    between atoms: C_1  and  C_2
REMARK    2  A    between atoms: C_2  and  C_3
REMARK    3  A    between atoms: C_2  and  C_4
REMARK    4  A    between atoms: C_6  and  C_14
REMARK    5  A    between atoms: C_19  and  N_22
REMARK                            x       y       z     vdW  Elec       q    Type
REMARK                         _______ _______ _______ _____ _____    ______ ____
ROOT
ATOM      1  C   UNL     1       3.692  -0.774  -0.038  0.00  0.00    +0.247 C 
ATOM      2  O   UNL     1       4.736  -0.162  -0.150  0.00  0.00    -0.270 OA
ATOM      3  N   UNL     1       3.705  -2.118   0.057  0.00  0.00    -0.297 N 
ATOM      4  C   UNL     1       2.449  -2.880   0.072  0.00  0.00    +0.110 C 
ATOM      5  C   UNL     1       2.513  -3.951  -1.027  0.00  0.00    +0.044 C 
ATOM      6  C   UNL     1       3.768  -4.804  -0.827  0.00  0.00    +0.095 C 
ATOM      7  C   UNL     1       5.012  -3.920  -0.943  0.00  0.00    +0.044 C 
ATOM      8  C   UNL     1       4.976  -2.849   0.152  0.00  0.00    +0.110 C 
ENDROOT
BRANCH   6   9
ATOM      9  N   UNL     1       3.815  -5.850  -1.852  0.00  0.00    -0.289 N 
ATOM     10  C   UNL     1       3.823  -7.223  -1.616  0.00  0.00    +0.070 A 
ATOM     11  C   UNL     1       3.793  -7.990  -0.462  0.00  0.00    +0.028 A 
ATOM     12  C   UNL     1       3.813  -9.368  -0.551  0.00  0.00    +0.002 A 
ATOM     13  C   UNL     1       3.861  -9.986  -1.789  0.00  0.00    +0.002 A 
ATOM     14  C   UNL     1       3.891  -9.230  -2.944  0.00  0.00    +0.028 A 
ATOM     15  C   UNL     1       3.872  -7.846  -2.864  0.00  0.00    +0.067 A 
ATOM     16  N   UNL     1       3.892  -6.833  -3.820  0.00  0.00    -0.306 N 
ATOM     17  H   UNL     1       3.926  -6.960  -4.781  0.00  0.00    +0.170 HD
ATOM     18  C   UNL     1       3.852  -5.648  -3.183  0.00  0.00    +0.328 A 
ATOM     19  O   UNL     1       3.852  -4.559  -3.726  0.00  0.00    -0.247 OA
ENDBRANCH   6   9
BRANCH   1  22
ATOM     20  C   UNL     1       0.302   0.480   1.032  0.00  0.00    +0.045 A 
ATOM     21  C   UNL     1       1.503  -0.226   1.033  0.00  0.00    +0.037 A 
ATOM     22  C   UNL     1       2.406  -0.043  -0.005  0.00  0.00    +0.048 A 
ATOM     23  C   UNL     1       2.056   0.869  -1.033  0.00  0.00    +0.013 A 
ATOM     24  C   UNL     1       2.911   1.112  -2.116  0.00  0.00    +0.011 A 
ATOM     25  C   UNL     1       2.539   1.995  -3.084  0.00  0.00    +0.001 A 
ATOM     26  C   UNL     1       1.317   2.662  -3.011  0.00  0.00    +0.002 A 
ATOM     27  C   UNL     1       0.463   2.450  -1.974  0.00  0.00    +0.028 A 
ATOM     28  C   UNL     1       0.813   1.544  -0.955  0.00  0.00    +0.072 A 
ATOM     29  N   UNL     1      -0.007   1.318   0.075  0.00  0.00    -0.251 NA
BRANCH  20  31
ATOM     30  C   UNL     1      -1.545  -0.948   1.869  0.00  0.00    +0.014 C 
ATOM     31  C   UNL     1      -0.670   0.272   2.165  0.00  0.00    +0.032 C 
ATOM     32  C   UNL     1       0.103   0.041   3.465  0.00  0.00    +0.014 C 
ENDBRANCH  20  31
ENDBRANCH   1  22
TORSDOF 3
