REMARK  Name = ZINC19715621
REMARK  7 active torsions:
REMARK  status: ('A' for Active; 'I' for Inactive)
REMARK    1  A    between atoms: C_1  and  C_2
REMARK    2  A    between atoms: C_2  and  C_3
REMARK    3  A    between atoms: C_2  and  C_4
REMARK    4  A    between atoms: C_2  and  C_5
REMARK    5  A    between atoms: C_11  and  C_14
REMARK    6  A    between atoms: C_19  and  C_22
REMARK    7  A    between atoms: C_22  and  C_23
REMARK                            x       y       z     vdW  Elec       q    Type
REMARK                         _______ _______ _______ _____ _____    ______ ____
ROOT
ATOM      1  C   UNL     1      -1.187   1.624   0.017  0.00  0.00    +0.272 C 
ATOM      2  O   UNL     1      -1.204   2.839   0.023  0.00  0.00    -0.268 OA
ATOM      3  N   UNL     1      -0.011   0.966   0.007  0.00  0.00    -0.259 N 
ATOM      4  C   UNL     1       1.182   1.677  -0.000  0.00  0.00    +0.165 A 
ATOM      5  N   UNL     1       2.419   1.219  -0.015  0.00  0.00    -0.229 NA
ATOM      6  C   UNL     1       3.451   2.040  -0.020  0.00  0.00    +0.059 A 
ATOM      7  C   UNL     1       3.215   3.375  -0.011  0.00  0.00    +0.072 A 
ATOM      8  S   UNL     1       1.428   3.396  -0.001  0.00  0.00    -0.060 S 
ATOM      9  H   UNL     1       0.004  -0.134   0.006  0.00  0.00    +0.157 HD
ENDROOT
BRANCH   1  15
ATOM     10  C   UNL     1      -5.721   2.829   0.454  0.00  0.00    -0.001 C 
ATOM     11  C   UNL     1      -6.492   1.804  -0.381  0.00  0.00    +0.012 C 
ATOM     12  C   UNL     1      -6.080   0.384   0.029  0.00  0.00    +0.078 C 
ATOM     13  C   UNL     1      -4.576   0.308   0.025  0.00  0.00    +0.141 A 
ATOM     14  C   UNL     1      -3.768   1.395   0.028  0.00  0.00    +0.027 A 
ATOM     15  C   UNL     1      -2.461   0.865   0.018  0.00  0.00    +0.171 A 
ATOM     16  N   UNL     1      -2.607  -0.442   0.006  0.00  0.00    -0.073 NA
ATOM     17  O   UNL     1      -3.780  -0.759   0.016  0.00  0.00    -0.359 OA
ATOM     18  C   UNL     1      -4.242   2.818   0.041  0.00  0.00    +0.045 C 
BRANCH  10  20
ATOM     19  C   UNL     1      -6.189   4.582  -1.263  0.00  0.00    +0.011 C 
ATOM     20  C   UNL     1      -6.306   4.223   0.220  0.00  0.00    -0.035 C 
ATOM     21  C   UNL     1      -7.779   4.233   0.632  0.00  0.00    +0.011 C 
ATOM     22  C   UNL     1      -5.535   5.247   1.056  0.00  0.00    +0.011 C 
ENDBRANCH  10  20
ENDBRANCH   1  15
BRANCH   6  23
ATOM     23  C   UNL     1       4.860   1.506  -0.037  0.00  0.00    +0.151 C 
BRANCH  23  24
ATOM     24  C   UNL     1       5.053   0.560   1.120  0.00  0.00    +0.216 C 
ATOM     25  O   UNL     1       4.136   0.341   1.883  0.00  0.00    -0.276 OA
ATOM     26  N   UNL     1       6.244  -0.042   1.307  0.00  0.00    -0.329 N 
ATOM     27  H   UNL     1       6.385  -0.733   2.151  0.00  0.00    +0.145 HD
ATOM     28  H   UNL     1       7.076   0.157   0.615  0.00  0.00    +0.145 HD
ENDBRANCH  23  24
ENDBRANCH   6  23
TORSDOF 4
