REMARK  Name = ZINC14128709
REMARK  11 active torsions:
REMARK  status: ('A' for Active; 'I' for Inactive)
REMARK    1  A    between atoms: C_1  and  C_2
REMARK    2  A    between atoms: C_3  and  C_34
REMARK    3  A    between atoms: C_4  and  C_33
REMARK    4  A    between atoms: C_7  and  C_8
REMARK    5  A    between atoms: C_8  and  C_10
REMARK    6  A    between atoms: C_10  and  S_11
REMARK    7  A    between atoms: S_11  and  C_12
REMARK    8  A    between atoms: N_25  and  C_26
REMARK    9  A    between atoms: C_26  and  C_27
REMARK   10  A    between atoms: C_34  and  O_36
REMARK   11  A    between atoms: O_36  and  C_37
REMARK                            x       y       z     vdW  Elec       q    Type
REMARK                         _______ _______ _______ _____ _____    ______ ____
ROOT
ATOM      1  C   UNL     1      -3.724   1.626   2.041  0.00  0.00    +0.173 A 
ATOM      2  N   UNL     1      -4.114   1.425   3.284  0.00  0.00    -0.216 NA
ATOM      3  C   UNL     1      -3.740   0.336   3.945  0.00  0.00    +0.117 A 
ATOM      4  C   UNL     1      -2.920  -0.647   3.365  0.00  0.00    +0.076 A 
ATOM      5  C   UNL     1      -2.592  -1.790   4.218  0.00  0.00    -0.023 A 
ATOM      6  C   UNL     1      -3.103  -1.790   5.466  0.00  0.00    -0.004 A 
ATOM      7  S   UNL     1      -4.039  -0.289   5.580  0.00  0.00    -0.073 S 
ATOM      8  C   UNL     1      -2.917  -2.835   6.523  0.00  0.00    +0.043 C 
ATOM      9  C   UNL     1      -2.356  -4.102   5.859  0.00  0.00    +0.005 C 
ATOM     10  C   UNL     1      -1.188  -3.705   4.952  0.00  0.00    +0.005 C 
ATOM     11  C   UNL     1      -1.713  -2.941   3.735  0.00  0.00    +0.037 C 
ATOM     12  C   UNL     1      -2.517  -0.404   2.014  0.00  0.00    +0.264 A 
ATOM     13  O   UNL     1      -1.810  -1.204   1.427  0.00  0.00    -0.267 OA
ATOM     14  N   UNL     1      -2.927   0.722   1.401  0.00  0.00    -0.283 N 
ENDROOT
BRANCH   1  15
ATOM     15  S   UNL     1      -4.240   3.083   1.194  0.00  0.00    -0.080 S 
BRANCH  15  16
ATOM     16  C   UNL     1      -5.233   3.865   2.489  0.00  0.00    +0.158 C 
BRANCH  16  17
ATOM     17  C   UNL     1      -5.794   5.166   1.976  0.00  0.00    +0.190 C 
ATOM     18  O   UNL     1      -5.546   5.529   0.844  0.00  0.00    -0.290 OA
BRANCH  17  25
ATOM     19  C   UNL     1      -7.053   7.886   1.153  0.00  0.00    +0.047 C 
ATOM     20  C   UNL     1      -7.179   7.173   2.474  0.00  0.00    -0.008 A 
ATOM     21  C   UNL     1      -7.906   7.612   3.602  0.00  0.00    +0.083 A 
ATOM     22  C   UNL     1      -7.745   6.656   4.590  0.00  0.00    +0.028 A 
ATOM     23  N   UNL     1      -6.968   5.673   4.113  0.00  0.00    -0.355 N 
ATOM     24  H   UNL     1      -6.699   4.881   4.605  0.00  0.00    +0.166 HD
ATOM     25  C   UNL     1      -6.609   5.965   2.813  0.00  0.00    +0.087 A 
ATOM     26  C   UNL     1      -8.342   6.713   5.972  0.00  0.00    +0.064 C 
BRANCH  21  27
ATOM     27  C   UNL     1      -8.686   8.857   3.708  0.00  0.00    +0.341 C 
ATOM     28  O   UNL     1      -8.153   9.876   4.101  0.00  0.00    -0.245 OA
BRANCH  27  29
ATOM     29  O   UNL     1      -9.991   8.865   3.370  0.00  0.00    -0.464 OA
ATOM     30  C   UNL     1     -10.697  10.127   3.500  0.00  0.00    +0.280 C 
ENDBRANCH  27  29
ENDBRANCH  21  27
ENDBRANCH  17  25
ENDBRANCH  16  17
ENDBRANCH  15  16
ENDBRANCH   1  15
BRANCH  14  31
ATOM     31  C   UNL     1      -2.514   0.980   0.019  0.00  0.00    +0.162 C 
BRANCH  31  32
ATOM     32  C   UNL     1      -1.219   1.751   0.017  0.00  0.00    -0.028 A 
ATOM     33  C   UNL     1      -0.013   1.076   0.008  0.00  0.00    +0.005 A 
ATOM     34  C   UNL     1       1.175   1.783   0.000  0.00  0.00    +0.000 A 
ATOM     35  C   UNL     1       1.156   3.165   0.008  0.00  0.00    +0.000 A 
ATOM     36  C   UNL     1      -0.050   3.840   0.022  0.00  0.00    +0.000 A 
ATOM     37  C   UNL     1      -1.238   3.133   0.030  0.00  0.00    +0.005 A 
ENDBRANCH  31  32
ENDBRANCH  14  31
TORSDOF 8
