REMARK  Name = ZINC39001179
REMARK  6 active torsions:
REMARK  status: ('A' for Active; 'I' for Inactive)
REMARK    1  A    between atoms: C_4  and  C_7
REMARK    2  A    between atoms: C_7  and  O_8
REMARK    3  A    between atoms: O_8  and  C_9
REMARK    4  A    between atoms: C_13  and  C_15
REMARK    5  A    between atoms: N_16  and  N_17
REMARK    6  A    between atoms: C_18  and  C_24
REMARK                            x       y       z     vdW  Elec       q    Type
REMARK                         _______ _______ _______ _____ _____    ______ ____
ROOT
ATOM      1  C   UNL     1       7.422  -3.035   4.264  0.00  0.00    +0.138 C 
ATOM      2  N   UNL     1       8.636  -3.473   4.402  0.00  0.00    -0.183 NA
ENDROOT
BRANCH   2   3
ATOM      3  N   UNL     1       9.173  -3.658   5.683  0.00  0.00    -0.172 N 
ATOM      4  C   UNL     1      10.477  -4.246   6.039  0.00  0.00    +0.264 C 
ATOM      5  N   UNL     1      10.503  -4.183   7.509  0.00  0.00    -0.189 NA
ATOM      6  N   UNL     1       9.446  -3.673   7.889  0.00  0.00    -0.219 N 
ATOM      7  C   UNL     1       8.613  -3.332   6.869  0.00  0.00    +0.174 C 
ATOM      8  S   UNL     1       7.077  -2.600   7.060  0.00  0.00    -0.015 S 
ATOM      9  H   UNL     1       9.231  -3.526   8.824  0.00  0.00    +0.176 HD
BRANCH   4  10
ATOM     10  C   UNL     1      11.602  -3.433   5.452  0.00  0.00    -0.001 A 
ATOM     11  C   UNL     1      11.411  -2.739   4.272  0.00  0.00    +0.007 A 
ATOM     12  C   UNL     1      12.442  -1.993   3.733  0.00  0.00    +0.002 A 
ATOM     13  C   UNL     1      13.665  -1.940   4.374  0.00  0.00    +0.020 A 
ATOM     14  C   UNL     1      13.858  -2.634   5.555  0.00  0.00    +0.041 A 
ATOM     15  C   UNL     1      12.823  -3.375   6.097  0.00  0.00    +0.027 A 
ATOM     16 CL   UNL     1      15.394  -2.567   6.361  0.00  0.00    -0.084 Cl
ENDBRANCH   4  10
ENDBRANCH   2   3
BRANCH   1  21
ATOM     17  C   UNL     1       5.099  -1.994   1.502  0.00  0.00    +0.122 A 
ATOM     18  C   UNL     1       5.906  -2.184   0.388  0.00  0.00    +0.046 A 
ATOM     19  C   UNL     1       7.199  -2.650   0.536  0.00  0.00    +0.004 A 
ATOM     20  C   UNL     1       7.697  -2.928   1.793  0.00  0.00    +0.010 A 
ATOM     21  C   UNL     1       6.894  -2.739   2.920  0.00  0.00    -0.002 A 
ATOM     22  C   UNL     1       5.589  -2.264   2.768  0.00  0.00    +0.055 A 
BRANCH  17  23
ATOM     23  O   UNL     1       3.828  -1.536   1.350  0.00  0.00    -0.487 OA
BRANCH  23  24
ATOM     24  C   UNL     1       3.387  -1.278   0.015  0.00  0.00    +0.264 C 
BRANCH  24  28
ATOM     25  C   UNL     1      -0.645   0.130   0.092  0.00  0.00    +0.000 A 
ATOM     26  C   UNL     1       0.403   1.029   0.168  0.00  0.00    +0.000 A 
ATOM     27  C   UNL     1       1.708   0.573   0.143  0.00  0.00    +0.007 A 
ATOM     28  C   UNL     1       1.965  -0.781   0.043  0.00  0.00    -0.010 A 
ATOM     29  C   UNL     1       0.917  -1.680  -0.032  0.00  0.00    +0.007 A 
ATOM     30  C   UNL     1      -0.388  -1.224  -0.009  0.00  0.00    +0.000 A 
ENDBRANCH  24  28
ENDBRANCH  23  24
ENDBRANCH  17  23
ENDBRANCH   1  21
TORSDOF 6
