REMARK  Name = ZINC08430604
REMARK  10 active torsions:
REMARK  status: ('A' for Active; 'I' for Inactive)
REMARK    1  A    between atoms: C_1  and  C_2
REMARK    2  A    between atoms: C_5  and  N_8
REMARK    3  A    between atoms: C_12  and  N_13
REMARK    4  A    between atoms: N_13  and  C_14
REMARK    5  A    between atoms: C_17  and  S_22
REMARK    6  A    between atoms: C_19  and  O_20
REMARK    7  A    between atoms: O_20  and  C_21
REMARK    8  A    between atoms: S_22  and  N_25
REMARK    9  A    between atoms: N_25  and  C_26
REMARK   10  A    between atoms: C_30  and  C_32
REMARK                            x       y       z     vdW  Elec       q    Type
REMARK                         _______ _______ _______ _____ _____    ______ ____
ROOT
ATOM      1  N   UNL     1       0.292  -6.444   3.473  0.00  0.00    -0.317 N 
ATOM      2  H   UNL     1       0.138  -5.488   3.529  0.00  0.00    +0.152 HD
ENDROOT
BRANCH   1   7
ATOM      3  N   UNL     1       0.140  -4.171  -0.027  0.00  0.00    -0.190 N 
ATOM      4  C   UNL     1       0.247  -4.836   1.142  0.00  0.00    +0.265 C 
ATOM      5  O   UNL     1       0.382  -4.236   2.192  0.00  0.00    -0.269 OA
ATOM      6  C   UNL     1       0.195  -6.308   1.113  0.00  0.00    +0.113 C 
ATOM      7  C   UNL     1       0.298  -7.057   2.272  0.00  0.00    +0.090 C 
ATOM      8  C   UNL     1       0.029  -6.948  -0.204  0.00  0.00    +0.258 C 
ATOM      9  O   UNL     1      -0.023  -8.159  -0.308  0.00  0.00    -0.270 OA
ATOM     10  N   UNL     1      -0.065  -6.155  -1.291  0.00  0.00    -0.235 N 
ATOM     11  C   UNL     1      -0.015  -4.819  -1.190  0.00  0.00    +0.320 C 
ATOM     12  O   UNL     1      -0.109  -4.161  -2.207  0.00  0.00    -0.251 OA
ATOM     13  H   UNL     1      -0.174  -6.560  -2.165  0.00  0.00    +0.159 HD
BRANCH   3  18
ATOM     14  C   UNL     1       0.327   1.501  -0.016  0.00  0.00    +0.044 C 
ATOM     15  C   UNL     1       0.277  -0.005  -0.019  0.00  0.00    -0.050 A 
ATOM     16  C   UNL     1      -0.835  -0.658  -0.519  0.00  0.00    +0.005 A 
ATOM     17  C   UNL     1      -0.883  -2.038  -0.523  0.00  0.00    +0.024 A 
ATOM     18  C   UNL     1       0.186  -2.770  -0.025  0.00  0.00    +0.046 A 
ATOM     19  C   UNL     1       1.301  -2.112   0.476  0.00  0.00    +0.024 A 
ATOM     20  C   UNL     1       1.346  -0.731   0.473  0.00  0.00    +0.005 A 
ENDBRANCH   3  18
ENDBRANCH   1   7
BRANCH   1  21
ATOM     21  C   UNL     1       0.510  -7.188   4.639  0.00  0.00    +0.073 A 
ATOM     22  C   UNL     1       0.737  -8.554   4.560  0.00  0.00    +0.029 A 
ATOM     23  C   UNL     1       0.951  -9.286   5.712  0.00  0.00    +0.031 A 
ATOM     24  C   UNL     1       0.939  -8.660   6.945  0.00  0.00    +0.114 A 
ATOM     25  C   UNL     1       0.714  -7.299   7.032  0.00  0.00    +0.076 A 
ATOM     26  C   UNL     1       0.505  -6.556   5.881  0.00  0.00    +0.143 A 
BRANCH  24  27
ATOM     27  S   UNL     1       1.213  -9.600   8.410  0.00  0.00    +0.092 S 
ATOM     28  O   UNL     1       0.612  -8.877   9.475  0.00  0.00    -0.148 OA
ATOM     29  O   UNL     1       0.857 -10.941   8.104  0.00  0.00    -0.148 OA
BRANCH  27  30
ATOM     30  N   UNL     1       2.844  -9.596   8.697  0.00  0.00    -0.098 NA
BRANCH  30  31
ATOM     31  C   UNL     1       3.359 -10.271   9.806  0.00  0.00    +0.075 A 
ATOM     32  C   UNL     1       2.506 -10.951  10.666  0.00  0.00    +0.027 A 
ATOM     33  C   UNL     1       3.019 -11.617  11.761  0.00  0.00    +0.002 A 
ATOM     34  C   UNL     1       4.381 -11.609  12.002  0.00  0.00    +0.003 A 
ATOM     35  C   UNL     1       5.233 -10.933  11.149  0.00  0.00    -0.049 A 
ATOM     36  C   UNL     1       4.727 -10.269  10.048  0.00  0.00    +0.030 A 
ATOM     37  C   UNL     1       6.716 -10.925  11.416  0.00  0.00    +0.044 C 
ENDBRANCH  30  31
ENDBRANCH  27  30
ENDBRANCH  24  27
BRANCH  26  38
ATOM     38  O   UNL     1       0.289  -5.217   5.964  0.00  0.00    -0.493 OA
ATOM     39  C   UNL     1       0.298  -4.638   7.271  0.00  0.00    +0.277 C 
ENDBRANCH  26  38
ENDBRANCH   1  21
TORSDOF 7
