REMARK  Name = ZINC12833021
REMARK  9 active torsions:
REMARK  status: ('A' for Active; 'I' for Inactive)
REMARK    1  A    between atoms: C_1  and  C_2
REMARK    2  A    between atoms: C_4  and  C_35
REMARK    3  A    between atoms: C_9  and  C_14
REMARK    4  A    between atoms: C_14  and  N_66
REMARK    5  A    between atoms: C_15  and  C_16
REMARK    6  A    between atoms: C_15  and  N_66
REMARK    7  A    between atoms: C_23  and  C_24
REMARK    8  A    between atoms: C_23  and  N_66
REMARK    9  A    between atoms: N_28  and  C_29
REMARK                            x       y       z     vdW  Elec       q    Type
REMARK                         _______ _______ _______ _____ _____    ______ ____
ROOT
ATOM      1  N   UNL     1      -1.370   7.717  -1.514  0.00  0.00    +0.390 N 
ATOM      2  H   UNL     1      -0.804   7.160  -2.164  0.00  0.00    -0.080 HD
ENDROOT
BRANCH   1   3
ATOM      3  C   UNL     1      -1.138   7.231  -0.138  0.00  0.00    -0.036 C 
BRANCH   3  12
ATOM      4  C   UNL     1       1.421   0.235  -0.506  0.00  0.00    +0.044 C 
ATOM      5  C   UNL     1       0.286   1.213  -0.344  0.00  0.00    -0.050 A 
ATOM      6  C   UNL     1      -1.007   0.741  -0.158  0.00  0.00    +0.008 A 
ATOM      7  C   UNL     1      -2.061   1.616  -0.012  0.00  0.00    -0.026 A 
ATOM      8  C   UNL     1      -1.829   2.987  -0.040  0.00  0.00    +0.052 A 
ATOM      9  C   UNL     1      -0.517   3.462  -0.228  0.00  0.00    -0.001 A 
ATOM     10  C   UNL     1       0.537   2.555  -0.380  0.00  0.00    +0.013 A 
ATOM     11  C   UNL     1      -0.283   4.907  -0.261  0.00  0.00    +0.017 A 
ATOM     12  C   UNL     1      -1.344   5.738  -0.108  0.00  0.00    +0.001 A 
ATOM     13  C   UNL     1      -2.639   5.211   0.078  0.00  0.00    +0.251 A 
ATOM     14  O   UNL     1      -3.579   5.976   0.213  0.00  0.00    -0.268 OA
ATOM     15  N   UNL     1      -2.864   3.885   0.110  0.00  0.00    -0.322 N 
ATOM     16  H   UNL     1      -3.767   3.557   0.240  0.00  0.00    +0.169 HD
ATOM     17  C   UNL     1      -3.460   1.090   0.182  0.00  0.00    +0.046 C 
ENDBRANCH   3  12
ENDBRANCH   1   3
BRANCH   1  18
ATOM     18  C   UNL     1      -2.796   7.568  -1.869  0.00  0.00    -0.042 C 
BRANCH  18  19
ATOM     19  C   UNL     1      -2.979   7.935  -3.319  0.00  0.00    -0.064 A 
ATOM     20  C   UNL     1      -3.413   9.203  -3.661  0.00  0.00    +0.004 A 
ATOM     21  C   UNL     1      -3.576   9.543  -4.990  0.00  0.00    +0.038 A 
ATOM     22  C   UNL     1      -3.315   8.610  -5.980  0.00  0.00    +0.123 A 
ATOM     23  C   UNL     1      -2.886   7.339  -5.636  0.00  0.00    +0.038 A 
ATOM     24  C   UNL     1      -2.718   7.003  -4.306  0.00  0.00    +0.004 A 
ATOM     25  F   UNL     1      -3.479   8.940  -7.280  0.00  0.00    -0.205 F 
ENDBRANCH  18  19
ENDBRANCH   1  18
BRANCH   1  26
ATOM     26  C   UNL     1      -0.968   9.136  -1.623  0.00  0.00    +0.001 C 
BRANCH  26  27
ATOM     27  C   UNL     1       0.536   9.218  -1.580  0.00  0.00    +0.135 A 
ATOM     28  N   UNL     1       1.277   9.470  -0.529  0.00  0.00    -0.115 NA
ATOM     29  N   UNL     1       2.511   9.453  -0.898  0.00  0.00    -0.023 NA
ATOM     30  N   UNL     1       2.576   9.204  -2.159  0.00  0.00    -0.044 NA
ATOM     31  N   UNL     1       1.379   9.053  -2.616  0.00  0.00    -0.228 N 
BRANCH  31  32
ATOM     32  C   UNL     1       1.008   8.758  -4.002  0.00  0.00    +0.111 C 
ATOM     33  C   UNL     1       1.541   7.378  -4.390  0.00  0.00    +0.027 C 
ATOM     34  C   UNL     1       1.153   7.070  -5.838  0.00  0.00    +0.002 C 
ATOM     35  C   UNL     1       1.756   8.128  -6.764  0.00  0.00    +0.000 C 
ATOM     36  C   UNL     1       1.222   9.508  -6.376  0.00  0.00    +0.002 C 
ATOM     37  C   UNL     1       1.610   9.817  -4.928  0.00  0.00    +0.027 C 
ENDBRANCH  31  32
ENDBRANCH  26  27
ENDBRANCH   1  26
TORSDOF 7
