REMARK  Name = ZINC01105574
REMARK  4 active torsions:
REMARK  status: ('A' for Active; 'I' for Inactive)
REMARK    1  A    between atoms: C_1  and  C_2
REMARK    2  A    between atoms: C_5  and  C_9
REMARK    3  A    between atoms: C_12  and  C_14
REMARK    4  A    between atoms: N_15  and  N_16
REMARK                            x       y       z     vdW  Elec       q    Type
REMARK                         _______ _______ _______ _____ _____    ______ ____
ROOT
ATOM      1  C   UNL     1       1.249   1.807  -0.000  0.00  0.00    +0.137 A 
ATOM      2  C   UNL     1       2.098   0.740  -0.014  0.00  0.00    +0.050 A 
ATOM      3  C   UNL     1       1.306  -0.415  -0.013  0.00  0.00    +0.051 A 
ATOM      4  C   UNL     1       0.002  -0.004   0.002  0.00  0.00    +0.148 A 
ATOM      5  O   UNL     1      -0.016   1.344   0.009  0.00  0.00    -0.454 OA
ENDROOT
BRANCH   1  10
ATOM      6  C   UNL     1       2.803   7.346   0.014  0.00  0.00    +0.044 C 
ATOM      7  C   UNL     1       2.396   5.895   0.010  0.00  0.00    -0.049 A 
ATOM      8  C   UNL     1       2.961   5.019   0.920  0.00  0.00    +0.004 A 
ATOM      9  C   UNL     1       2.590   3.690   0.925  0.00  0.00    +0.013 A 
ATOM     10  C   UNL     1       1.648   3.228   0.003  0.00  0.00    +0.031 A 
ATOM     11  C   UNL     1       1.081   4.118  -0.913  0.00  0.00    +0.029 A 
ATOM     12  C   UNL     1       1.459   5.446  -0.903  0.00  0.00    +0.019 A 
ATOM     13 BR   UNL     1      -0.200   3.506  -2.162  0.00  0.00    -0.050 Br
ENDBRANCH   1  10
BRANCH   4  14
ATOM     14  C   UNL     1      -1.173  -0.878   0.008  0.00  0.00    +0.176 C 
ATOM     15  N   UNL     1      -2.368  -0.362   0.022  0.00  0.00    -0.183 NA
BRANCH  15  16
ATOM     16  N   UNL     1      -3.492  -1.198   0.028  0.00  0.00    -0.191 N 
ATOM     17  C   UNL     1      -4.729  -0.663   0.043  0.00  0.00    +0.317 C 
ATOM     18  O   UNL     1      -5.705  -1.389   0.048  0.00  0.00    -0.251 OA
ATOM     19  N   UNL     1      -4.885   0.675   0.052  0.00  0.00    -0.312 N 
ATOM     20  H   UNL     1      -3.380  -2.162   0.022  0.00  0.00    +0.179 HD
ATOM     21  H   UNL     1      -4.106   1.254   0.048  0.00  0.00    +0.147 HD
ATOM     22  H   UNL     1      -5.775   1.060   0.063  0.00  0.00    +0.147 HD
ENDBRANCH  15  16
ENDBRANCH   4  14
TORSDOF 3
