REMARK  Name = ZINC20611689
REMARK  6 active torsions:
REMARK  status: ('A' for Active; 'I' for Inactive)
REMARK    1  A    between atoms: C_1  and  C_2
REMARK    2  A    between atoms: C_2  and  C_3
REMARK    3  A    between atoms: C_2  and  C_4
REMARK    4  A    between atoms: C_4  and  C_5
REMARK    5  A    between atoms: N_13  and  C_16
REMARK    6  A    between atoms: C_16  and  C_17
REMARK                            x       y       z     vdW  Elec       q    Type
REMARK                         _______ _______ _______ _____ _____    ______ ____
ROOT
ATOM      1  C   UNL     1      -1.446  -2.008  -0.057  0.00  0.00    +0.068 C 
ATOM      2  C   UNL     1      -2.859  -2.605  -0.227  0.00  0.00    +0.107 C 
ATOM      3  C   UNL     1      -2.880  -3.852   0.701  0.00  0.00    +0.122 C 
ATOM      4  C   UNL     1      -3.914  -3.491   1.743  0.00  0.00    +0.229 C 
ATOM      5  O   UNL     1      -4.253  -4.198   2.668  0.00  0.00    -0.275 OA
ATOM      6  N   UNL     1      -4.397  -2.270   1.487  0.00  0.00    -0.237 N 
ATOM      7  C   UNL     1      -3.874  -1.673   0.391  0.00  0.00    +0.227 C 
ATOM      8  O   UNL     1      -4.164  -0.573  -0.029  0.00  0.00    -0.275 OA
ATOM      9  C   UNL     1      -1.483  -3.887   1.331  0.00  0.00    +0.136 C 
ATOM     10  N   UNL     1      -0.981  -2.494   1.270  0.00  0.00    -0.295 NA
ATOM     11  C   UNL     1      -1.527  -4.380   2.749  0.00  0.00    +0.003 A 
ATOM     12  C   UNL     1      -2.169  -3.943   3.886  0.00  0.00    +0.008 A 
ATOM     13  C   UNL     1      -2.010  -4.627   5.078  0.00  0.00    +0.000 A 
ATOM     14  C   UNL     1      -1.205  -5.751   5.125  0.00  0.00    +0.002 A 
ATOM     15  C   UNL     1      -0.561  -6.194   3.988  0.00  0.00    +0.023 A 
ATOM     16  C   UNL     1      -0.716  -5.511   2.784  0.00  0.00    +0.039 A 
ATOM     17  N   UNL     1      -0.177  -5.758   1.519  0.00  0.00    -0.283 N 
ATOM     18  C   UNL     1      -0.579  -4.849   0.610  0.00  0.00    +0.243 C 
ATOM     19  O   UNL     1      -0.271  -4.813  -0.563  0.00  0.00    -0.273 OA
ATOM     20  H   UNL     1       0.026  -2.472   1.330  0.00  0.00    +0.123 HD
ATOM     21  H   UNL     1       0.416  -6.498   1.319  0.00  0.00    +0.155 HD
ENDROOT
BRANCH   1  22
ATOM     22  C   UNL     1      -1.509  -0.479  -0.071  0.00  0.00    +0.022 C 
BRANCH  22  24
ATOM     23  C   UNL     1       0.726  -0.281  -1.171  0.00  0.00    +0.007 C 
ATOM     24  C   UNL     1      -0.096   0.091   0.065  0.00  0.00    -0.016 C 
ATOM     25  C   UNL     1      -0.170   1.614   0.188  0.00  0.00    +0.007 C 
ENDBRANCH  22  24
ENDBRANCH   1  22
BRANCH   6  26
ATOM     26  C   UNL     1      -5.418  -1.630   2.321  0.00  0.00    +0.153 C 
BRANCH  26  27
ATOM     27  C   UNL     1      -4.759  -0.974   3.506  0.00  0.00    -0.011 A 
ATOM     28  C   UNL     1      -4.676  -1.646   4.712  0.00  0.00    +0.006 A 
ATOM     29  C   UNL     1      -4.071  -1.044   5.799  0.00  0.00    +0.000 A 
ATOM     30  C   UNL     1      -3.549   0.231   5.682  0.00  0.00    +0.001 A 
ATOM     31  C   UNL     1      -3.631   0.904   4.478  0.00  0.00    +0.020 A 
ATOM     32  C   UNL     1      -4.231   0.299   3.388  0.00  0.00    +0.046 A 
ATOM     33 CL   UNL     1      -4.329   1.142   1.873  0.00  0.00    -0.083 Cl
ENDBRANCH  26  27
ENDBRANCH   6  26
TORSDOF 4
