REMARK  Name = ZINC13466510
REMARK  9 active torsions:
REMARK  status: ('A' for Active; 'I' for Inactive)
REMARK    1  A    between atoms: C_4  and  C_7
REMARK    2  A    between atoms: C_7  and  C_8
REMARK    3  A    between atoms: C_7  and  N_14
REMARK    4  A    between atoms: C_16  and  S_18
REMARK    5  A    between atoms: S_18  and  C_19
REMARK    6  A    between atoms: C_19  and  C_20
REMARK    7  A    between atoms: N_22  and  N_23
REMARK    8  A    between atoms: C_24  and  C_25
REMARK    9  A    between atoms: C_28  and  N_31
REMARK                            x       y       z     vdW  Elec       q    Type
REMARK                         _______ _______ _______ _____ _____    ______ ____
ROOT
ATOM      1  N   UNL     1       3.670  -1.842  -0.970  0.00  0.00    -0.289 NA
ATOM      2  C   UNL     1       3.081  -3.032  -0.327  0.00  0.00    +0.100 C 
ATOM      3  C   UNL     1       4.165  -3.872  -1.018  0.00  0.00    +0.075 C 
ATOM      4  C   UNL     1       4.958  -2.558  -0.988  0.00  0.00    +0.100 C 
ENDROOT
BRANCH   1   5
ATOM      5  C   UNL     1       3.711  -0.707  -0.038  0.00  0.00    +0.117 C 
BRANCH   5   9
ATOM      6  C   UNL     1       6.324   2.302  -1.576  0.00  0.00    +0.000 A 
ATOM      7  C   UNL     1       6.322   2.014  -0.224  0.00  0.00    +0.000 A 
ATOM      8  C   UNL     1       5.476   1.040   0.274  0.00  0.00    +0.005 A 
ATOM      9  C   UNL     1       4.632   0.355  -0.580  0.00  0.00    -0.026 A 
ATOM     10  C   UNL     1       4.634   0.644  -1.932  0.00  0.00    +0.005 A 
ATOM     11  C   UNL     1       5.480   1.617  -2.430  0.00  0.00    +0.000 A 
ENDBRANCH   5   9
BRANCH   5  12
ATOM     12  C   UNL     1       2.325  -0.137   0.122  0.00  0.00    -0.026 A 
ATOM     13  C   UNL     1       1.511   0.019  -0.984  0.00  0.00    +0.005 A 
ATOM     14  C   UNL     1       0.240   0.542  -0.838  0.00  0.00    +0.000 A 
ATOM     15  C   UNL     1      -0.217   0.909   0.414  0.00  0.00    +0.000 A 
ATOM     16  C   UNL     1       0.597   0.752   1.520  0.00  0.00    +0.000 A 
ATOM     17  C   UNL     1       1.867   0.225   1.375  0.00  0.00    +0.005 A 
ENDBRANCH   5  12
ENDBRANCH   1   5
BRANCH   3  18
ATOM     18  S   UNL     1       4.862  -5.185   0.022  0.00  0.00    -0.145 S 
BRANCH  18  19
ATOM     19  C   UNL     1       5.977  -6.082  -1.093  0.00  0.00    +0.166 C 
BRANCH  19  20
ATOM     20  C   UNL     1       6.631  -7.215  -0.344  0.00  0.00    +0.242 C 
ATOM     21  O   UNL     1       6.370  -7.399   0.826  0.00  0.00    -0.273 OA
ATOM     22  N   UNL     1       7.505  -8.023  -0.976  0.00  0.00    -0.206 N 
ATOM     23  H   UNL     1       7.714  -7.876  -1.911  0.00  0.00    +0.177 HD
BRANCH  22  24
ATOM     24  N   UNL     1       8.113  -9.076  -0.280  0.00  0.00    -0.188 NA
ATOM     25  C   UNL     1       8.955  -9.855  -0.887  0.00  0.00    +0.138 C 
BRANCH  25  26
ATOM     26  C   UNL     1       9.595 -10.964  -0.155  0.00  0.00    -0.005 A 
ATOM     27  C   UNL     1       9.292 -11.183   1.191  0.00  0.00    +0.012 A 
ATOM     28  C   UNL     1       9.894 -12.222   1.870  0.00  0.00    +0.033 A 
ATOM     29  C   UNL     1      10.796 -13.046   1.220  0.00  0.00    +0.126 A 
ATOM     30  C   UNL     1      11.101 -12.835  -0.113  0.00  0.00    +0.033 A 
ATOM     31  C   UNL     1      10.501 -11.803  -0.806  0.00  0.00    +0.012 A 
BRANCH  29  32
ATOM     32  N   UNL     1      11.438 -14.159   1.956  0.00  0.00    +0.056 N 
ATOM     33  O   UNL     1      11.175 -14.345   3.120  0.00  0.00    -0.126 OA
ATOM     34  O   UNL     1      12.227 -14.880   1.391  0.00  0.00    -0.126 OA
ENDBRANCH  29  32
ENDBRANCH  25  26
ENDBRANCH  22  24
ENDBRANCH  19  20
ENDBRANCH  18  19
ENDBRANCH   3  18
TORSDOF 9
