REMARK  Name = ZINC35544531
REMARK  8 active torsions:
REMARK  status: ('A' for Active; 'I' for Inactive)
REMARK    1  A    between atoms: C_1  and  C_2
REMARK    2  A    between atoms: C_2  and  O_3
REMARK    3  A    between atoms: O_3  and  C_4
REMARK    4  A    between atoms: C_4  and  C_6
REMARK    5  A    between atoms: C_13  and  C_15
REMARK    6  A    between atoms: C_20  and  N_38
REMARK    7  A    between atoms: N_28  and  C_31
REMARK    8  A    between atoms: C_31  and  C_32
REMARK                            x       y       z     vdW  Elec       q    Type
REMARK                         _______ _______ _______ _____ _____    ______ ____
ROOT
ATOM      1  C   UNL     1       2.491  -5.760  -5.668  0.00  0.00    +0.098 C 
ATOM      2  C   UNL     1       3.754  -6.449  -5.195  0.00  0.00    +0.051 C 
ATOM      3  C   UNL     1       3.487  -7.842  -4.704  0.00  0.00    -0.023 A 
ATOM      4  C   UNL     1       4.293  -8.392  -3.724  0.00  0.00    +0.038 A 
ATOM      5  C   UNL     1       4.056  -9.674  -3.267  0.00  0.00    +0.127 A 
ATOM      6  C   UNL     1       3.010 -10.414  -3.790  0.00  0.00    +0.034 A 
ATOM      7  C   UNL     1       2.201  -9.872  -4.768  0.00  0.00    +0.025 A 
ATOM      8  C   UNL     1       2.436  -8.581  -5.228  0.00  0.00    +0.033 A 
ATOM      9  N   UNL     1       1.614  -8.033  -6.204  0.00  0.00    -0.329 N 
ATOM     10  C   UNL     1       1.597  -6.615  -6.523  0.00  0.00    +0.069 C 
ATOM     11  C   UNL     1       1.883  -6.442  -8.015  0.00  0.00    -0.055 C 
ATOM     12  N   UNL     1       0.916  -7.240  -8.782  0.00  0.00    +0.385 N 
ATOM     13  C   UNL     1       1.069  -8.667  -8.476  0.00  0.00    -0.059 C 
ATOM     14  C   UNL     1       0.737  -8.913  -7.003  0.00  0.00    +0.087 C 
ATOM     15  H   UNL     1      -0.020  -6.947  -8.545  0.00  0.00    -0.081 HD
ENDROOT
BRANCH   1  22
ATOM     16  C   UNL     1       0.786  -2.212  -3.047  0.00  0.00    +0.115 C 
ATOM     17  C   UNL     1       2.032  -1.374  -3.340  0.00  0.00    +0.018 C 
ATOM     18  C   UNL     1       2.757  -1.943  -4.561  0.00  0.00    +0.020 C 
ATOM     19  C   UNL     1       3.199  -3.379  -4.264  0.00  0.00    +0.108 C 
ATOM     20  N   UNL     1       2.027  -4.157  -3.841  0.00  0.00    -0.300 N 
ATOM     21  C   UNL     1       1.205  -3.652  -2.733  0.00  0.00    +0.122 C 
ATOM     22  C   UNL     1       1.711  -5.313  -4.459  0.00  0.00    +0.221 C 
ATOM     23  O   UNL     1       0.798  -5.994  -4.041  0.00  0.00    -0.275 OA
BRANCH  16  24
ATOM     24  C   UNL     1       0.055  -1.632  -1.864  0.00  0.00    +0.312 C 
ATOM     25  O   UNL     1      -0.115  -2.300  -0.871  0.00  0.00    -0.250 OA
BRANCH  24  26
ATOM     26  O   UNL     1      -0.407  -0.373  -1.912  0.00  0.00    -0.465 OA
BRANCH  26  28
ATOM     27  C   UNL     1      -1.540   1.555  -0.995  0.00  0.00    +0.048 C 
ATOM     28  C   UNL     1      -1.090   0.113  -0.755  0.00  0.00    +0.229 C 
ENDBRANCH  26  28
ENDBRANCH  24  26
ENDBRANCH  16  24
ENDBRANCH   1  22
BRANCH   5  29
ATOM     29  N   UNL     1       4.921 -10.257  -2.218  0.00  0.00    +0.056 N 
ATOM     30  O   UNL     1       5.835  -9.611  -1.760  0.00  0.00    -0.126 OA
ATOM     31  O   UNL     1       4.714 -11.379  -1.818  0.00  0.00    -0.126 OA
ENDBRANCH   5  29
BRANCH  12  32
ATOM     32  C   UNL     1       1.141  -7.026 -10.218  0.00  0.00    -0.043 C 
BRANCH  32  33
ATOM     33  C   UNL     1       0.076  -7.745 -11.006  0.00  0.00    -0.064 A 
ATOM     34  C   UNL     1       0.274  -9.055 -11.401  0.00  0.00    +0.002 A 
ATOM     35  C   UNL     1      -0.703  -9.714 -12.124  0.00  0.00    +0.000 A 
ATOM     36  C   UNL     1      -1.877  -9.063 -12.452  0.00  0.00    +0.000 A 
ATOM     37  C   UNL     1      -2.075  -7.753 -12.056  0.00  0.00    +0.000 A 
ATOM     38  C   UNL     1      -1.101  -7.096 -11.330  0.00  0.00    +0.002 A 
ENDBRANCH  32  33
ENDBRANCH  12  32
TORSDOF 7
