REMARK  Name = ZINC46722353
REMARK  4 active torsions:
REMARK  status: ('A' for Active; 'I' for Inactive)
REMARK    1  A    between atoms: C_9  and  C_18
REMARK    2  A    between atoms: C_18  and  N_19
REMARK    3  A    between atoms: N_19  and  S_20
REMARK    4  A    between atoms: S_20  and  C_23
REMARK                            x       y       z     vdW  Elec       q    Type
REMARK                         _______ _______ _______ _____ _____    ______ ____
ROOT
ATOM      1  N   UNL     1       3.679  -1.655   3.656  0.00  0.00    -0.190 NA
ATOM      2  H   UNL     1       3.461  -2.598   3.591  0.00  0.00    +0.148 HD
ENDROOT
BRANCH   1   3
ATOM      3  S   UNL     1       4.124  -1.007   5.114  0.00  0.00    +0.060 S 
ATOM      4  O   UNL     1       4.066  -2.063   6.062  0.00  0.00    -0.153 OA
ATOM      5  O   UNL     1       5.308  -0.256   4.880  0.00  0.00    -0.153 OA
BRANCH   3   6
ATOM      6  C   UNL     1       2.877   0.150   5.572  0.00  0.00    +0.127 A 
ATOM      7  C   UNL     1       2.104  -0.078   6.697  0.00  0.00    +0.077 A 
ATOM      8  C   UNL     1       1.125   0.830   7.058  0.00  0.00    +0.144 A 
ATOM      9  C   UNL     1       0.919   1.973   6.285  0.00  0.00    +0.077 A 
ATOM     10  C   UNL     1       1.695   2.197   5.161  0.00  0.00    +0.049 A 
ATOM     11  C   UNL     1       2.677   1.287   4.809  0.00  0.00    +0.069 A 
ATOM     12 CL   UNL     1       3.656   1.569   3.404  0.00  0.00    -0.081 Cl
ATOM     13  N   UNL     1      -0.077   2.884   6.662  0.00  0.00    -0.280 N 
ATOM     14  C   UNL     1      -0.594   2.811   7.908  0.00  0.00    +0.255 C 
ATOM     15  O   UNL     1      -1.479   3.569   8.245  0.00  0.00    -0.272 OA
ATOM     16  C   UNL     1      -0.068   1.784   8.877  0.00  0.00    +0.325 C 
ATOM     17  O   UNL     1       0.358   0.622   8.161  0.00  0.00    -0.481 OA
ATOM     18  H   UNL     1      -0.391   3.557   6.037  0.00  0.00    +0.155 HD
ENDBRANCH   3   6
ENDBRANCH   1   3
BRANCH   1  19
ATOM     19  C   UNL     1       3.613  -0.803   2.466  0.00  0.00    +0.110 C 
BRANCH  19  28
ATOM     20  C   UNL     1      -0.017   1.385   0.010  0.00  0.00    +0.000 A 
ATOM     21  C   UNL     1       1.165   2.102   0.002  0.00  0.00    +0.000 A 
ATOM     22  C   UNL     1       2.388   1.442  -0.013  0.00  0.00    +0.004 A 
ATOM     23  C   UNL     1       2.399   0.077  -0.021  0.00  0.00    -0.036 A 
ATOM     24  C   UNL     1       1.207  -0.646  -0.013  0.00  0.00    -0.036 A 
ATOM     25  C   UNL     1       0.002  -0.004   0.002  0.00  0.00    +0.004 A 
ATOM     26  C   UNL     1       1.389  -2.155  -0.024  0.00  0.00    +0.050 C 
ATOM     27  C   UNL     1       2.245  -2.473   1.222  0.00  0.00    +0.018 C 
ATOM     28  C   UNL     1       3.551  -1.681   1.214  0.00  0.00    +0.017 C 
ATOM     29  C   UNL     1       3.654  -0.782  -0.039  0.00  0.00    +0.054 C 
ATOM     30  C   UNL     1       3.480  -1.720  -1.223  0.00  0.00    -0.036 A 
ATOM     31  C   UNL     1       2.289  -2.442  -1.215  0.00  0.00    -0.036 A 
ATOM     32  C   UNL     1       1.999  -3.322  -2.218  0.00  0.00    +0.004 A 
ATOM     33  C   UNL     1       2.915  -3.486  -3.250  0.00  0.00    +0.000 A 
ATOM     34  C   UNL     1       4.097  -2.770  -3.257  0.00  0.00    +0.000 A 
ATOM     35  C   UNL     1       4.385  -1.876  -2.234  0.00  0.00    +0.004 A 
ENDBRANCH  19  28
ENDBRANCH   1  19
TORSDOF 4
