REMARK  Name = ZINC08789509
REMARK  3 active torsions:
REMARK  status: ('A' for Active; 'I' for Inactive)
REMARK    1  A    between atoms: C_4  and  C_7
REMARK    2  A    between atoms: C_7  and  C_8
REMARK    3  A    between atoms: N_16  and  C_19
REMARK                            x       y       z     vdW  Elec       q    Type
REMARK                         _______ _______ _______ _____ _____    ______ ____
ROOT
ATOM      1  C   UNL     1       1.372   5.669  -0.778  0.00  0.00    -0.053 C 
ATOM      2  C   UNL     1       1.798   5.671   0.706  0.00  0.00    +0.073 C 
ATOM      3  C   UNL     1       1.423   4.256   1.229  0.00  0.00    +0.088 C 
ATOM      4  C   UNL     1       0.319   4.558   2.242  0.00  0.00    +0.225 C 
ATOM      5  O   UNL     1      -0.275   3.727   2.896  0.00  0.00    -0.275 OA
ATOM      6  N   UNL     1       0.115   5.879   2.301  0.00  0.00    -0.239 N 
ATOM      7  C   UNL     1       0.890   6.598   1.482  0.00  0.00    +0.224 C 
ATOM      8  O   UNL     1       0.869   7.806   1.378  0.00  0.00    -0.275 OA
ATOM      9  C   UNL     1       0.831   3.537   0.011  0.00  0.00    +0.050 C 
ATOM     10  C   UNL     1       1.192   2.079   0.002  0.00  0.00    -0.028 A 
ATOM     11  C   UNL     1       2.388   1.398  -0.012  0.00  0.00    +0.004 A 
ATOM     12  C   UNL     1       2.398   0.015  -0.018  0.00  0.00    +0.000 A 
ATOM     13  C   UNL     1       1.203  -0.682  -0.011  0.00  0.00    +0.002 A 
ATOM     14  C   UNL     1       0.002  -0.004   0.002  0.00  0.00    +0.023 A 
ATOM     15  C   UNL     1      -0.017   1.389   0.010  0.00  0.00    +0.036 A 
ATOM     16  N   UNL     1      -1.086   2.287   0.030  0.00  0.00    -0.286 N 
ATOM     17  C   UNL     1      -0.673   3.569   0.029  0.00  0.00    +0.211 C 
ATOM     18  O   UNL     1      -1.376   4.556   0.044  0.00  0.00    -0.277 OA
ATOM     19  H   UNL     1      -2.018   2.019   0.042  0.00  0.00    +0.155 HD
ATOM     20  N   UNL     1       1.358   4.250  -1.140  0.00  0.00    +0.394 N 
ATOM     21  H   UNL     1       2.310   3.928  -1.351  0.00  0.00    -0.083 HD
ATOM     22  H   UNL     1       0.756   4.098  -1.957  0.00  0.00    -0.083 HD
ENDROOT
BRANCH   6  23
ATOM     23  C   UNL     1      -0.878   6.488   3.191  0.00  0.00    +0.084 C 
ATOM     24  C   UNL     1      -1.923   7.233   2.336  0.00  0.00    +0.023 C 
ATOM     25  C   UNL     1      -3.174   7.407   3.157  0.00  0.00    +0.002 C 
ATOM     26  C   UNL     1      -3.217   8.768   3.879  0.00  0.00    +0.000 C 
ATOM     27  C   UNL     1      -1.858   9.166   4.485  0.00  0.00    +0.000 C 
ATOM     28  C   UNL     1      -1.160   8.008   5.145  0.00  0.00    +0.002 C 
ATOM     29  C   UNL     1      -0.195   7.372   4.124  0.00  0.00    +0.023 C 
ENDBRANCH   6  23
BRANCH   1  30
ATOM     30  C   UNL     1       2.378   6.452  -1.624  0.00  0.00    +0.020 C 
BRANCH  30  34
ATOM     31  C   UNL     1       1.070   6.521  -5.690  0.00  0.00    +0.000 A 
ATOM     32  C   UNL     1       0.675   7.520  -4.820  0.00  0.00    +0.000 A 
ATOM     33  C   UNL     1       1.098   7.497  -3.504  0.00  0.00    +0.003 A 
ATOM     34  C   UNL     1       1.917   6.476  -3.058  0.00  0.00    -0.049 A 
ATOM     35  C   UNL     1       2.316   5.480  -3.930  0.00  0.00    +0.003 A 
ATOM     36  C   UNL     1       1.889   5.500  -5.244  0.00  0.00    +0.000 A 
ENDBRANCH  30  34
ENDBRANCH   1  30
TORSDOF 3
