REMARK  Name = ZINC24989359
REMARK  8 active torsions:
REMARK  status: ('A' for Active; 'I' for Inactive)
REMARK    1  A    between atoms: C_1  and  O_2
REMARK    2  A    between atoms: O_2  and  C_3
REMARK    3  A    between atoms: C_3  and  C_5
REMARK    4  A    between atoms: C_5  and  C_7
REMARK    5  A    between atoms: C_5  and  N_14
REMARK    6  A    between atoms: C_20  and  C_22
REMARK    7  A    between atoms: C_25  and  C_27
REMARK    8  A    between atoms: C_30  and  N_33
REMARK                            x       y       z     vdW  Elec       q    Type
REMARK                         _______ _______ _______ _____ _____    ______ ____
ROOT
ATOM      1  N   UNL     1       0.743  -2.916   2.225  0.00  0.00    +0.393 N 
ATOM      2  C   UNL     1       1.223  -4.299   2.339  0.00  0.00    -0.058 C 
ATOM      3  C   UNL     1       2.267  -4.384   3.457  0.00  0.00    +0.089 C 
ATOM      4  N   UNL     1       1.683  -3.825   4.685  0.00  0.00    -0.299 N 
ATOM      5  C   UNL     1       1.059  -2.495   4.617  0.00  0.00    +0.089 C 
ATOM      6  C   UNL     1       0.062  -2.485   3.453  0.00  0.00    -0.058 C 
ATOM      7  C   UNL     1       1.719  -4.513   5.844  0.00  0.00    +0.282 C 
ATOM      8  O   UNL     1       2.123  -5.661   5.857  0.00  0.00    -0.267 OA
ATOM      9  H   UNL     1       1.621  -2.268   2.084  0.00  0.00    -0.080 HD
ENDROOT
BRANCH   7  10
ATOM     10  C   UNL     1       1.272  -3.879   7.087  0.00  0.00    +0.190 A 
ATOM     11  C   UNL     1       1.119  -4.505   8.304  0.00  0.00    +0.055 A 
ATOM     12  C   UNL     1       0.677  -3.531   9.206  0.00  0.00    +0.050 A 
ATOM     13  C   UNL     1       0.578  -2.358   8.514  0.00  0.00    +0.136 A 
ATOM     14  O   UNL     1       0.943  -2.579   7.240  0.00  0.00    -0.450 OA
BRANCH  13  15
ATOM     15  C   UNL     1       0.146  -1.062   9.073  0.00  0.00    +0.017 A 
ATOM     16  C   UNL     1      -0.210  -0.963  10.420  0.00  0.00    +0.014 A 
ATOM     17  C   UNL     1      -0.608   0.252  10.938  0.00  0.00    +0.033 A 
ATOM     18  C   UNL     1      -0.665   1.369  10.123  0.00  0.00    +0.126 A 
ATOM     19  C   UNL     1      -0.319   1.277   8.787  0.00  0.00    +0.033 A 
ATOM     20  C   UNL     1       0.086   0.070   8.257  0.00  0.00    +0.014 A 
BRANCH  18  21
ATOM     21  N   UNL     1      -1.098   2.669  10.684  0.00  0.00    +0.056 N 
ATOM     22  O   UNL     1      -1.150   3.654   9.970  0.00  0.00    -0.126 OA
ATOM     23  O   UNL     1      -1.403   2.753  11.860  0.00  0.00    -0.126 OA
ENDBRANCH  18  21
ENDBRANCH  13  15
ENDBRANCH   7  10
BRANCH   1  24
ATOM     24  C   UNL     1      -0.131  -2.756   1.055  0.00  0.00    +0.073 C 
BRANCH  24  25
ATOM     25  C   UNL     1       0.601  -3.207  -0.183  0.00  0.00    -0.050 A 
ATOM     26  C   UNL     1       1.938  -2.897  -0.347  0.00  0.00    +0.005 A 
ATOM     27  C   UNL     1       2.611  -3.315  -1.479  0.00  0.00    +0.038 A 
ATOM     28  C   UNL     1       1.943  -4.034  -2.456  0.00  0.00    +0.123 A 
ATOM     29  C   UNL     1       0.602  -4.339  -2.293  0.00  0.00    +0.038 A 
ATOM     30  C   UNL     1      -0.068  -3.926  -1.157  0.00  0.00    +0.005 A 
ATOM     31  F   UNL     1       2.598  -4.438  -3.566  0.00  0.00    -0.205 F 
ENDBRANCH  24  25
BRANCH  24  32
ATOM     32  C   UNL     1      -0.517  -1.307   0.910  0.00  0.00    +0.297 C 
ATOM     33  O   UNL     1      -0.107  -0.490   1.700  0.00  0.00    -0.252 OA
BRANCH  32  35
ATOM     34  C   UNL     1      -1.648   0.489  -0.175  0.00  0.00    +0.280 C 
ATOM     35  O   UNL     1      -1.317  -0.923  -0.097  0.00  0.00    -0.469 OA
ENDBRANCH  32  35
ENDBRANCH  24  32
ENDBRANCH   1  24
TORSDOF 7
