REMARK  Name = ZINC12717258
REMARK  9 active torsions:
REMARK  status: ('A' for Active; 'I' for Inactive)
REMARK    1  A    between atoms: C_1  and  C_2
REMARK    2  A    between atoms: C_9  and  C_14
REMARK    3  A    between atoms: C_14  and  N_15
REMARK    4  A    between atoms: N_15  and  C_16
REMARK    5  A    between atoms: N_15  and  C_23
REMARK    6  A    between atoms: C_16  and  C_17
REMARK    7  A    between atoms: C_23  and  C_24
REMARK    8  A    between atoms: N_28  and  C_29
REMARK    9  A    between atoms: C_29  and  C_30
REMARK                            x       y       z     vdW  Elec       q    Type
REMARK                         _______ _______ _______ _____ _____    ______ ____
ROOT
ATOM      1  N   UNL     1      -1.330  -5.392   3.858  0.00  0.00    +0.390 N 
ATOM      2  H   UNL     1      -1.741  -5.926   3.108  0.00  0.00    -0.080 HD
ENDROOT
BRANCH   1   3
ATOM      3  C   UNL     1       0.054  -5.043   3.510  0.00  0.00    -0.036 C 
BRANCH   3  12
ATOM      4  C   UNL     1       2.623 -10.020  -1.414  0.00  0.00    +0.044 C 
ATOM      5  C   UNL     1       2.485  -9.523   0.002  0.00  0.00    -0.050 A 
ATOM      6  C   UNL     1       3.074 -10.232   1.041  0.00  0.00    +0.005 A 
ATOM      7  C   UNL     1       2.960  -9.796   2.343  0.00  0.00    +0.026 A 
ATOM      8  C   UNL     1       2.249  -8.633   2.622  0.00  0.00    +0.049 A 
ATOM      9  C   UNL     1       1.653  -7.918   1.567  0.00  0.00    -0.001 A 
ATOM     10  C   UNL     1       1.785  -8.377   0.252  0.00  0.00    +0.013 A 
ATOM     11  C   UNL     1       0.906  -6.696   1.871  0.00  0.00    +0.017 A 
ATOM     12  C   UNL     1       0.815  -6.297   3.163  0.00  0.00    +0.001 A 
ATOM     13  C   UNL     1       1.432  -7.051   4.185  0.00  0.00    +0.251 A 
ATOM     14  O   UNL     1       1.338  -6.674   5.340  0.00  0.00    -0.268 OA
ATOM     15  N   UNL     1       2.120  -8.174   3.915  0.00  0.00    -0.322 N 
ATOM     16  H   UNL     1       2.530  -8.669   4.642  0.00  0.00    +0.169 HD
ENDBRANCH   3  12
ENDBRANCH   1   3
BRANCH   1  17
ATOM     17  C   UNL     1      -2.107  -4.163   4.067  0.00  0.00    -0.042 C 
BRANCH  17  18
ATOM     18  C   UNL     1      -2.218  -3.412   2.765  0.00  0.00    -0.064 A 
ATOM     19  C   UNL     1      -1.327  -2.395   2.475  0.00  0.00    +0.002 A 
ATOM     20  C   UNL     1      -1.429  -1.706   1.281  0.00  0.00    +0.000 A 
ATOM     21  C   UNL     1      -2.421  -2.035   0.376  0.00  0.00    +0.000 A 
ATOM     22  C   UNL     1      -3.311  -3.052   0.665  0.00  0.00    +0.000 A 
ATOM     23  C   UNL     1      -3.207  -3.744   1.858  0.00  0.00    +0.002 A 
ENDBRANCH  17  18
ENDBRANCH   1  17
BRANCH   1  24
ATOM     24  C   UNL     1      -1.339  -6.191   5.091  0.00  0.00    +0.001 C 
BRANCH  24  25
ATOM     25  C   UNL     1      -2.744  -6.652   5.381  0.00  0.00    +0.135 A 
ATOM     26  N   UNL     1      -3.645  -6.018   6.091  0.00  0.00    -0.115 NA
ATOM     27  N   UNL     1      -4.716  -6.733   6.106  0.00  0.00    -0.023 NA
ATOM     28  N   UNL     1      -4.522  -7.808   5.425  0.00  0.00    -0.044 NA
ATOM     29  N   UNL     1      -3.319  -7.792   4.957  0.00  0.00    -0.227 N 
BRANCH  29  30
ATOM     30  C   UNL     1      -2.696  -8.824   4.123  0.00  0.00    +0.182 C 
BRANCH  30  31
ATOM     31  C   UNL     1      -2.024  -9.844   5.005  0.00  0.00    -0.026 A 
ATOM     32  C   UNL     1      -0.705  -9.670   5.381  0.00  0.00    +0.005 A 
ATOM     33  C   UNL     1      -0.087 -10.606   6.190  0.00  0.00    +0.000 A 
ATOM     34  C   UNL     1      -0.789 -11.715   6.624  0.00  0.00    +0.000 A 
ATOM     35  C   UNL     1      -2.109 -11.888   6.249  0.00  0.00    +0.000 A 
ATOM     36  C   UNL     1      -2.727 -10.950   5.444  0.00  0.00    +0.005 A 
ENDBRANCH  30  31
ENDBRANCH  29  30
ENDBRANCH  24  25
ENDBRANCH   1  24
TORSDOF 8
