REMARK  Name = ZINC06856421
REMARK  5 active torsions:
REMARK  status: ('A' for Active; 'I' for Inactive)
REMARK    1  A    between atoms: C_1  and  C_2
REMARK    2  A    between atoms: C_5  and  C_7
REMARK    3  A    between atoms: C_5  and  O_10
REMARK    4  A    between atoms: C_11  and  C_13
REMARK    5  A    between atoms: C_15  and  C_19
REMARK                            x       y       z     vdW  Elec       q    Type
REMARK                         _______ _______ _______ _____ _____    ______ ____
ROOT
ATOM      1  C   UNL     1       4.866  -0.516  -0.045  0.00  0.00    +0.062 C 
ATOM      2  C   UNL     1       3.407  -0.893  -0.034  0.00  0.00    +0.039 C 
ATOM      3  N   UNL     1       2.440  -0.070  -0.027  0.00  0.00    -0.184 NA
ATOM      4  N   UNL     1       1.178  -0.662  -0.012  0.00  0.00    -0.150 N 
ATOM      5  C   UNL     1       1.343  -2.125  -0.022  0.00  0.00    +0.222 C 
ATOM      6  C   UNL     1       2.874  -2.308  -0.036  0.00  0.00    +0.115 C 
ATOM      7  C   UNL     1       0.002  -0.004   0.002  0.00  0.00    +0.286 C 
ATOM      8  O   UNL     1      -1.043  -0.627   0.008  0.00  0.00    -0.266 OA
ENDROOT
BRANCH   7   9
ATOM      9  C   UNL     1      -0.018   1.467   0.010  0.00  0.00    +0.123 A 
ATOM     10  C   UNL     1      -1.136   2.280   0.019  0.00  0.00    +0.062 A 
ATOM     11  C   UNL     1      -0.639   3.595   0.027  0.00  0.00    +0.093 A 
ATOM     12  N   UNL     1       0.676   3.524   0.014  0.00  0.00    -0.173 NA
ATOM     13  N   UNL     1       1.066   2.300   0.004  0.00  0.00    -0.272 N 
ATOM     14  H   UNL     1       2.020   2.002  -0.006  0.00  0.00    +0.189 HD
BRANCH  11  15
ATOM     15  C   UNL     1      -1.449   4.839   0.041  0.00  0.00    +0.003 A 
ATOM     16  C   UNL     1      -0.821   6.083   0.042  0.00  0.00    +0.010 A 
ATOM     17  C   UNL     1      -1.579   7.236   0.054  0.00  0.00    +0.002 A 
ATOM     18  C   UNL     1      -2.960   7.160   0.067  0.00  0.00    +0.015 A 
ATOM     19  C   UNL     1      -3.589   5.927   0.066  0.00  0.00    +0.019 A 
ATOM     20  C   UNL     1      -2.840   4.767   0.047  0.00  0.00    +0.025 A 
ATOM     21 BR   UNL     1      -5.478   5.832   0.083  0.00  0.00    -0.050 Br
ENDBRANCH  11  15
ENDBRANCH   7   9
BRANCH   5  22
ATOM     22  C   UNL     1       0.711  -2.732  -1.276  0.00  0.00    +0.393 C 
ATOM     23  F   UNL     1       1.305  -2.175  -2.413  0.00  0.00    -0.204 F 
ATOM     24  F   UNL     1       0.911  -4.116  -1.276  0.00  0.00    -0.204 F 
ENDBRANCH   5  22
BRANCH   5  25
ATOM     25  O   UNL     1       0.777  -2.704   1.156  0.00  0.00    -0.365 OA
ATOM     26  H   UNL     1      -0.173  -2.554   1.251  0.00  0.00    +0.212 HD
ENDBRANCH   5  25
TORSDOF 4
