REMARK  Name = ZINC01165975
REMARK  7 active torsions:
REMARK  status: ('A' for Active; 'I' for Inactive)
REMARK    1  A    between atoms: C_1  and  C_2
REMARK    2  A    between atoms: C_9  and  N_28
REMARK    3  A    between atoms: C_10  and  C_13
REMARK    4  A    between atoms: N_17  and  C_21
REMARK    5  A    between atoms: C_21  and  C_22
REMARK    6  A    between atoms: N_28  and  C_29
REMARK    7  A    between atoms: C_29  and  C_30
REMARK                            x       y       z     vdW  Elec       q    Type
REMARK                         _______ _______ _______ _____ _____    ______ ____
ROOT
ATOM      1  C   UNL     1       7.926   4.941   0.191  0.00  0.00    +0.047 C 
ATOM      2  C   UNL     1       6.480   5.365   0.228  0.00  0.00    -0.007 A 
ATOM      3  C   UNL     1       6.154   6.685   0.320  0.00  0.00    +0.008 A 
ATOM      4  C   UNL     1       4.805   7.064   0.353  0.00  0.00    +0.019 A 
ATOM      5  C   UNL     1       3.835   6.123   0.294  0.00  0.00    +0.096 A 
ATOM      6  N   UNL     1       4.151   4.800   0.202  0.00  0.00    -0.267 N 
ATOM      7  C   UNL     1       5.458   4.401   0.168  0.00  0.00    +0.145 A 
ATOM      8  N   UNL     1       5.787   3.112   0.078  0.00  0.00    -0.214 NA
ATOM      9  C   UNL     1       4.865   2.161   0.018  0.00  0.00    +0.134 A 
ATOM     10  C   UNL     1       3.496   2.515   0.049  0.00  0.00    +0.081 A 
ATOM     11  C   UNL     1       3.158   3.887   0.139  0.00  0.00    +0.267 A 
ATOM     12  O   UNL     1       1.991   4.238   0.164  0.00  0.00    -0.267 OA
ENDROOT
BRANCH  10  13
ATOM     13  C   UNL     1       2.489   1.524  -0.013  0.00  0.00    +0.037 C 
ATOM     14  C   UNL     1       2.469   0.513   0.904  0.00  0.00    +0.077 C 
ATOM     15  C   UNL     1       1.635  -0.640   0.963  0.00  0.00    +0.259 C 
ATOM     16  O   UNL     1       0.782  -0.841   0.116  0.00  0.00    -0.269 OA
ATOM     17  N   UNL     1       1.808  -1.483   1.966  0.00  0.00    -0.251 N 
ATOM     18  C   UNL     1       2.756  -1.262   2.904  0.00  0.00    +0.121 C 
ATOM     19  S   UNL     1       3.155  -2.212   4.271  0.00  0.00    -0.027 S 
ATOM     20  S   UNL     1       3.484   0.275   2.356  0.00  0.00    -0.061 S 
BRANCH  17  21
ATOM     21  C   UNL     1       0.962  -2.675   2.061  0.00  0.00    +0.150 C 
BRANCH  21  22
ATOM     22  C   UNL     1       1.614  -3.813   1.319  0.00  0.00    -0.030 A 
ATOM     23  C   UNL     1       1.337  -4.014  -0.020  0.00  0.00    +0.005 A 
ATOM     24  C   UNL     1       1.939  -5.055  -0.702  0.00  0.00    +0.000 A 
ATOM     25  C   UNL     1       2.809  -5.902  -0.042  0.00  0.00    +0.000 A 
ATOM     26  C   UNL     1       3.082  -5.705   1.299  0.00  0.00    +0.000 A 
ATOM     27  C   UNL     1       2.484  -4.661   1.979  0.00  0.00    +0.005 A 
ENDBRANCH  21  22
ENDBRANCH  17  21
ENDBRANCH  10  13
BRANCH   9  28
ATOM     28  N   UNL     1       5.238   0.838  -0.075  0.00  0.00    -0.321 N 
ATOM     29  H   UNL     1       4.560   0.146  -0.119  0.00  0.00    +0.148 HD
BRANCH  28  30
ATOM     30  C   UNL     1       6.657   0.478  -0.107  0.00  0.00    +0.177 C 
BRANCH  30  31
ATOM     31  C   UNL     1       6.793  -1.020  -0.211  0.00  0.00    +0.122 A 
ATOM     32  C   UNL     1       6.853  -1.727  -1.354  0.00  0.00    +0.046 A 
ATOM     33  C   UNL     1       6.980  -3.087  -0.988  0.00  0.00    +0.041 A 
ATOM     34  C   UNL     1       6.983  -3.130   0.357  0.00  0.00    +0.195 A 
ATOM     35  O   UNL     1       6.869  -1.875   0.822  0.00  0.00    -0.466 OA
ENDBRANCH  30  31
ENDBRANCH  28  30
ENDBRANCH   9  28
TORSDOF 6
