REMARK  Name = ZINC35231913
REMARK  5 active torsions:
REMARK  status: ('A' for Active; 'I' for Inactive)
REMARK    1  A    between atoms: C_4  and  N_7
REMARK    2  A    between atoms: N_10  and  C_11
REMARK    3  A    between atoms: N_10  and  C_35
REMARK    4  A    between atoms: C_11  and  C_12
REMARK    5  A    between atoms: C_26  and  C_28
REMARK                            x       y       z     vdW  Elec       q    Type
REMARK                         _______ _______ _______ _____ _____    ______ ____
ROOT
ATOM      1  C   UNL     1       4.604  -4.519  -1.629  0.00  0.00    +0.238 C 
ATOM      2  O   UNL     1       4.525  -4.091  -0.497  0.00  0.00    -0.273 OA
ATOM      3  N   UNL     1       4.648  -5.848  -1.846  0.00  0.00    -0.255 N 
ATOM      4  C   UNL     1       4.404  -6.737  -0.791  0.00  0.00    +0.061 A 
ATOM      5  C   UNL     1       3.569  -6.378   0.256  0.00  0.00    +0.025 A 
ATOM      6  C   UNL     1       3.347  -7.260   1.295  0.00  0.00    +0.002 A 
ATOM      7  C   UNL     1       3.953  -8.504   1.301  0.00  0.00    +0.002 A 
ATOM      8  C   UNL     1       4.785  -8.875   0.259  0.00  0.00    +0.028 A 
ATOM      9  C   UNL     1       5.007  -8.000  -0.786  0.00  0.00    +0.068 A 
ATOM     10  N   UNL     1       5.821  -8.341  -1.876  0.00  0.00    -0.316 N 
ATOM     11  C   UNL     1       6.690  -9.368  -2.030  0.00  0.00    +0.092 A 
ATOM     12  C   UNL     1       7.245  -9.270  -3.259  0.00  0.00    +0.020 A 
ATOM     13  C   UNL     1       6.689  -8.134  -3.888  0.00  0.00    +0.025 A 
ATOM     14  C   UNL     1       5.823  -7.586  -3.029  0.00  0.00    +0.049 A 
ATOM     15  C   UNL     1       4.945  -6.364  -3.193  0.00  0.00    +0.159 C 
ENDROOT
BRANCH  15  16
ATOM     16  C   UNL     1       3.664  -6.740  -3.890  0.00  0.00    -0.020 A 
ATOM     17  C   UNL     1       2.650  -7.362  -3.185  0.00  0.00    +0.006 A 
ATOM     18  C   UNL     1       1.474  -7.707  -3.824  0.00  0.00    +0.002 A 
ATOM     19  C   UNL     1       1.311  -7.432  -5.169  0.00  0.00    +0.020 A 
ATOM     20  C   UNL     1       2.325  -6.811  -5.875  0.00  0.00    +0.041 A 
ATOM     21  C   UNL     1       3.500  -6.459  -5.233  0.00  0.00    +0.025 A 
ATOM     22 CL   UNL     1       2.122  -6.465  -7.564  0.00  0.00    -0.084 Cl
ENDBRANCH  15  16
BRANCH   1  23
ATOM     23  C   UNL     1       4.652  -3.563  -2.794  0.00  0.00    +0.205 C 
BRANCH  23  27
ATOM     24  N   UNL     1       5.891  -0.357  -1.494  0.00  0.00    -0.269 N 
ATOM     25  C   UNL     1       5.863  -1.586  -2.045  0.00  0.00    +0.307 C 
ATOM     26  O   UNL     1       6.903  -2.154  -2.317  0.00  0.00    -0.252 OA
ATOM     27  N   UNL     1       4.682  -2.186  -2.295  0.00  0.00    -0.274 N 
ATOM     28  H   UNL     1       5.068   0.055  -1.185  0.00  0.00    +0.156 HD
BRANCH  24  32
ATOM     29  C   UNL     1       9.508   1.675  -1.113  0.00  0.00    +0.000 A 
ATOM     30  C   UNL     1       8.320   2.382  -1.155  0.00  0.00    +0.002 A 
ATOM     31  C   UNL     1       7.120   1.712  -1.282  0.00  0.00    +0.023 A 
ATOM     32  C   UNL     1       7.106   0.326  -1.366  0.00  0.00    +0.035 A 
ATOM     33  C   UNL     1       8.300  -0.382  -1.323  0.00  0.00    +0.023 A 
ATOM     34  C   UNL     1       9.497   0.295  -1.197  0.00  0.00    +0.002 A 
ENDBRANCH  24  32
BRANCH  27  35
ATOM     35  C   UNL     1       3.430  -1.461  -2.068  0.00  0.00    +0.078 C 
ATOM     36  C   UNL     1       2.122  -2.221  -2.300  0.00  0.00    +0.024 C 
ATOM     37  C   UNL     1       2.566  -1.143  -3.291  0.00  0.00    +0.024 C 
ENDBRANCH  27  35
ENDBRANCH  23  27
ENDBRANCH   1  23
TORSDOF 5
