REMARK  Name = ZINC40982378
REMARK  14 active torsions:
REMARK  status: ('A' for Active; 'I' for Inactive)
REMARK    1  A    between atoms: C_1  and  C_2
REMARK    2  A    between atoms: C_2  and  C_3
REMARK    3  A    between atoms: C_3  and  S_4
REMARK    4  A    between atoms: S_4  and  C_5
REMARK    5  A    between atoms: C_10  and  C_19
REMARK    6  A    between atoms: C_12  and  C_16
REMARK    7  A    between atoms: C_13  and  C_15
REMARK    8  A    between atoms: C_24  and  O_25
REMARK    9  A    between atoms: O_25  and  C_26
REMARK   10  A    between atoms: C_26  and  C_27
REMARK   11  A    between atoms: C_30  and  C_33
REMARK   12  A    between atoms: C_33  and  C_34
REMARK   13  A    between atoms: C_33  and  C_35
REMARK   14  A    between atoms: C_33  and  C_36
REMARK                            x       y       z     vdW  Elec       q    Type
REMARK                         _______ _______ _______ _____ _____    ______ ____
ROOT
ATOM      1  C   UNL     1       1.265  -2.759   2.961  0.00  0.00    +0.210 A 
ATOM      2  N   UNL     1       1.812  -1.888   3.821  0.00  0.00    -0.187 NA
ATOM      3  C   UNL     1       2.558  -2.531   4.678  0.00  0.00    +0.219 A 
ATOM      4  N   UNL     1       2.506  -3.851   4.374  0.00  0.00    -0.220 N 
ATOM      5  N   UNL     1       1.662  -3.974   3.271  0.00  0.00    -0.141 NA
ATOM      6  C   UNL     1       3.230  -4.880   5.116  0.00  0.00    +0.181 C 
ATOM      7  C   UNL     1       3.764  -4.294   6.395  0.00  0.00    +0.060 C 
ATOM      8  C   UNL     1       3.787  -2.976   6.643  0.00  0.00    +0.018 C 
ATOM      9  N   UNL     1       3.308  -2.054   5.744  0.00  0.00    -0.287 N 
ATOM     10  C   UNL     1       4.356  -2.491   7.951  0.00  0.00    +0.061 C 
ATOM     11  H   UNL     1       3.488  -1.107   5.850  0.00  0.00    +0.155 HD
ENDROOT
BRANCH   6  12
ATOM     12  C   UNL     1       4.375  -5.391   4.280  0.00  0.00    +0.023 A 
ATOM     13  C   UNL     1       5.368  -4.524   3.865  0.00  0.00    +0.009 A 
ATOM     14  C   UNL     1       6.419  -4.992   3.098  0.00  0.00    +0.001 A 
ATOM     15  C   UNL     1       6.479  -6.327   2.743  0.00  0.00    +0.004 A 
ATOM     16  C   UNL     1       5.488  -7.197   3.155  0.00  0.00    +0.046 A 
ATOM     17  C   UNL     1       4.436  -6.732   3.930  0.00  0.00    +0.127 A 
BRANCH  17  18
ATOM     18  O   UNL     1       3.463  -7.587   4.342  0.00  0.00    -0.487 OA
BRANCH  18  19
ATOM     19  C   UNL     1       3.590  -8.954   3.945  0.00  0.00    +0.264 C 
BRANCH  19  20
ATOM     20  C   UNL     1       2.429  -9.745   4.489  0.00  0.00    -0.010 A 
ATOM     21  C   UNL     1       2.519 -10.335   5.736  0.00  0.00    +0.007 A 
ATOM     22  C   UNL     1       1.454 -11.061   6.236  0.00  0.00    +0.004 A 
ATOM     23  C   UNL     1       0.299 -11.197   5.488  0.00  0.00    -0.042 A 
ATOM     24  C   UNL     1       0.209 -10.607   4.241  0.00  0.00    +0.004 A 
ATOM     25  C   UNL     1       1.272  -9.877   3.744  0.00  0.00    +0.007 A 
BRANCH  23  26
ATOM     26  C   UNL     1      -0.862 -11.989   6.032  0.00  0.00    -0.013 C 
ATOM     27  C   UNL     1      -1.341 -11.358   7.341  0.00  0.00    +0.015 C 
ATOM     28  C   UNL     1      -2.005 -11.984   5.015  0.00  0.00    +0.015 C 
ATOM     29  C   UNL     1      -0.418 -13.430   6.293  0.00  0.00    +0.015 C 
ENDBRANCH  23  26
ENDBRANCH  19  20
ENDBRANCH  18  19
ENDBRANCH  17  18
ENDBRANCH   6  12
BRANCH   7  30
ATOM     30  C   UNL     1       4.267  -5.174   7.382  0.00  0.00    +0.241 C 
ATOM     31  O   UNL     1       3.498  -5.839   8.053  0.00  0.00    -0.271 OA
ATOM     32  N   UNL     1       5.596  -5.277   7.580  0.00  0.00    -0.325 N 
ATOM     33  H   UNL     1       6.208  -4.747   7.045  0.00  0.00    +0.145 HD
ATOM     34  H   UNL     1       5.941  -5.880   8.256  0.00  0.00    +0.145 HD
ENDBRANCH   7  30
BRANCH   1  35
ATOM     35  S   UNL     1       0.183  -2.344   1.633  0.00  0.00    -0.084 S 
BRANCH  35  36
ATOM     36  C   UNL     1       0.032  -0.539   1.739  0.00  0.00    +0.077 C 
BRANCH  36  38
ATOM     37  C   UNL     1      -1.020   1.483   0.716  0.00  0.00    +0.004 C 
ATOM     38  C   UNL     1      -0.893  -0.039   0.627  0.00  0.00    +0.008 C 
ENDBRANCH  36  38
ENDBRANCH  35  36
ENDBRANCH   1  35
TORSDOF 9
