REMARK  Name = ZINC29898374
REMARK  7 active torsions:
REMARK  status: ('A' for Active; 'I' for Inactive)
REMARK    1  A    between atoms: C_3  and  C_6
REMARK    2  A    between atoms: C_6  and  C_8
REMARK    3  A    between atoms: C_6  and  N_29
REMARK    4  A    between atoms: C_8  and  N_9
REMARK    5  A    between atoms: C_10  and  C_12
REMARK    6  A    between atoms: C_12  and  C_13
REMARK    7  A    between atoms: C_20  and  C_25
REMARK                            x       y       z     vdW  Elec       q    Type
REMARK                         _______ _______ _______ _____ _____    ______ ____
ROOT
ATOM      1  N   UNL     1       3.881  -1.799   2.728  0.00  0.00    -0.316 N 
ATOM      2  C   UNL     1       3.672  -1.369   1.468  0.00  0.00    +0.215 C 
ATOM      3  O   UNL     1       4.390  -1.752   0.569  0.00  0.00    -0.276 OA
ATOM      4  H   UNL     1       3.230  -1.452   3.543  0.00  0.00    +0.149 HD
ENDROOT
BRANCH   1   5
ATOM      5  C   UNL     1       4.977  -2.729   3.011  0.00  0.00    +0.096 C 
BRANCH   5   6
ATOM      6  C   UNL     1       4.995  -3.056   4.506  0.00  0.00    +0.016 C 
BRANCH   6   7
ATOM      7  N   UNL     1       5.070  -1.810   5.279  0.00  0.00    +0.387 N 
ATOM      8  C   UNL     1       6.247  -1.020   4.891  0.00  0.00    -0.078 C 
ATOM      9  C   UNL     1       6.215   0.331   5.608  0.00  0.00    -0.019 C 
ATOM     10  C   UNL     1       6.208   0.101   7.122  0.00  0.00    -0.004 C 
ATOM     11  C   UNL     1       5.000  -0.764   7.493  0.00  0.00    -0.019 C 
ATOM     12  C   UNL     1       5.067  -2.084   6.721  0.00  0.00    -0.078 C 
ATOM     13  H   UNL     1       4.175  -1.212   5.049  0.00  0.00    -0.081 HD
ENDBRANCH   6   7
BRANCH   6  16
ATOM     14  C   UNL     1       7.504  -5.624   5.338  0.00  0.00    +0.041 A 
ATOM     15  C   UNL     1       6.165  -5.224   5.123  0.00  0.00    +0.043 A 
ATOM     16  C   UNL     1       6.193  -3.915   4.818  0.00  0.00    +0.093 A 
ATOM     17  O   UNL     1       7.470  -3.500   4.845  0.00  0.00    -0.469 OA
ATOM     18  C   UNL     1       8.270  -4.533   5.160  0.00  0.00    +0.195 A 
ENDBRANCH   6  16
ENDBRANCH   5   6
ENDBRANCH   1   5
BRANCH   2  19
ATOM     19  C   UNL     1       2.545  -0.411   1.176  0.00  0.00    +0.119 C 
BRANCH  19  20
ATOM     20  C   UNL     1       2.527  -0.084  -0.318  0.00  0.00    +0.146 C 
ATOM     21  C   UNL     1       1.330   0.774  -0.635  0.00  0.00    +0.231 C 
ATOM     22  O   UNL     1       0.342   0.240  -1.092  0.00  0.00    -0.274 OA
ATOM     23  N   UNL     1       1.306   2.088  -0.438  0.00  0.00    -0.284 N 
ATOM     24  C   UNL     1       2.372   2.887  -0.036  0.00  0.00    +0.047 A 
ATOM     25  C   UNL     1       2.115   4.160   0.465  0.00  0.00    +0.036 A 
ATOM     26  C   UNL     1       3.155   4.969   0.878  0.00  0.00    +0.057 A 
ATOM     27  C   UNL     1       4.462   4.525   0.800  0.00  0.00    +0.013 A 
ATOM     28  C   UNL     1       4.732   3.263   0.302  0.00  0.00    +0.017 A 
ATOM     29  C   UNL     1       3.693   2.449  -0.116  0.00  0.00    +0.030 A 
ATOM     30  S   UNL     1       4.031   0.840  -0.760  0.00  0.00    -0.110 S 
ATOM     31  H   UNL     1       0.373   2.650  -0.595  0.00  0.00    +0.155 HD
BRANCH  26  32
ATOM     32  C   UNL     1       2.863   6.345   1.417  0.00  0.00    +0.417 C 
ATOM     33  F   UNL     1       4.063   6.972   1.769  0.00  0.00    -0.166 F 
ATOM     34  F   UNL     1       2.211   7.102   0.438  0.00  0.00    -0.166 F 
ATOM     35  F   UNL     1       2.044   6.239   2.546  0.00  0.00    -0.166 F 
ENDBRANCH  26  32
ENDBRANCH  19  20
ENDBRANCH   2  19
TORSDOF 7
