REMARK  Name = ZINC12030375
REMARK  5 active torsions:
REMARK  status: ('A' for Active; 'I' for Inactive)
REMARK    1  A    between atoms: C_4  and  C_7
REMARK    2  A    between atoms: C_18  and  C_19
REMARK    3  A    between atoms: C_18  and  N_54
REMARK    4  A    between atoms: C_19  and  N_20
REMARK    5  A    between atoms: C_21  and  C_23
REMARK                            x       y       z     vdW  Elec       q    Type
REMARK                         _______ _______ _______ _____ _____    ______ ____
ROOT
ATOM      1  C   UNL     1       2.490   1.048  -0.016  0.00  0.00    +0.187 C 
ATOM      2  C   UNL     1       3.025   1.015  -1.431  0.00  0.00    -0.028 C 
ATOM      3  C   UNL     1       5.396   0.816  -0.916  0.00  0.00    -0.039 C 
ATOM      4  C   UNL     1       5.381   0.420   0.547  0.00  0.00    -0.022 A 
ATOM      5  C   UNL     1       6.363  -0.408   1.052  0.00  0.00    +0.005 A 
ATOM      6  C   UNL     1       6.368  -0.722   2.399  0.00  0.00    +0.000 A 
ATOM      7  C   UNL     1       5.394  -0.208   3.235  0.00  0.00    +0.004 A 
ATOM      8  C   UNL     1       4.404   0.612   2.728  0.00  0.00    +0.046 A 
ATOM      9  C   UNL     1       4.394   0.920   1.375  0.00  0.00    +0.123 A 
ATOM     10  O   UNL     1       3.412   1.709   0.859  0.00  0.00    -0.486 OA
ATOM     11  N   UNL     1       4.232   0.174  -1.572  0.00  0.00    +0.386 N 
ATOM     12  H   UNL     1       4.057  -0.732  -1.120  0.00  0.00    -0.081 HD
ENDROOT
BRANCH   1  16
ATOM     13  C   UNL     1      -1.238   3.133   0.030  0.00  0.00    +0.000 A 
ATOM     14  C   UNL     1      -1.219   1.751   0.017  0.00  0.00    +0.000 A 
ATOM     15  C   UNL     1      -0.013   1.076   0.008  0.00  0.00    +0.007 A 
ATOM     16  C   UNL     1       1.175   1.783   0.000  0.00  0.00    -0.009 A 
ATOM     17  C   UNL     1       1.156   3.165   0.008  0.00  0.00    +0.007 A 
ATOM     18  C   UNL     1      -0.050   3.840   0.022  0.00  0.00    +0.000 A 
ENDBRANCH   1  16
BRANCH  11  19
ATOM     19  C   UNL     1       4.520  -0.053  -2.998  0.00  0.00    -0.059 C 
BRANCH  19  20
ATOM     20  C   UNL     1       5.603  -1.129  -3.108  0.00  0.00    +0.086 C 
BRANCH  20  21
ATOM     21  N   UNL     1       5.886  -1.394  -4.520  0.00  0.00    -0.312 N 
ATOM     22  C   UNL     1       6.812  -2.312  -4.861  0.00  0.00    +0.264 C 
ATOM     23  O   UNL     1       7.413  -2.919  -3.997  0.00  0.00    -0.268 OA
ATOM     24  H   UNL     1       5.407  -0.909  -5.210  0.00  0.00    +0.149 HD
BRANCH  22  25
ATOM     25  C   UNL     1       7.098  -2.579  -6.287  0.00  0.00    +0.150 A 
ATOM     26  C   UNL     1       8.031  -3.502  -6.774  0.00  0.00    +0.083 A 
ATOM     27  C   UNL     1       7.991  -3.447  -8.158  0.00  0.00    +0.156 A 
ATOM     28  N   UNL     1       8.667  -4.109  -9.108  0.00  0.00    -0.236 NA
ATOM     29  C   UNL     1       8.445  -3.875 -10.379  0.00  0.00    +0.114 A 
ATOM     30  C   UNL     1       7.491  -2.921 -10.767  0.00  0.00    +0.039 A 
ATOM     31  C   UNL     1       6.801  -2.245  -9.817  0.00  0.00    +0.116 A 
ATOM     32  N   UNL     1       7.050  -2.508  -8.499  0.00  0.00    -0.221 N 
ATOM     33  N   UNL     1       6.510  -1.990  -7.317  0.00  0.00    -0.160 NA
ENDBRANCH  22  25
ENDBRANCH  20  21
ENDBRANCH  19  20
ENDBRANCH  11  19
TORSDOF 5
