REMARK  Name = ZINC39710365
REMARK  13 active torsions:
REMARK  status: ('A' for Active; 'I' for Inactive)
REMARK    1  A    between atoms: C_1  and  C_2
REMARK    2  A    between atoms: C_2  and  C_3
REMARK    3  A    between atoms: C_3  and  C_4
REMARK    4  A    between atoms: C_3  and  C_5
REMARK    5  A    between atoms: C_3  and  N_6
REMARK    6  A    between atoms: C_7  and  C_12
REMARK    7  A    between atoms: C_12  and  C_14
REMARK    8  A    between atoms: C_12  and  N_27
REMARK    9  A    between atoms: C_19  and  C_26
REMARK   10  A    between atoms: N_27  and  C_28
REMARK   11  A    between atoms: N_27  and  C_34
REMARK   12  A    between atoms: C_28  and  C_29
REMARK   13  A    between atoms: C_34  and  C_35
REMARK                            x       y       z     vdW  Elec       q    Type
REMARK                         _______ _______ _______ _____ _____    ______ ____
ROOT
ATOM      1  C   UNL     1       1.020  -0.658  -2.780  0.00  0.00    -0.008 C 
ENDROOT
BRANCH   1   2
ATOM      2  C   UNL     1       0.492  -1.651  -1.742  0.00  0.00    +0.088 C 
ATOM      3  C   UNL     1      -0.905  -1.213  -1.348  0.00  0.00    -0.006 C 
ATOM      4  C   UNL     1      -1.129  -0.952  -0.029  0.00  0.00    -0.007 A 
ATOM      5  C   UNL     1      -2.448  -0.523   0.438  0.00  0.00    +0.012 A 
ATOM      6  C   UNL     1      -2.625  -0.274   1.761  0.00  0.00    -0.050 A 
ATOM      7  C   UNL     1      -1.580  -0.418   2.674  0.00  0.00    +0.005 A 
ATOM      8  C   UNL     1      -0.334  -0.811   2.305  0.00  0.00    +0.024 A 
ATOM      9  C   UNL     1      -0.044  -1.095   0.957  0.00  0.00    +0.040 A 
ATOM     10  N   UNL     1       1.183  -1.481   0.607  0.00  0.00    -0.285 N 
ATOM     11  C   UNL     1       1.522  -1.761  -0.640  0.00  0.00    +0.223 C 
ATOM     12  O   UNL     1       2.659  -2.108  -0.899  0.00  0.00    -0.275 OA
ATOM     13  C   UNL     1      -3.979   0.168   2.254  0.00  0.00    +0.044 C 
ATOM     14  H   UNL     1       1.858  -1.559   1.298  0.00  0.00    +0.155 HD
ENDBRANCH   1   2
BRANCH   1  16
ATOM     15  N   UNL     1       0.182  -2.152  -4.560  0.00  0.00    -0.182 NA
ATOM     16  C   UNL     1       1.359  -1.403  -4.072  0.00  0.00    +0.205 C 
ATOM     17  N   UNL     1       2.374  -2.436  -3.820  0.00  0.00    -0.152 NA
ATOM     18  N   UNL     1       1.898  -3.539  -4.098  0.00  0.00    -0.070 NA
ATOM     19  N   UNL     1       0.582  -3.463  -4.551  0.00  0.00    -0.179 N 
ATOM     20  H   UNL     1       0.035  -4.218  -4.819  0.00  0.00    +0.191 HD
BRANCH  15  21
ATOM     21  C   UNL     1      -0.974  -1.948  -3.677  0.00  0.00    +0.037 C 
ATOM     22  C   UNL     1      -0.944  -0.525  -3.117  0.00  0.00    +0.029 C 
ATOM     23  C   UNL     1      -0.917  -2.951  -2.523  0.00  0.00    +0.029 C 
BRANCH  21  25
ATOM     24  C   UNL     1      -3.468  -1.825  -3.585  0.00  0.00    +0.006 C 
ATOM     25  C   UNL     1      -2.265  -2.157  -4.471  0.00  0.00    +0.020 C 
ENDBRANCH  21  25
ENDBRANCH  15  21
ENDBRANCH   1  16
BRANCH   1  26
ATOM     26  N   UNL     1       2.228  -0.003  -2.260  0.00  0.00    +0.392 N 
ATOM     27  H   UNL     1       2.769  -0.668  -1.728  0.00  0.00    -0.080 HD
BRANCH  26  28
ATOM     28  C   UNL     1       1.843   1.121  -1.396  0.00  0.00    -0.002 C 
BRANCH  28  29
ATOM     29  C   UNL     1       1.714   2.372  -2.225  0.00  0.00    +0.089 A 
ATOM     30  C   UNL     1       0.963   3.445  -1.919  0.00  0.00    +0.042 A 
ATOM     31  C   UNL     1       1.137   4.379  -2.966  0.00  0.00    +0.041 A 
ATOM     32  C   UNL     1       1.984   3.821  -3.850  0.00  0.00    +0.195 A 
ATOM     33  O   UNL     1       2.335   2.608  -3.393  0.00  0.00    -0.470 OA
ENDBRANCH  28  29
ENDBRANCH  26  28
BRANCH  26  34
ATOM     34  C   UNL     1       3.034   0.497  -3.382  0.00  0.00    -0.034 C 
BRANCH  34  35
ATOM     35  C   UNL     1       4.350   1.018  -2.863  0.00  0.00    -0.027 A 
ATOM     36  C   UNL     1       5.495   0.340  -2.607  0.00  0.00    +0.009 A 
ATOM     37  C   UNL     1       6.592   1.032  -2.130  0.00  0.00    +0.008 A 
ATOM     38  C   UNL     1       6.490   2.369  -1.931  0.00  0.00    +0.045 A 
ATOM     39  S   UNL     1       4.806   2.689  -2.431  0.00  0.00    -0.103 S 
ENDBRANCH  34  35
ENDBRANCH  26  34
ENDBRANCH   1  26
TORSDOF 9
