REMARK  Name = ZINC59137113
REMARK  7 active torsions:
REMARK  status: ('A' for Active; 'I' for Inactive)
REMARK    1  A    between atoms: C_1  and  C_2
REMARK    2  A    between atoms: C_6  and  N_9
REMARK    3  A    between atoms: C_7  and  C_8
REMARK    4  A    between atoms: C_15  and  C_16
REMARK    5  A    between atoms: C_18  and  C_29
REMARK    6  A    between atoms: N_19  and  C_22
REMARK    7  A    between atoms: C_20  and  C_21
REMARK                            x       y       z     vdW  Elec       q    Type
REMARK                         _______ _______ _______ _____ _____    ______ ____
ROOT
ATOM      1  N   UNL     1       0.050  -2.791   2.362  0.00  0.00    -0.225 NA
ATOM      2  C   UNL     1      -0.032  -4.103   2.352  0.00  0.00    +0.166 C 
ATOM      3  N   UNL     1      -0.133  -4.963   3.423  0.00  0.00    -0.260 N 
ATOM      4  C   UNL     1      -0.206  -6.270   3.233  0.00  0.00    +0.256 C 
ATOM      5  O   UNL     1      -0.296  -7.045   4.168  0.00  0.00    -0.269 OA
ATOM      6  C   UNL     1      -0.175  -6.747   1.840  0.00  0.00    +0.078 C 
ATOM      7  C   UNL     1      -0.234  -8.017   1.363  0.00  0.00    +0.030 C 
ATOM      8  S   UNL     1      -0.047  -5.204   0.947  0.00  0.00    -0.049 S 
ATOM      9  H   UNL     1      -0.149  -4.608   4.325  0.00  0.00    +0.157 HD
ENDROOT
BRANCH   1  15
ATOM     10  C   UNL     1      -1.220   0.829  -0.680  0.00  0.00    +0.044 C 
ATOM     11  C   UNL     1      -0.342  -0.342  -0.319  0.00  0.00    -0.046 A 
ATOM     12  C   UNL     1       0.677  -0.730  -1.171  0.00  0.00    +0.004 A 
ATOM     13  C   UNL     1       1.487  -1.804  -0.847  0.00  0.00    +0.002 A 
ATOM     14  C   UNL     1       1.284  -2.495   0.329  0.00  0.00    +0.028 A 
ATOM     15  C   UNL     1       0.257  -2.109   1.194  0.00  0.00    +0.070 A 
ATOM     16  C   UNL     1      -0.553  -1.020   0.863  0.00  0.00    -0.022 A 
ATOM     17  C   UNL     1      -1.659  -0.592   1.793  0.00  0.00    +0.046 C 
ENDBRANCH   1  15
BRANCH   7  18
ATOM     18  C   UNL     1      -0.186  -8.260  -0.083  0.00  0.00    -0.003 A 
ATOM     19  C   UNL     1      -0.070  -7.253  -1.145  0.00  0.00    +0.031 A 
ATOM     20  C   UNL     1      -0.063  -7.922  -2.310  0.00  0.00    +0.022 A 
ATOM     21  N   UNL     1      -0.166  -9.262  -2.059  0.00  0.00    -0.317 N 
ATOM     22  C   UNL     1      -0.236  -9.483  -0.722  0.00  0.00    +0.028 A 
ATOM     23  C   UNL     1      -0.350 -10.829  -0.052  0.00  0.00    +0.064 C 
ATOM     24  C   UNL     1       0.041  -7.295  -3.677  0.00  0.00    +0.064 C 
BRANCH  21  25
ATOM     25  C   UNL     1      -0.191 -10.262  -3.041  0.00  0.00    +0.047 A 
ATOM     26  C   UNL     1      -1.331 -11.034  -3.219  0.00  0.00    +0.029 A 
ATOM     27  C   UNL     1      -1.354 -12.019  -4.186  0.00  0.00    +0.040 A 
ATOM     28  C   UNL     1      -0.240 -12.237  -4.980  0.00  0.00    +0.124 A 
ATOM     29  C   UNL     1       0.899 -11.468  -4.804  0.00  0.00    +0.040 A 
ATOM     30  C   UNL     1       0.923 -10.479  -3.841  0.00  0.00    +0.029 A 
ATOM     31  F   UNL     1      -0.264 -13.201  -5.926  0.00  0.00    -0.205 F 
ENDBRANCH  21  25
ENDBRANCH   7  18
TORSDOF 3
