REMARK  Name = ZINC02339399
REMARK  11 active torsions:
REMARK  status: ('A' for Active; 'I' for Inactive)
REMARK    1  A    between atoms: C_1  and  C_2
REMARK    2  A    between atoms: C_5  and  N_8
REMARK    3  A    between atoms: C_9  and  C_29
REMARK    4  A    between atoms: C_12  and  S_13
REMARK    5  A    between atoms: S_13  and  C_14
REMARK    6  A    between atoms: C_14  and  C_15
REMARK    7  A    between atoms: N_17  and  N_18
REMARK    8  A    between atoms: C_19  and  C_20
REMARK    9  A    between atoms: C_23  and  C_26
REMARK   10  A    between atoms: C_26  and  C_27
REMARK   11  A    between atoms: C_26  and  C_28
REMARK                            x       y       z     vdW  Elec       q    Type
REMARK                         _______ _______ _______ _____ _____    ______ ____
ROOT
ATOM      1  N   UNL     1       1.285   1.733  -0.001  0.00  0.00    -0.270 N 
ATOM      2  C   UNL     1       2.047   0.585  -0.014  0.00  0.00    +0.169 A 
ATOM      3  N   UNL     1       1.214  -0.430  -0.012  0.00  0.00    -0.128 NA
ATOM      4  N   UNL     1       0.002  -0.004   0.002  0.00  0.00    -0.122 NA
ATOM      5  C   UNL     1      -0.016   1.310   0.009  0.00  0.00    +0.197 A 
ENDROOT
BRANCH   1  10
ATOM      6  C   UNL     1       3.154   7.092   0.009  0.00  0.00    +0.044 C 
ATOM      7  C   UNL     1       2.658   5.669   0.006  0.00  0.00    -0.050 A 
ATOM      8  C   UNL     1       1.963   5.178   1.096  0.00  0.00    +0.005 A 
ATOM      9  C   UNL     1       1.507   3.875   1.097  0.00  0.00    +0.026 A 
ATOM     10  C   UNL     1       1.747   3.056   0.001  0.00  0.00    +0.051 A 
ATOM     11  C   UNL     1       2.450   3.550  -1.090  0.00  0.00    +0.026 A 
ATOM     12  C   UNL     1       2.898   4.856  -1.087  0.00  0.00    +0.005 A 
ENDBRANCH   1  10
BRANCH   2  13
ATOM     13  C   UNL     1       3.523   0.510  -0.030  0.00  0.00    +0.020 A 
ATOM     14  C   UNL     1       4.286   1.639   0.276  0.00  0.00    +0.011 A 
ATOM     15  C   UNL     1       5.663   1.560   0.265  0.00  0.00    +0.001 A 
ATOM     16  C   UNL     1       6.289   0.370  -0.059  0.00  0.00    +0.000 A 
ATOM     17  C   UNL     1       5.539  -0.752  -0.367  0.00  0.00    +0.001 A 
ATOM     18  C   UNL     1       4.161  -0.689  -0.355  0.00  0.00    +0.011 A 
ENDBRANCH   2  13
BRANCH   5  19
ATOM     19  S   UNL     1      -1.448   2.336   0.022  0.00  0.00    -0.076 S 
BRANCH  19  20
ATOM     20  C   UNL     1      -2.742   1.071   0.022  0.00  0.00    +0.174 C 
BRANCH  20  21
ATOM     21  C   UNL     1      -4.094   1.735   0.033  0.00  0.00    +0.242 C 
ATOM     22  O   UNL     1      -4.176   2.945   0.039  0.00  0.00    -0.273 OA
ATOM     23  N   UNL     1      -5.214   0.984   0.035  0.00  0.00    -0.206 N 
ATOM     24  H   UNL     1      -5.149   0.016   0.029  0.00  0.00    +0.177 HD
BRANCH  23  25
ATOM     25  N   UNL     1      -6.471   1.601   0.044  0.00  0.00    -0.188 NA
ATOM     26  C   UNL     1      -7.549   0.878   0.046  0.00  0.00    +0.138 C 
BRANCH  26  27
ATOM     27  C   UNL     1      -8.873   1.528   0.057  0.00  0.00    -0.005 A 
ATOM     28  C   UNL     1      -8.970   2.922   0.070  0.00  0.00    +0.010 A 
ATOM     29  C   UNL     1     -10.212   3.523   0.074  0.00  0.00    +0.004 A 
ATOM     30  C   UNL     1     -11.359   2.749   0.076  0.00  0.00    -0.045 A 
ATOM     31  C   UNL     1     -11.270   1.368   0.068  0.00  0.00    +0.004 A 
ATOM     32  C   UNL     1     -10.035   0.753   0.059  0.00  0.00    +0.010 A 
BRANCH  30  33
ATOM     33  C   UNL     1     -12.712   3.413   0.087  0.00  0.00    +0.013 C 
ATOM     34  C   UNL     1     -12.845   4.279   1.341  0.00  0.00    +0.012 C 
ATOM     35  C   UNL     1     -12.858   4.291  -1.157  0.00  0.00    +0.012 C 
ENDBRANCH  30  33
ENDBRANCH  26  27
ENDBRANCH  23  25
ENDBRANCH  20  21
ENDBRANCH  19  20
ENDBRANCH   5  19
TORSDOF 8
