REMARK  Name = ZINC16975324
REMARK  2 active torsions:
REMARK  status: ('A' for Active; 'I' for Inactive)
REMARK    1  A    between atoms: C_5  and  C_7
REMARK    2  A    between atoms: C_7  and  N_8
REMARK                            x       y       z     vdW  Elec       q    Type
REMARK                         _______ _______ _______ _____ _____    ______ ____
ROOT
ATOM      1  N   UNL     1       1.683  -2.601  -1.351  0.00  0.00    -0.220 N 
ATOM      2  C   UNL     1       2.991  -2.811  -1.555  0.00  0.00    +0.240 C 
ATOM      3  O   UNL     1       3.760  -2.673  -0.627  0.00  0.00    -0.274 OA
ATOM      4  C   UNL     1       3.534  -3.214  -2.897  0.00  0.00    +0.146 C 
ATOM      5  C   UNL     1       4.310  -4.525  -2.766  0.00  0.00    +0.071 C 
ATOM      6  C   UNL     1       5.544  -4.265  -1.942  0.00  0.00    +0.057 A 
ATOM      7  C   UNL     1       6.079  -2.994  -1.839  0.00  0.00    +0.109 A 
ATOM      8  N   UNL     1       7.166  -2.813  -1.073  0.00  0.00    -0.329 N 
ATOM      9  C   UNL     1       7.744  -3.822  -0.432  0.00  0.00    +0.119 A 
ATOM     10  C   UNL     1       8.887  -3.576   0.353  0.00  0.00    +0.045 A 
ATOM     11  C   UNL     1       9.503  -4.614   0.984  0.00  0.00    +0.005 A 
ATOM     12  C   UNL     1       8.981  -5.909   0.854  0.00  0.00    +0.018 A 
ATOM     13  C   UNL     1       7.872  -6.124   0.111  0.00  0.00    +0.096 A 
ATOM     14  N   UNL     1       7.250  -5.094  -0.528  0.00  0.00    -0.269 N 
ATOM     15  C   UNL     1       6.146  -5.328  -1.269  0.00  0.00    +0.263 A 
ATOM     16  O   UNL     1       5.682  -6.455  -1.348  0.00  0.00    -0.267 OA
ATOM     17  N   UNL     1       5.578  -1.875  -2.481  0.00  0.00    -0.312 N 
ATOM     18  C   UNL     1       4.479  -2.118  -3.409  0.00  0.00    +0.099 C 
ATOM     19  C   UNL     1       3.648  -0.837  -3.527  0.00  0.00    +0.024 C 
ATOM     20  C   UNL     1       4.425   0.307  -4.112  0.00  0.00    +0.002 C 
ATOM     21  C   UNL     1       5.365   0.997  -3.175  0.00  0.00    +0.002 C 
ATOM     22  C   UNL     1       6.704   0.320  -3.033  0.00  0.00    +0.019 C 
ATOM     23  C   UNL     1       6.689  -1.168  -3.089  0.00  0.00    +0.107 C 
ATOM     24  C   UNL     1       2.413  -3.393  -3.885  0.00  0.00    +0.238 C 
ATOM     25  O   UNL     1       2.675  -3.758  -5.011  0.00  0.00    -0.274 OA
ATOM     26  N   UNL     1       1.135  -3.160  -3.558  0.00  0.00    -0.239 N 
ATOM     27  C   UNL     1       0.777  -2.764  -2.327  0.00  0.00    +0.315 C 
ATOM     28  O   UNL     1      -0.394  -2.542  -2.092  0.00  0.00    -0.252 OA
ATOM     29  H   UNL     1       0.342  -3.293  -4.309  0.00  0.00    +0.159 HD
ATOM     30  H   UNL     1       7.601  -1.809  -0.964  0.00  0.00    +0.168 HD
ENDROOT
BRANCH   1  31
ATOM     31  C   UNL     1       1.228  -2.186  -0.022  0.00  0.00    +0.154 C 
BRANCH  31  36
ATOM     32  C   UNL     1       2.018  -4.894   2.487  0.00  0.00    +0.000 A 
ATOM     33  C   UNL     1       0.843  -5.623   2.486  0.00  0.00    +0.001 A 
ATOM     34  C   UNL     1      -0.208  -5.240   1.675  0.00  0.00    +0.020 A 
ATOM     35  C   UNL     1      -0.084  -4.127   0.862  0.00  0.00    +0.046 A 
ATOM     36  C   UNL     1       1.092  -3.398   0.863  0.00  0.00    -0.011 A 
ATOM     37  C   UNL     1       2.142  -3.782   1.676  0.00  0.00    +0.006 A 
ATOM     38 CL   UNL     1      -1.403  -3.644  -0.158  0.00  0.00    -0.083 Cl
ENDBRANCH  31  36
ENDBRANCH   1  31
TORSDOF 2
