REMARK  Name = ZINC65564423
REMARK  6 active torsions:
REMARK  status: ('A' for Active; 'I' for Inactive)
REMARK    1  A    between atoms: C_3  and  C_6
REMARK    2  A    between atoms: C_6  and  C_8
REMARK    3  A    between atoms: C_6  and  N_22
REMARK    4  A    between atoms: C_8  and  N_9
REMARK    5  A    between atoms: C_15  and  C_18
REMARK    6  A    between atoms: C_18  and  C_19
REMARK                            x       y       z     vdW  Elec       q    Type
REMARK                         _______ _______ _______ _____ _____    ______ ____
ROOT
ATOM      1  N   UNL     1       5.488   0.155   1.228  0.00  0.00    -0.300 N 
ATOM      2  C   UNL     1       6.086  -0.186   2.386  0.00  0.00    +0.302 C 
ATOM      3  O   UNL     1       5.455  -0.166   3.425  0.00  0.00    -0.253 OA
ATOM      4  N   UNL     1       7.384  -0.550   2.393  0.00  0.00    -0.286 N 
ATOM      5  C   UNL     1       8.189  -0.472   1.167  0.00  0.00    +0.109 C 
ATOM      6  C   UNL     1       8.838  -1.837   0.915  0.00  0.00    +0.023 C 
ATOM      7  C   UNL     1       9.625  -2.260   2.158  0.00  0.00    +0.001 C 
ATOM      8  C   UNL     1       8.671  -2.390   3.348  0.00  0.00    +0.023 C 
ATOM      9  C   UNL     1       8.022  -1.026   3.628  0.00  0.00    +0.109 C 
ATOM     10  H   UNL     1       6.007   0.205   0.410  0.00  0.00    +0.150 HD
ENDROOT
BRANCH   1  11
ATOM     11  C   UNL     1       4.053   0.450   1.204  0.00  0.00    +0.098 C 
BRANCH  11  12
ATOM     12  C   UNL     1       3.605   0.688  -0.240  0.00  0.00    +0.016 C 
BRANCH  12  13
ATOM     13  N   UNL     1       2.147   0.860  -0.278  0.00  0.00    +0.387 N 
ATOM     14  C   UNL     1       1.676   0.924  -1.685  0.00  0.00    -0.078 C 
ATOM     15  C   UNL     1       0.179   0.538  -1.576  0.00  0.00    -0.020 C 
ATOM     16  C   UNL     1       0.182  -0.552  -0.480  0.00  0.00    -0.020 C 
ATOM     17  C   UNL     1       1.478  -0.317   0.318  0.00  0.00    -0.078 C 
ATOM     18  H   UNL     1       1.882   1.699   0.217  0.00  0.00    -0.081 HD
ENDBRANCH  12  13
BRANCH  12  21
ATOM     19  C   UNL     1       5.637   3.319  -1.830  0.00  0.00    +0.041 A 
ATOM     20  C   UNL     1       5.355   1.958  -1.573  0.00  0.00    +0.043 A 
ATOM     21  C   UNL     1       4.272   1.929  -0.775  0.00  0.00    +0.093 A 
ATOM     22  O   UNL     1       3.886   3.193  -0.536  0.00  0.00    -0.469 OA
ATOM     23  C   UNL     1       4.711   4.040  -1.173  0.00  0.00    +0.195 A 
ENDBRANCH  12  21
ENDBRANCH  11  12
ENDBRANCH   1  11
BRANCH   7  24
ATOM     24  C   UNL     1      10.303  -3.607   1.899  0.00  0.00    +0.099 C 
BRANCH  24  25
ATOM     25  C   UNL     1      11.176  -3.964   3.074  0.00  0.00    +0.211 C 
ATOM     26  O   UNL     1      11.248  -3.216   4.026  0.00  0.00    -0.276 OA
ATOM     27  N   UNL     1      11.876  -5.116   3.068  0.00  0.00    -0.329 N 
ATOM     28  H   UNL     1      11.818  -5.715   2.307  0.00  0.00    +0.145 HD
ATOM     29  H   UNL     1      12.437  -5.346   3.825  0.00  0.00    +0.145 HD
ENDBRANCH  24  25
ENDBRANCH   7  24
TORSDOF 6
