REMARK  Name = ZINC17091271
REMARK  1 active torsions:
REMARK  status: ('A' for Active; 'I' for Inactive)
REMARK    1  A    between atoms: C_20  and  C_25
REMARK                            x       y       z     vdW  Elec       q    Type
REMARK                         _______ _______ _______ _____ _____    ______ ____
ROOT
ATOM      1  C   UNL     1      -1.230   1.730   0.029  0.00  0.00    +0.002 A 
ATOM      2  C   UNL     1      -0.013   1.076   0.008  0.00  0.00    +0.002 A 
ATOM      3  C   UNL     1       1.194   1.760   0.000  0.00  0.00    +0.028 A 
ATOM      4  C   UNL     1       1.160   3.148  -0.011  0.00  0.00    +0.071 A 
ATOM      5  C   UNL     1      -0.095   3.814   0.036  0.00  0.00    +0.091 A 
ATOM      6  C   UNL     1      -1.304   3.110   0.048  0.00  0.00    +0.030 A 
ATOM      7  N   UNL     1       0.149   5.136   0.056  0.00  0.00    -0.214 NA
ATOM      8  C   UNL     1       1.439   5.330   0.001  0.00  0.00    +0.201 A 
ATOM      9  N   UNL     1       2.114   4.130  -0.062  0.00  0.00    -0.301 N 
ATOM     10  C   UNL     1       3.571   4.050  -0.172  0.00  0.00    +0.078 C 
ATOM     11  C   UNL     1       3.969   3.273  -1.417  0.00  0.00    +0.033 C 
ATOM     12  C   UNL     1       3.930   1.764  -1.278  0.00  0.00    +0.003 C 
ATOM     13  C   UNL     1       4.571   1.272   0.011  0.00  0.00    +0.000 C 
ATOM     14  C   UNL     1       3.978   1.977   1.227  0.00  0.00    +0.003 C 
ATOM     15  C   UNL     1       4.175   3.480   1.106  0.00  0.00    +0.033 C 
ATOM     16  C   UNL     1       4.165   5.448  -0.328  0.00  0.00    +0.038 C 
ATOM     17  C   UNL     1       3.435   6.573  -0.229  0.00  0.00    +0.020 C 
ATOM     18  N   UNL     1       2.083   6.553  -0.015  0.00  0.00    -0.288 N 
ATOM     19  C   UNL     1       4.087   7.932  -0.371  0.00  0.00    +0.060 C 
ATOM     20  C   UNL     1       5.212   7.835  -1.405  0.00  0.00    +0.032 C 
ATOM     21  C   UNL     1       6.239   6.822  -0.893  0.00  0.00    +0.088 C 
ATOM     22  C   UNL     1       5.550   5.524  -0.573  0.00  0.00    +0.164 C 
ATOM     23  O   UNL     1       6.233   4.518  -0.511  0.00  0.00    -0.292 OA
ATOM     24  H   UNL     1       1.587   7.376   0.125  0.00  0.00    +0.155 HD
ENDROOT
BRANCH  20  25
ATOM     25  C   UNL     1       5.864   9.184  -1.573  0.00  0.00    -0.043 A 
ATOM     26  C   UNL     1       6.430   9.818  -0.484  0.00  0.00    +0.005 A 
ATOM     27  C   UNL     1       7.033  11.052  -0.639  0.00  0.00    +0.020 A 
ATOM     28  C   UNL     1       7.060  11.657  -1.883  0.00  0.00    +0.041 A 
ATOM     29  C   UNL     1       6.488  11.024  -2.972  0.00  0.00    +0.020 A 
ATOM     30  C   UNL     1       5.890   9.787  -2.817  0.00  0.00    +0.005 A 
ATOM     31 CL   UNL     1       7.811  13.210  -2.077  0.00  0.00    -0.084 Cl
ENDBRANCH  20  25
TORSDOF 1
