REMARK  Name = ZINC33113656
REMARK  11 active torsions:
REMARK  status: ('A' for Active; 'I' for Inactive)
REMARK    1  A    between atoms: C_1  and  C_2
REMARK    2  A    between atoms: C_2  and  C_3
REMARK    3  A    between atoms: C_10  and  C_12
REMARK    4  A    between atoms: C_12  and  O_13
REMARK    5  A    between atoms: O_13  and  C_14
REMARK    6  A    between atoms: C_21  and  N_28
REMARK    7  A    between atoms: C_22  and  C_23
REMARK    8  A    between atoms: C_23  and  O_25
REMARK    9  A    between atoms: O_25  and  C_26
REMARK   10  A    between atoms: C_26  and  C_27
REMARK   11  A    between atoms: C_29  and  C_31
REMARK                            x       y       z     vdW  Elec       q    Type
REMARK                         _______ _______ _______ _____ _____    ______ ____
ROOT
ATOM      1  C   UNL     1       1.211   2.036   0.196  0.00  0.00    +0.149 A 
ATOM      2  C   UNL     1       1.802   2.334   1.415  0.00  0.00    +0.061 A 
ATOM      3  C   UNL     1       3.035   2.968   1.436  0.00  0.00    +0.019 A 
ATOM      4  C   UNL     1       3.676   3.316   0.275  0.00  0.00    +0.011 A 
ATOM      5  C   UNL     1       3.099   3.032  -0.984  0.00  0.00    +0.009 A 
ATOM      6  C   UNL     1       1.852   2.384  -0.978  0.00  0.00    +0.065 A 
ATOM      7  S   UNL     1       1.446   2.194  -2.695  0.00  0.00    -0.069 S 
ATOM      8  C   UNL     1       2.888   2.952  -3.418  0.00  0.00    +0.087 A 
ATOM      9  C   UNL     1       3.638   3.328  -2.315  0.00  0.00    +0.095 A 
ATOM     10 BR   UNL     1       0.937   1.873   3.033  0.00  0.00    -0.046 Br
ENDROOT
BRANCH   8  11
ATOM     11  N   UNL     1       3.186   3.123  -4.756  0.00  0.00    -0.280 N 
ATOM     12  C   UNL     1       2.326   2.688  -5.699  0.00  0.00    +0.214 C 
ATOM     13  O   UNL     1       1.292   2.146  -5.373  0.00  0.00    -0.276 OA
ATOM     14  C   UNL     1       2.651   2.875  -7.159  0.00  0.00    +0.109 C 
ATOM     15  H   UNL     1       4.124   3.615  -5.052  0.00  0.00    +0.155 HD
ENDBRANCH   8  11
BRANCH   9  16
ATOM     16  C   UNL     1       4.886   3.980  -2.470  0.00  0.00    +0.342 C 
ATOM     17  O   UNL     1       4.936   5.194  -2.524  0.00  0.00    -0.245 OA
BRANCH  16  18
ATOM     18  O   UNL     1       6.020   3.253  -2.557  0.00  0.00    -0.461 OA
BRANCH  18  19
ATOM     19  C   UNL     1       7.243   3.976  -2.712  0.00  0.00    +0.229 C 
ATOM     20  C   UNL     1       8.411   2.990  -2.792  0.00  0.00    +0.048 C 
ENDBRANCH  18  19
ENDBRANCH  16  18
ENDBRANCH   9  16
BRANCH   1  21
ATOM     21  O   UNL     1       0.005   1.409   0.156  0.00  0.00    -0.481 OA
BRANCH  21  22
ATOM     22  C   UNL     1       0.017  -0.019   0.123  0.00  0.00    +0.324 C 
BRANCH  22  29
ATOM     23  C   UNL     1      -3.007  -2.379   0.132  0.00  0.00    +0.076 C 
ATOM     24  C   UNL     1      -3.079  -3.404   1.263  0.00  0.00    +0.022 C 
ATOM     25  C   UNL     1      -2.012  -4.479   1.043  0.00  0.00    +0.003 C 
ATOM     26  C   UNL     1      -0.625  -3.834   1.062  0.00  0.00    +0.019 C 
ATOM     27  C   UNL     1      -0.524  -2.813  -0.076  0.00  0.00    +0.108 C 
ATOM     28  N   UNL     1      -1.635  -1.859   0.045  0.00  0.00    -0.296 N 
ATOM     29  C   UNL     1      -1.400  -0.533   0.081  0.00  0.00    +0.253 C 
ATOM     30  O   UNL     1      -2.328   0.248   0.080  0.00  0.00    -0.272 OA
BRANCH  23  32
ATOM     31  C   UNL     1      -5.395  -1.779   0.553  0.00  0.00    +0.006 C 
ATOM     32  C   UNL     1      -3.973  -1.229   0.422  0.00  0.00    +0.019 C 
ENDBRANCH  23  32
ENDBRANCH  22  29
ENDBRANCH  21  22
ENDBRANCH   1  21
TORSDOF 8
