REMARK  Name = ZINC32577025
REMARK  9 active torsions:
REMARK  status: ('A' for Active; 'I' for Inactive)
REMARK    1  A    between atoms: C_1  and  C_2
REMARK    2  A    between atoms: C_2  and  C_3
REMARK    3  A    between atoms: C_6  and  C_9
REMARK    4  A    between atoms: N_10  and  N_11
REMARK    5  A    between atoms: C_12  and  C_14
REMARK    6  A    between atoms: C_14  and  S_15
REMARK    7  A    between atoms: S_15  and  C_16
REMARK    8  A    between atoms: N_29  and  C_30
REMARK    9  A    between atoms: C_33  and  C_36
REMARK                            x       y       z     vdW  Elec       q    Type
REMARK                         _______ _______ _______ _____ _____    ______ ____
ROOT
ATOM      1  C   UNL     1      -0.249  -5.285   3.729  0.00  0.00    +0.178 A 
ATOM      2  N   UNL     1      -1.210  -4.538   4.255  0.00  0.00    -0.215 NA
ATOM      3  C   UNL     1      -0.840  -3.463   4.940  0.00  0.00    +0.117 A 
ATOM      4  C   UNL     1       0.506  -3.075   5.134  0.00  0.00    +0.076 A 
ATOM      5  C   UNL     1       0.717  -1.865   5.911  0.00  0.00    -0.023 A 
ATOM      6  C   UNL     1      -0.390  -1.236   6.368  0.00  0.00    -0.004 A 
ATOM      7  S   UNL     1      -1.753  -2.215   5.790  0.00  0.00    -0.073 S 
ATOM      8  C   UNL     1      -0.449   0.017   7.186  0.00  0.00    +0.043 C 
ATOM      9  C   UNL     1       0.951   0.297   7.750  0.00  0.00    +0.005 C 
ATOM     10  C   UNL     1       1.972   0.161   6.619  0.00  0.00    +0.005 C 
ATOM     11  C   UNL     1       2.106  -1.307   6.213  0.00  0.00    +0.037 C 
ATOM     12  C   UNL     1       1.518  -3.905   4.551  0.00  0.00    +0.268 A 
ATOM     13  O   UNL     1       2.705  -3.653   4.664  0.00  0.00    -0.267 OA
ATOM     14  N   UNL     1       1.075  -4.985   3.866  0.00  0.00    -0.255 N 
ENDROOT
BRANCH  14  15
ATOM     15  C   UNL     1       2.018  -5.835   3.273  0.00  0.00    +0.052 A 
ATOM     16  C   UNL     1       2.171  -7.135   3.735  0.00  0.00    +0.026 A 
ATOM     17  C   UNL     1       3.098  -7.971   3.145  0.00  0.00    +0.005 A 
ATOM     18  C   UNL     1       3.881  -7.512   2.102  0.00  0.00    -0.050 A 
ATOM     19  C   UNL     1       3.734  -6.216   1.643  0.00  0.00    +0.005 A 
ATOM     20  C   UNL     1       2.805  -5.376   2.225  0.00  0.00    +0.026 A 
ATOM     21  C   UNL     1       4.896  -8.425   1.464  0.00  0.00    +0.044 C 
ENDBRANCH  14  15
BRANCH   1  22
ATOM     22  S   UNL     1      -0.700  -6.721   2.814  0.00  0.00    -0.078 S 
BRANCH  22  23
ATOM     23  C   UNL     1      -2.502  -6.629   2.952  0.00  0.00    +0.174 C 
BRANCH  23  25
ATOM     24  N   UNL     1      -4.462  -7.931   2.190  0.00  0.00    -0.206 N 
ATOM     25  C   UNL     1      -3.122  -7.793   2.222  0.00  0.00    +0.242 C 
ATOM     26  O   UNL     1      -2.415  -8.604   1.663  0.00  0.00    -0.273 OA
ATOM     27  H   UNL     1      -5.104  -7.195   2.697  0.00  0.00    +0.177 HD
BRANCH  24  29
ATOM     28  C   UNL     1      -6.327  -9.079   1.373  0.00  0.00    +0.138 C 
ATOM     29  N   UNL     1      -5.039  -9.013   1.512  0.00  0.00    -0.188 NA
BRANCH  28  33
ATOM     30  C   UNL     1      -8.653  -5.529   1.422  0.00  0.00    -0.048 A 
ATOM     31  C   UNL     1      -7.281  -5.451   1.264  0.00  0.00    +0.004 A 
ATOM     32  C   UNL     1      -6.519  -6.601   1.247  0.00  0.00    +0.010 A 
ATOM     33  C   UNL     1      -7.136  -7.846   1.390  0.00  0.00    -0.005 A 
ATOM     34  C   UNL     1      -8.522  -7.917   1.545  0.00  0.00    +0.010 A 
ATOM     35  C   UNL     1      -9.271  -6.759   1.565  0.00  0.00    +0.004 A 
BRANCH  30  37
ATOM     36  C   UNL     1      -9.919  -3.928   0.014  0.00  0.00    +0.009 C 
ATOM     37  C   UNL     1      -9.479  -4.269   1.439  0.00  0.00    +0.032 C 
ENDBRANCH  30  37
ENDBRANCH  28  33
ENDBRANCH  24  29
ENDBRANCH  23  25
ENDBRANCH  22  23
ENDBRANCH   1  22
TORSDOF 7
