REMARK  Name = ZINC13037506
REMARK  17 active torsions:
REMARK  status: ('A' for Active; 'I' for Inactive)
REMARK    1  A    between atoms: C_1  and  C_2
REMARK    2  A    between atoms: C_2  and  C_3
REMARK    3  A    between atoms: C_3  and  O_4
REMARK    4  A    between atoms: O_4  and  C_5
REMARK    5  A    between atoms: C_8  and  C_15
REMARK    6  A    between atoms: C_10  and  O_11
REMARK    7  A    between atoms: O_11  and  C_12
REMARK    8  A    between atoms: C_12  and  C_13
REMARK    9  A    between atoms: C_13  and  C_14
REMARK   10  A    between atoms: C_15  and  C_17
REMARK   11  A    between atoms: C_15  and  N_18
REMARK   12  A    between atoms: N_18  and  C_19
REMARK   13  A    between atoms: C_22  and  C_28
REMARK   14  A    between atoms: C_24  and  N_25
REMARK   15  A    between atoms: N_30  and  CA_31
REMARK   16  A    between atoms: CA_31  and  CB_33
REMARK   17  A    between atoms: CA_31  and  C_34
REMARK                            x       y       z     vdW  Elec       q    Type
REMARK                         _______ _______ _______ _____ _____    ______ ____
ROOT
ATOM      1  N   UNK A   0       3.428  -0.929   0.021  0.00  0.00    -0.336 N 
ATOM      2  H   UNK A   0       3.324  -1.891  -0.048  0.00  0.00    +0.147 HD
ENDROOT
BRANCH   1   3
ATOM      3  C   UNK A   0       2.307  -0.105   0.008  0.00  0.00    +0.058 A 
ATOM      4  C   UNK A   0       2.462   1.278  -0.016  0.00  0.00    +0.026 A 
ATOM      5  C   UNK A   0       1.355   2.095  -0.029  0.00  0.00    +0.015 A 
ATOM      6  C   UNK A   0       0.074   1.535  -0.018  0.00  0.00    +0.039 A 
ATOM      7  C   UNK A   0      -0.078   0.146   0.006  0.00  0.00    +0.047 A 
ATOM      8  C   UNK A   0       1.033  -0.666   0.019  0.00  0.00    +0.148 A 
BRANCH   6   9
ATOM      9  C   UNK A   0      -1.114   2.409  -0.038  0.00  0.00    +0.245 C 
ATOM     10  O   UNK A   0      -2.228   1.920  -0.034  0.00  0.00    -0.270 OA
ATOM     11  N   ALA A   1      -0.966   3.748  -0.062  0.00  0.00    -0.298 N 
ATOM     12  H   ALA A   1      -0.078   4.138  -0.065  0.00  0.00    +0.150 HD
BRANCH  11  13
ATOM     13  CA  ALA A   1      -2.147   4.615  -0.081  0.00  0.00    +0.183 C 
ATOM     14  CB  ALA A   1      -2.637   4.842   1.350  0.00  0.00    +0.040 C 
BRANCH  13  15
ATOM     15  C   ALA A   1      -1.787   5.939  -0.704  0.00  0.00    +0.376 C 
ATOM     16  O   ALA A   1      -0.660   6.138  -1.092  0.00  0.00    -0.244 OA
ATOM     17  OXT ALA A   1      -2.718   6.898  -0.829  0.00  0.00    -0.244 OA
ENDBRANCH  13  15
ENDBRANCH  11  13
ENDBRANCH   6   9
BRANCH   8  18
ATOM     18  N   UNK A   0       0.873  -2.138   0.044  0.00  0.00    +0.058 N 
ATOM     19  O   UNK A   0      -0.235  -2.627   0.167  0.00  0.00    -0.126 OA
ATOM     20  O   UNK A   0       1.850  -2.858  -0.057  0.00  0.00    -0.126 OA
ENDBRANCH   8  18
ENDBRANCH   1   3
BRANCH   1  21
ATOM     21  C   UNK A   0       4.766  -0.344   0.139  0.00  0.00    +0.098 C 
ATOM     22  C   UNK A   0       5.266   0.069  -1.247  0.00  0.00    +0.033 C 
BRANCH  21  26
ATOM     23  C   UNK A   0       7.438  -3.230   1.816  0.00  0.00    +0.162 A 
ATOM     24  C   UNK A   0       6.489  -3.620   0.885  0.00  0.00    +0.050 A 
ATOM     25  C   UNK A   0       5.626  -2.684   0.345  0.00  0.00    +0.009 A 
ATOM     26  C   UNK A   0       5.708  -1.359   0.732  0.00  0.00    -0.024 A 
ATOM     27  C   UNK A   0       6.656  -0.963   1.656  0.00  0.00    +0.055 A 
ATOM     28  C   UNK A   0       7.520  -1.897   2.206  0.00  0.00    +0.162 A 
BRANCH  23  29
ATOM     29  O   UNK A   0       8.288  -4.149   2.348  0.00  0.00    -0.488 OA
BRANCH  29  30
ATOM     30  C   UNK A   0       8.146  -5.499   1.901  0.00  0.00    +0.229 C 
BRANCH  30  32
ATOM     31  C   UNK A   0       9.028  -7.826   2.127  0.00  0.00    +0.007 C 
ATOM     32  C   UNK A   0       9.180  -6.381   2.605  0.00  0.00    +0.038 C 
ENDBRANCH  30  32
ENDBRANCH  29  30
ENDBRANCH  23  29
BRANCH  28  33
ATOM     33  O   UNK A   0       8.450  -1.510   3.119  0.00  0.00    -0.488 OA
BRANCH  33  34
ATOM     34  C   UNK A   0       8.477  -0.125   3.471  0.00  0.00    +0.229 C 
BRANCH  34  35
ATOM     35  C   UNK A   0       9.580   0.117   4.504  0.00  0.00    +0.038 C 
ATOM     36  C   UNK A   0       9.608   1.600   4.881  0.00  0.00    +0.007 C 
ENDBRANCH  34  35
ENDBRANCH  33  34
ENDBRANCH  28  33
ENDBRANCH  21  26
ENDBRANCH   1  21
TORSDOF 13
