REMARK  Name = ZINC03098482
REMARK  6 active torsions:
REMARK  status: ('A' for Active; 'I' for Inactive)
REMARK    1  A    between atoms: C_1  and  C_2
REMARK    2  A    between atoms: C_3  and  C_24
REMARK    3  A    between atoms: C_4  and  C_14
REMARK    4  A    between atoms: C_24  and  O_26
REMARK    5  A    between atoms: O_26  and  C_27
REMARK    6  A    between atoms: C_27  and  C_28
REMARK                            x       y       z     vdW  Elec       q    Type
REMARK                         _______ _______ _______ _____ _____    ______ ____
ROOT
ATOM      1  C   UNL     1       0.079   5.585   0.878  0.00  0.00    +0.061 C 
ATOM      2  C   UNL     1      -0.023   4.147   0.440  0.00  0.00    +0.016 C 
ATOM      3  C   UNL     1      -1.215   3.526   0.459  0.00  0.00    +0.065 C 
ATOM      4  C   UNL     1      -1.355   2.097   0.020  0.00  0.00    +0.093 C 
ATOM      5  C   UNL     1      -0.017   1.402   0.010  0.00  0.00    +0.024 C 
ATOM      6  C   UNL     1       1.130   2.114   0.003  0.00  0.00    +0.015 C 
ATOM      7  N   UNL     1       1.098   3.483   0.025  0.00  0.00    -0.321 N 
ATOM      8  C   UNL     1       2.472   1.426  -0.027  0.00  0.00    +0.051 C 
ATOM      9  C   UNL     1       2.374   0.079   0.694  0.00  0.00    +0.014 C 
ATOM     10  C   UNL     1       1.299  -0.766   0.002  0.00  0.00    +0.080 C 
ATOM     11  C   UNL     1       0.002  -0.004   0.002  0.00  0.00    +0.162 C 
ATOM     12  O   UNL     1      -1.048  -0.615  -0.004  0.00  0.00    -0.292 OA
ATOM     13  H   UNL     1       1.985   4.048  -0.295  0.00  0.00    +0.152 HD
ENDROOT
BRANCH   4  14
ATOM     14  C   UNL     1      -1.944   2.058  -1.367  0.00  0.00    -0.018 A 
ATOM     15  C   UNL     1      -1.268   2.648  -2.420  0.00  0.00    +0.055 A 
ATOM     16  C   UNL     1      -1.804   2.609  -3.696  0.00  0.00    +0.167 A 
ATOM     17  C   UNL     1      -3.031   1.985  -3.914  0.00  0.00    +0.167 A 
ATOM     18  C   UNL     1      -3.705   1.401  -2.855  0.00  0.00    +0.065 A 
ATOM     19  C   UNL     1      -3.160   1.438  -1.583  0.00  0.00    +0.026 A 
ATOM     20 BR   UNL     1      -4.083   0.639  -0.138  0.00  0.00    -0.050 Br
ATOM     21  O   UNL     1      -3.342   2.087  -5.239  0.00  0.00    -0.453 OA
ATOM     22  C   UNL     1      -2.107   2.419  -5.900  0.00  0.00    +0.466 C 
ATOM     23  O   UNL     1      -1.348   3.102  -4.885  0.00  0.00    -0.453 OA
ENDBRANCH   4  14
BRANCH   3  24
ATOM     24  C   UNL     1      -2.359   4.233   0.898  0.00  0.00    +0.338 C 
ATOM     25  O   UNL     1      -2.258   5.392   1.254  0.00  0.00    -0.245 OA
BRANCH  24  26
ATOM     26  O   UNL     1      -3.562   3.622   0.922  0.00  0.00    -0.457 OA
BRANCH  26  27
ATOM     27  C   UNL     1      -4.673   4.396   1.377  0.00  0.00    +0.268 C 
BRANCH  27  28
ATOM     28  C   UNL     1      -5.922   3.554   1.335  0.00  0.00    -0.010 A 
ATOM     29  C   UNL     1      -6.705   3.534   0.196  0.00  0.00    +0.007 A 
ATOM     30  C   UNL     1      -7.848   2.758   0.156  0.00  0.00    +0.000 A 
ATOM     31  C   UNL     1      -8.214   2.009   1.259  0.00  0.00    +0.000 A 
ATOM     32  C   UNL     1      -7.434   2.033   2.400  0.00  0.00    +0.000 A 
ATOM     33  C   UNL     1      -6.288   2.805   2.438  0.00  0.00    +0.007 A 
ENDBRANCH  27  28
ENDBRANCH  26  27
ENDBRANCH  24  26
ENDBRANCH   3  24
TORSDOF 5
