REMARK  Name = ZINC43199450
REMARK  14 active torsions:
REMARK  status: ('A' for Active; 'I' for Inactive)
REMARK    1  A    between atoms: C_1  and  C_2
REMARK    2  A    between atoms: C_4  and  O_20
REMARK    3  A    between atoms: C_6  and  C_17
REMARK    4  A    between atoms: C_12  and  O_16
REMARK    5  A    between atoms: C_17  and  C_18
REMARK    6  A    between atoms: C_17  and  C_19
REMARK    7  A    between atoms: O_20  and  C_21
REMARK    8  A    between atoms: C_23  and  O_39
REMARK    9  A    between atoms: C_25  and  O_38
REMARK   10  A    between atoms: C_27  and  O_37
REMARK   11  A    between atoms: C_29  and  C_32
REMARK   12  A    between atoms: C_32  and  O_33
REMARK   13  A    between atoms: O_33  and  C_34
REMARK   14  A    between atoms: C_34  and  C_36
REMARK                            x       y       z     vdW  Elec       q    Type
REMARK                         _______ _______ _______ _____ _____    ______ ____
ROOT
ATOM      1  O   UNL     1      -0.839  -2.890  -0.639  0.00  0.00    -0.341 OA
ENDROOT
BRANCH   1   5
ATOM      2  C   UNL     1      -0.371   1.443  -0.436  0.00  0.00    +0.039 C 
ATOM      3  C   UNL     1      -0.273  -0.067  -0.346  0.00  0.00    -0.074 C 
ATOM      4  C   UNL     1      -0.078  -0.737  -1.449  0.00  0.00    +0.003 C 
ATOM      5  C   UNL     1       0.010  -2.223  -1.569  0.00  0.00    +0.148 C 
ATOM      6  C   UNL     1       1.442  -2.726  -1.461  0.00  0.00    +0.025 C 
ATOM      7  C   UNL     1       2.243  -1.975  -0.408  0.00  0.00    +0.011 C 
ATOM      8  C   UNL     1       2.121  -2.622   0.969  0.00  0.00    +0.033 C 
ATOM      9  C   UNL     1       2.378  -1.586   2.038  0.00  0.00    -0.049 C 
ATOM     10  C   UNL     1       3.603  -1.171   2.250  0.00  0.00    +0.010 C 
ATOM     11  C   UNL     1       1.244  -1.030   2.857  0.00  0.00    +0.140 C 
ATOM     12  C   UNL     1       0.462  -0.003   2.036  0.00  0.00    +0.040 C 
ATOM     13  C   UNL     1      -0.404  -0.723   1.000  0.00  0.00    +0.033 C 
BRANCH   6  14
ATOM     14  C   UNL     1       1.452  -4.229  -1.177  0.00  0.00    -0.011 C 
ATOM     15  C   UNL     1       0.703  -4.963  -2.291  0.00  0.00    +0.007 C 
ATOM     16  C   UNL     1       2.897  -4.727  -1.120  0.00  0.00    +0.007 C 
ENDBRANCH   6  14
BRANCH  11  17
ATOM     17  O   UNL     1       0.377  -2.088   3.266  0.00  0.00    -0.388 OA
ATOM     18  H   UNL     1       0.809  -2.764   3.806  0.00  0.00    +0.210 HD
ENDBRANCH  11  17
ENDBRANCH   1   5
BRANCH   1  19
ATOM     19  C   UNL     1      -2.197  -3.001  -1.069  0.00  0.00    +0.282 C 
ATOM     20  C   UNL     1      -3.065  -3.478   0.099  0.00  0.00    +0.201 C 
ATOM     21  C   UNL     1      -4.508  -3.653  -0.384  0.00  0.00    +0.179 C 
ATOM     22  C   UNL     1      -4.525  -4.634  -1.560  0.00  0.00    +0.178 C 
ATOM     23  C   UNL     1      -3.602  -4.113  -2.664  0.00  0.00    +0.190 C 
ATOM     24  O   UNL     1      -2.283  -3.943  -2.140  0.00  0.00    -0.339 OA
BRANCH  22  25
ATOM     25  O   UNL     1      -4.069  -5.915  -1.120  0.00  0.00    -0.386 OA
ATOM     26  H   UNL     1      -4.607  -6.304  -0.417  0.00  0.00    +0.210 HD
ENDBRANCH  22  25
BRANCH  21  27
ATOM     27  O   UNL     1      -5.310  -4.166   0.681  0.00  0.00    -0.386 OA
ATOM     28  H   UNL     1      -5.338  -3.596   1.462  0.00  0.00    +0.210 HD
ENDBRANCH  21  27
BRANCH  20  29
ATOM     29  O   UNL     1      -2.568  -4.728   0.584  0.00  0.00    -0.384 OA
ATOM     30  H   UNL     1      -1.656  -4.691   0.902  0.00  0.00    +0.210 HD
ENDBRANCH  20  29
BRANCH  23  31
ATOM     31  C   UNL     1      -3.567  -5.117  -3.818  0.00  0.00    +0.266 C 
BRANCH  31  32
ATOM     32  O   UNL     1      -2.799  -4.578  -4.896  0.00  0.00    -0.462 OA
BRANCH  32  33
ATOM     33  C   UNL     1      -2.671  -5.341  -5.993  0.00  0.00    +0.304 C 
ATOM     34  O   UNL     1      -3.193  -6.429  -6.037  0.00  0.00    -0.251 OA
ATOM     35  C   UNL     1      -1.875  -4.839  -7.170  0.00  0.00    +0.136 C 
ENDBRANCH  32  33
ENDBRANCH  31  32
ENDBRANCH  23  31
ENDBRANCH   1  19
TORSDOF 10
