REMARK  Name = ZINC20764589
REMARK  8 active torsions:
REMARK  status: ('A' for Active; 'I' for Inactive)
REMARK    1  A    between atoms: C_1  and  O_2
REMARK    2  A    between atoms: O_2  and  C_3
REMARK    3  A    between atoms: C_6  and  C_9
REMARK    4  A    between atoms: C_11  and  C_25
REMARK    5  A    between atoms: C_14  and  C_17
REMARK    6  A    between atoms: C_22  and  O_23
REMARK    7  A    between atoms: C_28  and  O_32
REMARK    8  A    between atoms: O_32  and  C_33
REMARK                            x       y       z     vdW  Elec       q    Type
REMARK                         _______ _______ _______ _____ _____    ______ ____
ROOT
ATOM      1  C   UNL     1      -3.218   5.645   1.548  0.00  0.00    +0.040 C 
ATOM      2  N   UNL     1      -2.381   5.150   0.715  0.00  0.00    -0.299 NA
ATOM      3  C   UNL     1      -2.554   3.866   0.046  0.00  0.00    +0.081 C 
ATOM      4  N   UNL     1      -3.554   3.049   0.744  0.00  0.00    +0.401 N 
ATOM      5  C   UNL     1      -4.790   3.824   0.951  0.00  0.00    -0.028 C 
ATOM      6  C   UNL     1      -4.489   4.948   1.947  0.00  0.00    +0.044 C 
ATOM      7  H   UNL     1      -3.785   2.158   0.142  0.00  0.00    -0.081 HD
ATOM      8  H   UNL     1      -3.157   2.739   1.722  0.00  0.00    -0.081 HD
ENDROOT
BRANCH   5   9
ATOM      9  C   UNL     1      -5.866   2.927   1.506  0.00  0.00    -0.018 A 
ATOM     10  C   UNL     1      -5.522   1.790   2.212  0.00  0.00    +0.025 A 
ATOM     11  C   UNL     1      -6.510   0.967   2.722  0.00  0.00    +0.041 A 
ATOM     12  C   UNL     1      -7.843   1.279   2.526  0.00  0.00    +0.023 A 
ATOM     13  C   UNL     1      -8.191   2.414   1.820  0.00  0.00    +0.047 A 
ATOM     14  C   UNL     1      -7.202   3.245   1.313  0.00  0.00    +0.119 A 
ATOM     15 CL   UNL     1      -6.075  -0.461   3.610  0.00  0.00    -0.084 Cl
BRANCH  14  16
ATOM     16  O   UNL     1      -7.543   4.365   0.623  0.00  0.00    -0.507 OA
ATOM     17  H   UNL     1      -8.603   4.617   0.471  0.00  0.00    +0.292 HD
ENDBRANCH  14  16
ENDBRANCH   5   9
BRANCH   3  18
ATOM     18  C   UNL     1      -1.238   3.133   0.030  0.00  0.00    -0.039 A 
ATOM     19  C   UNL     1      -1.218   1.751   0.017  0.00  0.00    +0.007 A 
ATOM     20  C   UNL     1      -0.013   1.076   0.008  0.00  0.00    +0.047 A 
ATOM     21  C   UNL     1       1.179   1.786   0.000  0.00  0.00    +0.134 A 
ATOM     22  C   UNL     1       1.157   3.174   0.008  0.00  0.00    +0.060 A 
ATOM     23  C   UNL     1      -0.052   3.844   0.023  0.00  0.00    +0.022 A 
ATOM     24 BR   UNL     1       2.778   4.147  -0.003  0.00  0.00    -0.047 Br
BRANCH  21  25
ATOM     25  O   UNL     1       2.366   1.124  -0.015  0.00  0.00    -0.494 OA
ATOM     26  C   UNL     1       2.313  -0.304  -0.023  0.00  0.00    +0.277 C 
ENDBRANCH  21  25
ENDBRANCH   3  18
BRANCH   1  30
ATOM     27  C   UNL     1      -2.365   9.434   3.263  0.00  0.00    +0.120 A 
ATOM     28  C   UNL     1      -1.478   8.869   2.355  0.00  0.00    +0.046 A 
ATOM     29  C   UNL     1      -1.750   7.639   1.797  0.00  0.00    +0.013 A 
ATOM     30  C   UNL     1      -2.922   6.961   2.143  0.00  0.00    -0.004 A 
ATOM     31  C   UNL     1      -3.814   7.536   3.052  0.00  0.00    +0.013 A 
ATOM     32  C   UNL     1      -3.531   8.763   3.610  0.00  0.00    +0.046 A 
BRANCH  27  34
ATOM     33  C   UNL     1      -3.047  11.168   4.737  0.00  0.00    +0.277 C 
ATOM     34  O   UNL     1      -2.092  10.645   3.811  0.00  0.00    -0.495 OA
ENDBRANCH  27  34
ENDBRANCH   1  30
TORSDOF 6
