REMARK  Name = ZINC18271034
REMARK  4 active torsions:
REMARK  status: ('A' for Active; 'I' for Inactive)
REMARK    1  A    between atoms: C_3  and  N_10
REMARK    2  A    between atoms: C_6  and  C_7
REMARK    3  A    between atoms: N_29  and  C_32
REMARK    4  A    between atoms: C_35  and  C_38
REMARK                            x       y       z     vdW  Elec       q    Type
REMARK                         _______ _______ _______ _____ _____    ______ ____
ROOT
ATOM      1  N   UNL     1       3.580   2.135  -0.021  0.00  0.00    -0.210 N 
ATOM      2  C   UNL     1       3.624   3.469  -0.107  0.00  0.00    +0.231 C 
ATOM      3  O   UNL     1       2.661   4.204  -0.142  0.00  0.00    -0.274 OA
ATOM      4  C   UNL     1       5.063   3.909  -0.153  0.00  0.00    +0.096 C 
ATOM      5  C   UNL     1       5.883   2.606   0.070  0.00  0.00    +0.096 C 
ATOM      6  C   UNL     1       4.771   1.545   0.062  0.00  0.00    +0.231 C 
ATOM      7  O   UNL     1       4.952   0.348   0.120  0.00  0.00    -0.274 OA
ATOM      8  C   UNL     1       6.449   2.558   1.525  0.00  0.00    +0.037 C 
ATOM      9  C   UNL     1       5.269   2.943   2.452  0.00  0.00    -0.026 C 
ATOM     10  C   UNL     1       4.808   4.162   2.208  0.00  0.00    -0.026 C 
ATOM     11  C   UNL     1       5.344   4.904   1.010  0.00  0.00    +0.037 C 
ATOM     12  C   UNL     1       6.861   4.965   1.000  0.00  0.00    +0.096 C 
ATOM     13  C   UNL     1       7.336   3.716   1.786  0.00  0.00    +0.096 C 
ATOM     14  C   UNL     1       8.746   3.975   2.002  0.00  0.00    +0.231 C 
ATOM     15  O   UNL     1       9.654   3.173   2.060  0.00  0.00    -0.274 OA
ATOM     16  N   UNL     1       8.812   5.345   2.126  0.00  0.00    -0.210 N 
ATOM     17  C   UNL     1       7.598   5.993   1.814  0.00  0.00    +0.231 C 
ATOM     18  O   UNL     1       7.239   7.119   2.085  0.00  0.00    -0.274 OA
ENDROOT
BRANCH   1  21
ATOM     19  C   UNL     1       0.804   0.034   1.149  0.00  0.00    +0.017 A 
ATOM     20  C   UNL     1       1.985   0.741   1.136  0.00  0.00    +0.025 A 
ATOM     21  C   UNL     1       2.381   1.418  -0.013  0.00  0.00    +0.044 A 
ATOM     22  C   UNL     1       1.586   1.383  -1.154  0.00  0.00    +0.025 A 
ATOM     23  C   UNL     1       0.403   0.679  -1.150  0.00  0.00    +0.017 A 
ATOM     24  C   UNL     1       0.002  -0.003   0.003  0.00  0.00    +0.063 A 
BRANCH  24  25
ATOM     25  C   UNL     1      -1.263  -0.759   0.012  0.00  0.00    +0.387 C 
ATOM     26  O   UNL     1      -1.612  -1.355   1.021  0.00  0.00    -0.241 OA
ATOM     27  O   UNL     1      -1.963  -0.791  -0.991  0.00  0.00    -0.241 OA
ENDBRANCH  24  25
ENDBRANCH   1  21
BRANCH  16  28
ATOM     28  C   UNL     1       9.956   6.026   2.550  0.00  0.00    +0.044 A 
ATOM     29  C   UNL     1      11.109   5.316   2.868  0.00  0.00    +0.025 A 
ATOM     30  C   UNL     1      12.237   5.984   3.286  0.00  0.00    +0.017 A 
ATOM     31  C   UNL     1      12.223   7.378   3.392  0.00  0.00    +0.063 A 
ATOM     32  C   UNL     1      11.062   8.089   3.072  0.00  0.00    +0.017 A 
ATOM     33  C   UNL     1       9.939   7.414   2.649  0.00  0.00    +0.025 A 
BRANCH  31  34
ATOM     34  C   UNL     1      13.429   8.097   3.840  0.00  0.00    +0.387 C 
ATOM     35  O   UNL     1      14.444   7.474   4.120  0.00  0.00    -0.241 OA
ATOM     36  O   UNL     1      13.415   9.317   3.932  0.00  0.00    -0.241 OA
ENDBRANCH  31  34
ENDBRANCH  16  28
TORSDOF 4
