REMARK  Name = ZINC51364483
REMARK  5 active torsions:
REMARK  status: ('A' for Active; 'I' for Inactive)
REMARK    1  A    between atoms: C_4  and  C_7
REMARK    2  A    between atoms: C_7  and  C_9
REMARK    3  A    between atoms: C_16  and  C_18
REMARK    4  A    between atoms: N_20  and  C_21
REMARK    5  A    between atoms: C_26  and  C_27
REMARK                            x       y       z     vdW  Elec       q    Type
REMARK                         _______ _______ _______ _____ _____    ______ ____
ROOT
ATOM      1  C   UNL     1       3.751  -2.122   0.054  0.00  0.00    +0.090 A 
ATOM      2  C   UNL     1       2.648  -2.953   0.073  0.00  0.00    +0.031 A 
ATOM      3  C   UNL     1       3.122  -4.260   0.189  0.00  0.00    +0.024 A 
ATOM      4  C   UNL     1       4.480  -4.211   0.239  0.00  0.00    +0.031 A 
ATOM      5  N   UNL     1       4.876  -2.919   0.150  0.00  0.00    -0.341 N 
ATOM      6  C   UNL     1       6.344  -2.816   0.186  0.00  0.00    +0.123 C 
ATOM      7  C   UNL     1       6.842  -4.166   0.745  0.00  0.00    +0.040 C 
ATOM      8  C   UNL     1       5.690  -5.116   0.357  0.00  0.00    +0.123 C 
ENDROOT
BRANCH   8   9
ATOM      9  C   UNL     1       5.990  -5.772  -0.966  0.00  0.00    +0.226 C 
ATOM     10  O   UNL     1       5.293  -5.537  -1.931  0.00  0.00    -0.275 OA
ATOM     11  N   UNL     1       7.032  -6.620  -1.078  0.00  0.00    -0.284 N 
ATOM     12  H   UNL     1       7.541  -6.869  -0.291  0.00  0.00    +0.155 HD
BRANCH  11  13
ATOM     13  C   UNL     1       7.378  -7.138  -2.325  0.00  0.00    +0.051 A 
ATOM     14  C   UNL     1       7.040  -6.453  -3.483  0.00  0.00    +0.024 A 
ATOM     15  C   UNL     1       7.383  -6.968  -4.717  0.00  0.00    +0.002 A 
ATOM     16  C   UNL     1       8.066  -8.170  -4.810  0.00  0.00    +0.001 A 
ATOM     17  C   UNL     1       8.409  -8.865  -3.670  0.00  0.00    +0.021 A 
ATOM     18  C   UNL     1       8.074  -8.353  -2.414  0.00  0.00    +0.073 A 
BRANCH  18  19
ATOM     19  C   UNL     1       8.434  -9.066  -1.226  0.00  0.00    +0.101 C 
ATOM     20  N   UNL     1       8.719  -9.632  -0.283  0.00  0.00    -0.191 NA
ENDBRANCH  18  19
ENDBRANCH  11  13
ENDBRANCH   8   9
BRANCH   1  21
ATOM     21  C   UNL     1       3.732  -0.662  -0.054  0.00  0.00    +0.209 C 
ATOM     22  O   UNL     1       4.773  -0.049  -0.197  0.00  0.00    -0.285 OA
BRANCH  21  26
ATOM     23  C   UNL     1       0.041   1.433   0.133  0.00  0.00    +0.000 A 
ATOM     24  C   UNL     1       1.111   1.983  -0.551  0.00  0.00    +0.001 A 
ATOM     25  C   UNL     1       2.312   1.308  -0.615  0.00  0.00    +0.012 A 
ATOM     26  C   UNL     1       2.447   0.068   0.012  0.00  0.00    +0.024 A 
ATOM     27  C   UNL     1       1.363  -0.481   0.700  0.00  0.00    +0.012 A 
ATOM     28  C   UNL     1       0.168   0.205   0.757  0.00  0.00    +0.001 A 
ENDBRANCH  21  26
ENDBRANCH   1  21
TORSDOF 5
