REMARK  Name = ZINC47679595
REMARK  7 active torsions:
REMARK  status: ('A' for Active; 'I' for Inactive)
REMARK    1  A    between atoms: C_1  and  C_2
REMARK    2  A    between atoms: C_2  and  N_3
REMARK    3  A    between atoms: C_4  and  C_6
REMARK    4  A    between atoms: C_9  and  C_12
REMARK    5  A    between atoms: C_12  and  N_13
REMARK    6  A    between atoms: N_16  and  C_17
REMARK    7  A    between atoms: C_22  and  C_23
REMARK                            x       y       z     vdW  Elec       q    Type
REMARK                         _______ _______ _______ _____ _____    ______ ____
ROOT
ATOM      1  C   UNL     1       3.521  -3.655  -6.159  0.00  0.00    +0.141 C 
ENDROOT
BRANCH   1   5
ATOM      2  C   UNL     1       1.519  -2.275  -2.641  0.00  0.00    +0.037 A 
ATOM      3  C   UNL     1       2.034  -1.359  -3.559  0.00  0.00    +0.013 A 
ATOM      4  C   UNL     1       2.679  -1.810  -4.692  0.00  0.00    +0.006 A 
ATOM      5  C   UNL     1       2.816  -3.168  -4.920  0.00  0.00    -0.030 A 
ATOM      6  C   UNL     1       2.306  -4.082  -4.014  0.00  0.00    +0.006 A 
ATOM      7  C   UNL     1       1.665  -3.644  -2.874  0.00  0.00    +0.013 A 
BRANCH   2   9
ATOM      8  N   UNL     1       0.688  -0.476  -1.203  0.00  0.00    -0.312 N 
ATOM      9  C   UNL     1       0.827  -1.799  -1.425  0.00  0.00    +0.244 C 
ATOM     10  O   UNL     1       0.383  -2.599  -0.625  0.00  0.00    -0.270 OA
ATOM     11  H   UNL     1       1.042   0.162  -1.842  0.00  0.00    +0.149 HD
BRANCH   8  13
ATOM     12  C   UNL     1      -0.019   1.526   0.010  0.00  0.00    +0.024 C 
ATOM     13  C   UNL     1       0.002  -0.004   0.002  0.00  0.00    +0.101 C 
ENDBRANCH   8  13
ENDBRANCH   2   9
ENDBRANCH   1   5
BRANCH   1  14
ATOM     14  N   UNL     1       4.951  -3.806  -5.880  0.00  0.00    -0.295 N 
ATOM     15  C   UNL     1       5.785  -4.232  -6.849  0.00  0.00    +0.300 C 
ATOM     16  O   UNL     1       5.351  -4.491  -7.955  0.00  0.00    -0.253 OA
ATOM     17  N   UNL     1       7.101  -4.371  -6.592  0.00  0.00    -0.296 N 
ATOM     18  H   UNL     1       5.297  -3.599  -4.998  0.00  0.00    +0.151 HD
ATOM     19  H   UNL     1       7.447  -4.164  -5.710  0.00  0.00    +0.151 HD
BRANCH  17  20
ATOM     20  C   UNL     1       8.008  -4.834  -7.645  0.00  0.00    +0.077 C 
ATOM     21  C   UNL     1       8.004  -6.364  -7.685  0.00  0.00    +0.022 C 
ATOM     22  C   UNL     1       8.951  -6.848  -8.785  0.00  0.00    +0.002 C 
ATOM     23  C   UNL     1      10.368  -6.349  -8.493  0.00  0.00    +0.000 C 
ATOM     24  C   UNL     1      10.372  -4.819  -8.453  0.00  0.00    +0.005 C 
ATOM     25  C   UNL     1       9.425  -4.336  -7.353  0.00  0.00    +0.006 C 
ATOM     26  C   UNL     1       9.429  -2.806  -7.313  0.00  0.00    +0.009 C 
ENDBRANCH  17  20
ENDBRANCH   1  14
TORSDOF 5
