REMARK  Name = ZINC35938767
REMARK  8 active torsions:
REMARK  status: ('A' for Active; 'I' for Inactive)
REMARK    1  A    between atoms: C_1  and  C_2
REMARK    2  A    between atoms: C_7  and  C_8
REMARK    3  A    between atoms: N_17  and  C_18
REMARK    4  A    between atoms: C_18  and  C_19
REMARK    5  A    between atoms: C_19  and  C_20
REMARK    6  A    between atoms: C_26  and  C_29
REMARK    7  A    between atoms: C_30  and  C_32
REMARK    8  A    between atoms: C_35  and  C_37
REMARK                            x       y       z     vdW  Elec       q    Type
REMARK                         _______ _______ _______ _____ _____    ______ ____
ROOT
ATOM      1  C   UNL     1      -2.997  -2.931   4.578  0.00  0.00    +0.214 C 
ATOM      2  O   UNL     1      -3.763  -2.494   3.746  0.00  0.00    -0.276 OA
ATOM      3  N   UNL     1      -3.413  -3.873   5.449  0.00  0.00    -0.298 N 
ATOM      4  C   UNL     1      -2.498  -4.407   6.467  0.00  0.00    +0.127 C 
ATOM      5  C   UNL     1      -2.450  -5.934   6.330  0.00  0.00    +0.127 C 
ATOM      6  N   UNL     1      -3.827  -6.444   6.278  0.00  0.00    -0.295 N 
ATOM      7  C   UNL     1      -4.742  -5.910   5.260  0.00  0.00    +0.090 C 
ATOM      8  C   UNL     1      -4.792  -4.379   5.400  0.00  0.00    +0.130 C 
ATOM      9  C   UNL     1      -4.238  -6.288   3.866  0.00  0.00    +0.029 C 
ATOM     10  C   UNL     1      -4.243  -7.385   7.148  0.00  0.00    +0.220 C 
ATOM     11  O   UNL     1      -5.382  -7.799   7.096  0.00  0.00    -0.275 OA
ENDROOT
BRANCH  10  12
ATOM     12  C   UNL     1      -3.293  -7.924   8.187  0.00  0.00    +0.083 C 
ATOM     13  C   UNL     1      -2.837  -9.377   8.040  0.00  0.00    +0.022 C 
ATOM     14  C   UNL     1      -3.825  -8.992   9.144  0.00  0.00    +0.032 C 
BRANCH  14  15
ATOM     15  C   UNL     1      -3.312  -8.974  10.561  0.00  0.00    -0.044 A 
ATOM     16  C   UNL     1      -1.960  -9.116  10.809  0.00  0.00    +0.004 A 
ATOM     17  C   UNL     1      -1.490  -9.099  12.109  0.00  0.00    +0.000 A 
ATOM     18  C   UNL     1      -2.372  -8.940  13.161  0.00  0.00    +0.000 A 
ATOM     19  C   UNL     1      -3.725  -8.797  12.913  0.00  0.00    +0.000 A 
ATOM     20  C   UNL     1      -4.194  -8.810  11.613  0.00  0.00    +0.004 A 
ENDBRANCH  14  15
ENDBRANCH  10  12
BRANCH   1  21
ATOM     21  C   UNL     1      -1.580  -2.422   4.640  0.00  0.00    +0.077 C 
BRANCH  21  22
ATOM     22  C   UNL     1      -1.369  -1.368   3.551  0.00  0.00    -0.068 C 
BRANCH  22  31
ATOM     23  C   UNL     1       0.243   0.050   2.492  0.00  0.00    -0.006 C 
ATOM     24  C   UNL     1       1.644   0.640   2.620  0.00  0.00    -0.047 A 
ATOM     25  C   UNL     1       2.341   1.229   1.568  0.00  0.00    +0.010 A 
ATOM     26  C   UNL     1       3.583   1.725   1.772  0.00  0.00    +0.045 A 
ATOM     27  S   UNL     1       3.839   1.376   3.506  0.00  0.00    -0.101 S 
ATOM     28  C   UNL     1       2.280   0.602   3.825  0.00  0.00    -0.010 A 
ATOM     29  C   UNL     1       1.740   0.030   5.095  0.00  0.00    +0.024 C 
ATOM     30  C   UNL     1       0.230  -0.194   4.897  0.00  0.00    -0.072 C 
ATOM     31  N   UNL     1       0.012  -0.871   3.611  0.00  0.00    +0.388 N 
ATOM     32  H   UNL     1       0.648  -1.651   3.536  0.00  0.00    -0.080 HD
BRANCH  23  39
ATOM     33  C   UNL     1      -0.648   1.422   0.111  0.00  0.00    +0.044 C 
ATOM     34  C   UNL     1      -0.299  -0.043   0.050  0.00  0.00    -0.049 A 
ATOM     35  C   UNL     1      -0.400  -0.728  -1.146  0.00  0.00    +0.003 A 
ATOM     36  C   UNL     1      -0.080  -2.072  -1.202  0.00  0.00    +0.000 A 
ATOM     37  C   UNL     1       0.342  -2.730  -0.061  0.00  0.00    +0.000 A 
ATOM     38  C   UNL     1       0.443  -2.044   1.134  0.00  0.00    +0.002 A 
ATOM     39  C   UNL     1       0.127  -0.699   1.189  0.00  0.00    -0.054 A 
ENDBRANCH  23  39
ENDBRANCH  22  31
ENDBRANCH  21  22
ENDBRANCH   1  21
TORSDOF 6
