REMARK  Name = ZINC13063699
REMARK  14 active torsions:
REMARK  status: ('A' for Active; 'I' for Inactive)
REMARK    1  A    between atoms: C_1  and  C_2
REMARK    2  A    between atoms: C_2  and  C_3
REMARK    3  A    between atoms: C_10  and  C_15
REMARK    4  A    between atoms: C_15  and  N_73
REMARK    5  A    between atoms: C_16  and  C_17
REMARK    6  A    between atoms: C_16  and  N_73
REMARK    7  A    between atoms: C_23  and  C_25
REMARK    8  A    between atoms: C_23  and  C_27
REMARK    9  A    between atoms: C_23  and  N_73
REMARK   10  A    between atoms: C_25  and  C_26
REMARK   11  A    between atoms: N_31  and  C_32
REMARK   12  A    between atoms: C_32  and  C_33
REMARK   13  A    between atoms: C_36  and  O_39
REMARK   14  A    between atoms: O_39  and  C_40
REMARK                            x       y       z     vdW  Elec       q    Type
REMARK                         _______ _______ _______ _____ _____    ______ ____
ROOT
ATOM      1  N   UNL     1       0.559   1.515   1.296  0.00  0.00    +0.392 N 
ATOM      2  H   UNL     1       0.021   1.645   2.160  0.00  0.00    -0.080 HD
ENDROOT
BRANCH   1   3
ATOM      3  C   UNL     1      -0.372   1.190   0.195  0.00  0.00    -0.036 C 
BRANCH   3  11
ATOM      4  C   UNL     1      -5.274  -0.758   3.430  0.00  0.00    -0.047 A 
ATOM      5  C   UNL     1      -5.245  -2.072   2.981  0.00  0.00    +0.005 A 
ATOM      6  C   UNL     1      -4.284  -2.488   2.085  0.00  0.00    +0.026 A 
ATOM      7  C   UNL     1      -3.331  -1.584   1.627  0.00  0.00    +0.049 A 
ATOM      8  C   UNL     1      -3.363  -0.254   2.084  0.00  0.00    -0.001 A 
ATOM      9  C   UNL     1      -4.349   0.146   2.993  0.00  0.00    +0.013 A 
ATOM     10  C   UNL     1      -2.352   0.688   1.600  0.00  0.00    +0.017 A 
ATOM     11  C   UNL     1      -1.424   0.245   0.717  0.00  0.00    +0.001 A 
ATOM     12  C   UNL     1      -1.436  -1.100   0.289  0.00  0.00    +0.251 A 
ATOM     13  O   UNL     1      -0.590  -1.479  -0.502  0.00  0.00    -0.268 OA
ATOM     14  N   UNL     1      -2.357  -1.974   0.732  0.00  0.00    -0.322 N 
ATOM     15  H   UNL     1      -2.336  -2.891   0.417  0.00  0.00    +0.169 HD
BRANCH   4  17
ATOM     16  C   UNL     1      -7.561   0.175   3.643  0.00  0.00    +0.009 C 
ATOM     17  C   UNL     1      -6.336  -0.327   4.409  0.00  0.00    +0.032 C 
ENDBRANCH   4  17
ENDBRANCH   3  11
ENDBRANCH   1   3
BRANCH   1  18
ATOM     18  C   UNL     1       1.285   2.766   0.990  0.00  0.00    -0.042 C 
BRANCH  18  19
ATOM     19  C   UNL     1       0.312   3.916   1.037  0.00  0.00    -0.064 A 
ATOM     20  C   UNL     1      -0.218   4.422  -0.135  0.00  0.00    +0.002 A 
ATOM     21  C   UNL     1      -1.114   5.474  -0.091  0.00  0.00    +0.000 A 
ATOM     22  C   UNL     1      -1.472   6.027   1.124  0.00  0.00    +0.000 A 
ATOM     23  C   UNL     1      -0.938   5.525   2.296  0.00  0.00    +0.000 A 
ATOM     24  C   UNL     1      -0.046   4.469   2.253  0.00  0.00    +0.002 A 
ENDBRANCH  18  19
ENDBRANCH   1  18
BRANCH   1  25
ATOM     25  C   UNL     1       1.519   0.409   1.490  0.00  0.00    +0.003 C 
BRANCH  25  26
ATOM     26  C   UNL     1       2.702   0.909   2.278  0.00  0.00    +0.138 A 
ATOM     27  N   UNL     1       2.666   1.679   3.338  0.00  0.00    -0.115 NA
ATOM     28  N   UNL     1       3.879   1.882   3.724  0.00  0.00    -0.023 NA
ATOM     29  N   UNL     1       4.687   1.268   2.932  0.00  0.00    -0.044 NA
ATOM     30  N   UNL     1       4.000   0.656   2.028  0.00  0.00    -0.226 N 
BRANCH  30  31
ATOM     31  C   UNL     1       4.532  -0.160   0.933  0.00  0.00    +0.182 C 
BRANCH  31  32
ATOM     32  C   UNL     1       4.779   0.714  -0.270  0.00  0.00    -0.026 A 
ATOM     33  C   UNL     1       3.779   0.896  -1.207  0.00  0.00    +0.009 A 
ATOM     34  C   UNL     1       4.001   1.700  -2.308  0.00  0.00    +0.046 A 
ATOM     35  C   UNL     1       5.232   2.316  -2.479  0.00  0.00    +0.120 A 
ATOM     36  C   UNL     1       6.236   2.127  -1.540  0.00  0.00    +0.046 A 
ATOM     37  C   UNL     1       6.007   1.326  -0.438  0.00  0.00    +0.009 A 
BRANCH  35  38
ATOM     38  O   UNL     1       5.454   3.104  -3.564  0.00  0.00    -0.495 OA
ATOM     39  C   UNL     1       4.376   3.253  -4.489  0.00  0.00    +0.277 C 
ENDBRANCH  35  38
ENDBRANCH  31  32
ENDBRANCH  30  31
ENDBRANCH  25  26
BRANCH  25  40
ATOM     40  C   UNL     1       0.825  -0.712   2.267  0.00  0.00    -0.011 C 
ATOM     41  C   UNL     1       1.796  -1.878   2.457  0.00  0.00    +0.002 C 
ENDBRANCH  25  40
ENDBRANCH   1  25
TORSDOF 11
