REMARK  Name = ZINC23357747
REMARK  14 active torsions:
REMARK  status: ('A' for Active; 'I' for Inactive)
REMARK    1  A    between atoms: C_1  and  C_2
REMARK    2  A    between atoms: C_2  and  C_3
REMARK    3  A    between atoms: C_2  and  C_4
REMARK    4  A    between atoms: C_4  and  N_5
REMARK    5  A    between atoms: C_6  and  N_31
REMARK    6  A    between atoms: C_7  and  N_14
REMARK    7  A    between atoms: N_14  and  C_15
REMARK    8  A    between atoms: N_14  and  C_19
REMARK    9  A    between atoms: C_15  and  C_16
REMARK   10  A    between atoms: C_16  and  C_17
REMARK   11  A    between atoms: C_16  and  C_18
REMARK   12  A    between atoms: C_19  and  C_20
REMARK   13  A    between atoms: N_22  and  C_23
REMARK   14  A    between atoms: C_23  and  C_24
REMARK                            x       y       z     vdW  Elec       q    Type
REMARK                         _______ _______ _______ _____ _____    ______ ____
ROOT
ATOM      1  N   UNL     1      -0.265   1.285  -4.705  0.00  0.00    -0.314 N 
ENDROOT
BRANCH   1   4
ATOM      2  N   UNL     1      -2.149   0.715  -7.803  0.00  0.00    -0.280 N 
ATOM      3  C   UNL     1      -1.489   0.467  -6.621  0.00  0.00    +0.127 A 
ATOM      4  C   UNL     1      -0.948   1.512  -5.922  0.00  0.00    +0.134 A 
ATOM      5  C   UNL     1      -1.087   2.816  -6.430  0.00  0.00    +0.277 A 
ATOM      6  O   UNL     1      -0.618   3.764  -5.823  0.00  0.00    -0.266 OA
ATOM      7  N   UNL     1      -1.736   3.012  -7.594  0.00  0.00    -0.273 N 
ATOM      8  H   UNL     1      -1.840   4.028  -8.002  0.00  0.00    +0.173 HD
ATOM      9  C   UNL     1      -2.263   1.973  -8.268  0.00  0.00    +0.331 A 
ATOM     10  O   UNL     1      -2.850   2.173  -9.314  0.00  0.00    -0.246 OA
BRANCH   3  11
ATOM     11  N   UNL     1      -1.374  -0.820  -6.146  0.00  0.00    -0.343 N 
ATOM     12  H   UNL     1      -0.845  -1.012  -5.201  0.00  0.00    +0.144 HD
ATOM     13  H   UNL     1      -1.810  -1.656  -6.712  0.00  0.00    +0.144 HD
ENDBRANCH   3  11
BRANCH   2  14
ATOM     14  C   UNL     1      -2.732  -0.396  -8.559  0.00  0.00    +0.131 C 
BRANCH  14  16
ATOM     15  C   UNL     1      -5.023   0.595  -8.453  0.00  0.00    +0.009 C 
ATOM     16  C   UNL     1      -4.173  -0.626  -8.097  0.00  0.00    +0.003 C 
ATOM     17  C   UNL     1      -4.740  -1.863  -8.796  0.00  0.00    +0.009 C 
ENDBRANCH  14  16
ENDBRANCH   2  14
ENDBRANCH   1   4
BRANCH   1  18
ATOM     18  C   UNL     1       1.128   1.744  -4.790  0.00  0.00    +0.109 C 
BRANCH  18  19
ATOM     19  C   UNL     1       1.957   1.062  -3.699  0.00  0.00    +0.000 C 
ATOM     20  C   UNL     1       1.989  -0.447  -3.951  0.00  0.00    +0.009 C 
ATOM     21  C   UNL     1       3.384   1.613  -3.723  0.00  0.00    +0.009 C 
ENDBRANCH  18  19
ENDBRANCH   1  18
BRANCH   1  22
ATOM     22  C   UNL     1      -0.962   1.925  -3.582  0.00  0.00    +0.201 C 
BRANCH  22  23
ATOM     23  C   UNL     1      -2.178   1.112  -3.217  0.00  0.00    +0.231 C 
ATOM     24  O   UNL     1      -2.481   0.143  -3.881  0.00  0.00    -0.274 OA
ATOM     25  N   UNL     1      -2.928   1.462  -2.154  0.00  0.00    -0.310 N 
ATOM     26  H   UNL     1      -2.654   2.341  -1.552  0.00  0.00    +0.149 HD
BRANCH  25  27
ATOM     27  C   UNL     1      -4.110   0.672  -1.799  0.00  0.00    +0.139 C 
BRANCH  27  28
ATOM     28  C   UNL     1      -4.767   1.270  -0.582  0.00  0.00    -0.030 A 
ATOM     29  C   UNL     1      -4.397   0.846   0.681  0.00  0.00    +0.006 A 
ATOM     30  C   UNL     1      -4.995   1.398   1.798  0.00  0.00    +0.020 A 
ATOM     31  C   UNL     1      -5.972   2.366   1.652  0.00  0.00    +0.041 A 
ATOM     32  C   UNL     1      -6.346   2.786   0.388  0.00  0.00    +0.020 A 
ATOM     33  C   UNL     1      -5.743   2.238  -0.728  0.00  0.00    +0.006 A 
ATOM     34 CL   UNL     1      -6.729   3.055   3.055  0.00  0.00    -0.084 Cl
ENDBRANCH  27  28
ENDBRANCH  25  27
ENDBRANCH  22  23
ENDBRANCH   1  22
TORSDOF 10
