REMARK  Name = ZINC41037455
REMARK  5 active torsions:
REMARK  status: ('A' for Active; 'I' for Inactive)
REMARK    1  A    between atoms: C_1  and  C_2
REMARK    2  A    between atoms: C_8  and  C_9
REMARK    3  A    between atoms: C_8  and  N_12
REMARK    4  A    between atoms: C_13  and  C_15
REMARK    5  A    between atoms: C_17  and  N_20
REMARK                            x       y       z     vdW  Elec       q    Type
REMARK                         _______ _______ _______ _____ _____    ______ ____
ROOT
ATOM      1  N   UNL     1       0.762  -1.976   1.234  0.00  0.00    -0.294 N 
ATOM      2  C   UNL     1       1.364  -2.647   2.235  0.00  0.00    +0.263 C 
ATOM      3  O   UNL     1       1.892  -2.036   3.146  0.00  0.00    -0.269 OA
ATOM      4  H   UNL     1       0.342  -2.462   0.507  0.00  0.00    +0.150 HD
ENDROOT
BRANCH   1  11
ATOM      5  C   UNL     1      -0.019   1.526   0.010  0.00  0.00    +0.010 C 
ATOM      6  C   UNL     1       0.002  -0.004   0.002  0.00  0.00    +0.020 C 
ATOM      7  C   UNL     1       0.718  -0.497  -1.257  0.00  0.00    +0.006 C 
ATOM      8  C   UNL     1       2.154   0.032  -1.268  0.00  0.00    +0.000 C 
ATOM      9  C   UNL     1       2.894  -0.475  -0.028  0.00  0.00    +0.003 C 
ATOM     10  C   UNL     1       2.178   0.019   1.231  0.00  0.00    +0.038 C 
ATOM     11  C   UNL     1       0.742  -0.511   1.242  0.00  0.00    +0.139 C 
BRANCH  11  12
ATOM     12  C   UNL     1       0.037  -0.025   2.481  0.00  0.00    +0.379 C 
ATOM     13  O   UNL     1      -0.408  -0.828   3.284  0.00  0.00    -0.244 OA
ATOM     14  O   UNL     1      -0.089   1.171   2.682  0.00  0.00    -0.244 OA
ENDBRANCH  11  12
ENDBRANCH   1  11
BRANCH   2  15
ATOM     15  C   UNL     1       1.384  -4.114   2.227  0.00  0.00    +0.128 A 
ATOM     16  C   UNL     1       1.956  -4.926   3.183  0.00  0.00    +0.067 A 
ATOM     17  C   UNL     1       1.742  -6.248   2.780  0.00  0.00    +0.146 A 
ATOM     18  C   UNL     1       1.058  -6.221   1.611  0.00  0.00    +0.144 A 
ATOM     19  N   UNL     1       0.831  -4.930   1.266  0.00  0.00    -0.248 NA
BRANCH  17  20
ATOM     20  N   UNL     1       2.184  -7.462   3.502  0.00  0.00    +0.058 N 
ATOM     21  O   UNL     1       2.791  -7.358   4.543  0.00  0.00    -0.126 OA
ATOM     22  O   UNL     1       1.939  -8.556   3.052  0.00  0.00    -0.126 OA
ENDBRANCH  17  20
ENDBRANCH   2  15
TORSDOF 4
