REMARK  Name = ZINC02190930
REMARK  10 active torsions:
REMARK  status: ('A' for Active; 'I' for Inactive)
REMARK    1  A    between atoms: C_1  and  C_2
REMARK    2  A    between atoms: C_2  and  O_3
REMARK    3  A    between atoms: O_3  and  C_4
REMARK    4  A    between atoms: C_4  and  C_5
REMARK    5  A    between atoms: C_5  and  O_6
REMARK    6  A    between atoms: O_6  and  C_7
REMARK    7  A    between atoms: C_7  and  C_9
REMARK    8  A    between atoms: C_10  and  C_35
REMARK    9  A    between atoms: C_14  and  C_16
REMARK   10  A    between atoms: C_27  and  C_30
REMARK                            x       y       z     vdW  Elec       q    Type
REMARK                         _______ _______ _______ _____ _____    ______ ____
ROOT
ATOM      1  C   UNL     1       1.230   1.919  -0.221  0.00  0.00    +0.065 C 
ATOM      2  C   UNL     1       2.365   1.271   0.094  0.00  0.00    +0.016 C 
ATOM      3  N   UNL     1       3.524   1.966   0.303  0.00  0.00    -0.321 N 
ATOM      4  C   UNL     1       3.667   3.245  -0.164  0.00  0.00    +0.016 C 
ATOM      5  C   UNL     1       2.583   3.980  -0.491  0.00  0.00    +0.024 C 
ATOM      6  C   UNL     1       1.193   3.415  -0.334  0.00  0.00    +0.094 C 
ATOM      7  C   UNL     1       2.716   5.288  -0.987  0.00  0.00    +0.162 C 
ATOM      8  O   UNL     1       1.720   5.926  -1.263  0.00  0.00    -0.292 OA
ATOM      9  C   UNL     1       4.071   5.913  -1.183  0.00  0.00    +0.088 C 
ATOM     10  C   UNL     1       5.094   4.807  -1.464  0.00  0.00    +0.039 C 
ATOM     11  C   UNL     1       5.059   3.808  -0.306  0.00  0.00    +0.060 C 
ATOM     12  C   UNL     1       2.361  -0.231   0.212  0.00  0.00    +0.061 C 
ATOM     13  H   UNL     1       4.354   1.498   0.852  0.00  0.00    +0.152 HD
ENDROOT
BRANCH   6  14
ATOM     14  C   UNL     1       0.563   3.990   0.908  0.00  0.00    -0.015 A 
ATOM     15  C   UNL     1       1.135   3.758   2.144  0.00  0.00    +0.006 A 
ATOM     16  C   UNL     1       0.558   4.285   3.284  0.00  0.00    +0.002 A 
ATOM     17  C   UNL     1      -0.594   5.044   3.189  0.00  0.00    +0.021 A 
ATOM     18  C   UNL     1      -1.169   5.276   1.952  0.00  0.00    +0.060 A 
ATOM     19  C   UNL     1      -0.586   4.754   0.810  0.00  0.00    +0.063 A 
ATOM     20 CL   UNL     1      -1.301   5.052  -0.744  0.00  0.00    -0.082 Cl
ATOM     21 CL   UNL     1      -2.615   6.229   1.832  0.00  0.00    -0.082 Cl
ENDBRANCH   6  14
BRANCH  10  22
ATOM     22  C   UNL     1       6.472   5.408  -1.573  0.00  0.00    -0.006 A 
ATOM     23  C   UNL     1       7.339   5.370  -2.614  0.00  0.00    +0.011 A 
ATOM     24  C   UNL     1       8.563   6.000  -2.490  0.00  0.00    +0.008 A 
ATOM     25  C   UNL     1       8.860   6.637  -1.330  0.00  0.00    +0.045 A 
ATOM     26  S   UNL     1       7.381   6.361  -0.369  0.00  0.00    -0.101 S 
ENDBRANCH  10  22
BRANCH   1  27
ATOM     27  C   UNL     1       0.047   1.177  -0.444  0.00  0.00    +0.338 C 
ATOM     28  O   UNL     1       0.087  -0.039  -0.471  0.00  0.00    -0.245 OA
BRANCH  27  29
ATOM     29  O   UNL     1      -1.126   1.818  -0.633  0.00  0.00    -0.459 OA
BRANCH  29  30
ATOM     30  C   UNL     1      -2.280   1.006  -0.859  0.00  0.00    +0.260 C 
BRANCH  30  31
ATOM     31  C   UNL     1      -3.505   1.902  -1.050  0.00  0.00    +0.201 C 
BRANCH  31  32
ATOM     32  O   UNL     1      -3.348   2.676  -2.241  0.00  0.00    -0.377 OA
BRANCH  32  34
ATOM     33  C   UNL     1      -4.169   4.326  -3.804  0.00  0.00    +0.034 C 
ATOM     34  C   UNL     1      -4.444   3.552  -2.513  0.00  0.00    +0.156 C 
ENDBRANCH  32  34
ENDBRANCH  31  32
ENDBRANCH  30  31
ENDBRANCH  29  30
ENDBRANCH  27  29
ENDBRANCH   1  27
TORSDOF 8
