REMARK  Name = ZINC06920453
REMARK  6 active torsions:
REMARK  status: ('A' for Active; 'I' for Inactive)
REMARK    1  A    between atoms: C_1  and  C_2
REMARK    2  A    between atoms: C_9  and  N_13
REMARK    3  A    between atoms: C_10  and  C_11
REMARK    4  A    between atoms: N_13  and  C_14
REMARK    5  A    between atoms: C_14  and  C_16
REMARK    6  A    between atoms: C_19  and  C_21
REMARK                            x       y       z     vdW  Elec       q    Type
REMARK                         _______ _______ _______ _____ _____    ______ ____
ROOT
ATOM      1  N   UNL     1      -2.304  -5.916   0.764  0.00  0.00    -0.299 N 
ATOM      2  H   UNL     1      -1.721  -6.619   1.091  0.00  0.00    +0.153 HD
ENDROOT
BRANCH   1  10
ATOM      3  C   UNL     1      -0.019   1.526   0.010  0.00  0.00    +0.008 C 
ATOM      4  C   UNL     1       0.002  -0.004   0.002  0.00  0.00    -0.009 C 
ATOM      5  C   UNL     1       0.742  -0.514   1.242  0.00  0.00    +0.008 C 
ATOM      6  C   UNL     1       0.985  -2.020   1.120  0.00  0.00    +0.037 C 
ATOM      7  C   UNL     1      -0.340  -2.706   0.809  0.00  0.00    -0.018 A 
ATOM      8  C   UNL     1      -1.390  -2.006   0.327  0.00  0.00    -0.004 A 
ATOM      9  S   UNL     1      -2.678  -3.203   0.126  0.00  0.00    -0.077 S 
ATOM     10  C   UNL     1      -1.836  -4.615   0.674  0.00  0.00    +0.088 A 
ATOM     11  C   UNL     1      -0.578  -4.126   0.999  0.00  0.00    +0.084 A 
ATOM     12  C   UNL     1      -1.437  -0.538   0.030  0.00  0.00    +0.046 C 
BRANCH  11  13
ATOM     13  C   UNL     1       0.446  -4.990   1.504  0.00  0.00    +0.102 C 
ATOM     14  N   UNL     1       1.258  -5.676   1.905  0.00  0.00    -0.191 NA
ENDBRANCH  11  13
ENDBRANCH   1  10
BRANCH   1  15
ATOM     15  C   UNL     1      -3.568  -6.204   0.398  0.00  0.00    +0.120 C 
ATOM     16  S   UNL     1      -4.596  -4.963  -0.179  0.00  0.00    -0.031 S 
BRANCH  15  17
ATOM     17  C   UNL     1      -4.062  -7.577   0.494  0.00  0.00    +0.157 A 
ATOM     18  C   UNL     1      -4.949  -8.181  -0.372  0.00  0.00    +0.052 A 
ATOM     19  C   UNL     1      -5.142  -9.486   0.093  0.00  0.00    +0.050 A 
ATOM     20  C   UNL     1      -4.375  -9.631   1.213  0.00  0.00    +0.136 A 
ATOM     21  O   UNL     1      -3.725  -8.476   1.442  0.00  0.00    -0.453 OA
BRANCH  20  22
ATOM     22  C   UNL     1      -4.272 -10.854   2.033  0.00  0.00    +0.017 A 
ATOM     23  C   UNL     1      -5.002 -11.993   1.688  0.00  0.00    +0.013 A 
ATOM     24  C   UNL     1      -4.899 -13.134   2.455  0.00  0.00    +0.021 A 
ATOM     25  C   UNL     1      -4.080 -13.149   3.572  0.00  0.00    +0.041 A 
ATOM     26  C   UNL     1      -3.357 -12.021   3.923  0.00  0.00    +0.021 A 
ATOM     27  C   UNL     1      -3.449 -10.875   3.161  0.00  0.00    +0.013 A 
ATOM     28 CL   UNL     1      -3.959 -14.587   4.537  0.00  0.00    -0.084 Cl
ENDBRANCH  20  22
ENDBRANCH  15  17
ENDBRANCH   1  15
TORSDOF 5
