REMARK  Name = ZINC08820896
REMARK  8 active torsions:
REMARK  status: ('A' for Active; 'I' for Inactive)
REMARK    1  A    between atoms: C_1  and  C_2
REMARK    2  A    between atoms: C_2  and  O_3
REMARK    3  A    between atoms: O_3  and  C_4
REMARK    4  A    between atoms: C_6  and  C_19
REMARK    5  A    between atoms: C_9  and  O_10
REMARK    6  A    between atoms: O_10  and  C_11
REMARK    7  A    between atoms: C_11  and  C_12
REMARK    8  A    between atoms: N_25  and  C_26
REMARK                            x       y       z     vdW  Elec       q    Type
REMARK                         _______ _______ _______ _____ _____    ______ ____
ROOT
ATOM      1  C   UNL     1      -2.308  -2.726   1.829  0.00  0.00    +0.162 A 
ATOM      2  C   UNL     1      -1.117  -3.398   1.637  0.00  0.00    +0.057 A 
ATOM      3  C   UNL     1      -1.129  -4.719   1.174  0.00  0.00    -0.020 A 
ATOM      4  C   UNL     1      -2.350  -5.351   0.907  0.00  0.00    +0.012 A 
ATOM      5  C   UNL     1      -3.533  -4.672   1.101  0.00  0.00    +0.050 A 
ATOM      6  C   UNL     1      -3.519  -3.364   1.566  0.00  0.00    +0.162 A 
ENDROOT
BRANCH   3   7
ATOM      7  C   UNL     1       0.134  -5.439   0.967  0.00  0.00    +0.028 C 
ATOM      8  C   UNL     1       0.158  -6.563   0.206  0.00  0.00    +0.078 C 
ATOM      9  C   UNL     1       1.256  -7.524  -0.010  0.00  0.00    +0.256 C 
ATOM     10  O   UNL     1       2.340  -7.382   0.525  0.00  0.00    -0.269 OA
ATOM     11  N   UNL     1       1.009  -8.547  -0.811  0.00  0.00    -0.260 N 
ATOM     12  C   UNL     1      -0.225  -8.690  -1.407  0.00  0.00    +0.166 C 
ATOM     13  N   UNL     1      -0.634  -9.637  -2.221  0.00  0.00    -0.224 NA
ATOM     14  S   UNL     1      -1.135  -7.280  -0.797  0.00  0.00    -0.049 S 
ATOM     15  H   UNL     1       1.704  -9.202  -0.980  0.00  0.00    +0.157 HD
BRANCH  13  16
ATOM     16  C   UNL     1      -1.878  -9.562  -2.787  0.00  0.00    +0.085 A 
ATOM     17  C   UNL     1      -2.299  -8.382  -3.404  0.00  0.00    +0.029 A 
ATOM     18  C   UNL     1      -3.554  -8.314  -3.973  0.00  0.00    +0.002 A 
ATOM     19  C   UNL     1      -4.396  -9.412  -3.933  0.00  0.00    +0.002 A 
ATOM     20  C   UNL     1      -3.986 -10.585  -3.323  0.00  0.00    +0.022 A 
ATOM     21  C   UNL     1      -2.731 -10.669  -2.756  0.00  0.00    +0.066 A 
ATOM     22 CL   UNL     1      -2.216 -12.143  -1.998  0.00  0.00    -0.081 Cl
ENDBRANCH  13  16
ENDBRANCH   3   7
BRANCH   1  23
ATOM     23  O   UNL     1      -2.300  -1.443   2.280  0.00  0.00    -0.489 OA
BRANCH  23  25
ATOM     24  C   UNL     1      -1.214   0.584   3.026  0.00  0.00    +0.048 C 
ATOM     25  C   UNL     1      -1.023  -0.851   2.528  0.00  0.00    +0.226 C 
ENDBRANCH  23  25
ENDBRANCH   1  23
BRANCH   6  26
ATOM     26  O   UNL     1      -4.690  -2.702   1.760  0.00  0.00    -0.484 OA
BRANCH  26  27
ATOM     27  C   UNL     1      -5.894  -3.415   1.471  0.00  0.00    +0.266 C 
BRANCH  27  28
ATOM     28  C   UNL     1      -7.081  -2.527   1.744  0.00  0.00    +0.008 A 
ATOM     29  C   UNL     1      -6.889  -1.236   2.197  0.00  0.00    +0.008 A 
ATOM     30  C   UNL     1      -7.977  -0.421   2.447  0.00  0.00    +0.000 A 
ATOM     31  C   UNL     1      -9.259  -0.898   2.244  0.00  0.00    +0.001 A 
ATOM     32  C   UNL     1      -9.453  -2.190   1.792  0.00  0.00    +0.020 A 
ATOM     33  C   UNL     1      -8.363  -3.003   1.536  0.00  0.00    +0.047 A 
ATOM     34 CL   UNL     1      -8.605  -4.623   0.960  0.00  0.00    -0.083 Cl
ENDBRANCH  27  28
ENDBRANCH  26  27
ENDBRANCH   6  26
TORSDOF 7
