REMARK  Name = ZINC09169062
REMARK  14 active torsions:
REMARK  status: ('A' for Active; 'I' for Inactive)
REMARK    1  A    between atoms: C_1  and  C_2
REMARK    2  A    between atoms: C_2  and  O_3
REMARK    3  A    between atoms: O_3  and  C_4
REMARK    4  A    between atoms: C_4  and  C_6
REMARK    5  A    between atoms: C_7  and  C_33
REMARK    6  A    between atoms: C_8  and  C_13
REMARK    7  A    between atoms: C_11  and  C_12
REMARK    8  A    between atoms: C_13  and  C_15
REMARK    9  A    between atoms: C_15  and  O_16
REMARK   10  A    between atoms: O_16  and  C_17
REMARK   11  A    between atoms: C_17  and  C_19
REMARK   12  A    between atoms: C_19  and  S_20
REMARK   13  A    between atoms: S_20  and  C_21
REMARK   14  A    between atoms: C_24  and  C_26
REMARK                            x       y       z     vdW  Elec       q    Type
REMARK                         _______ _______ _______ _____ _____    ______ ____
ROOT
ATOM      1  O   UNL     1      -0.290   1.274  -2.438  0.00  0.00    -0.456 OA
ENDROOT
BRANCH   1   2
ATOM      2  C   UNL     1      -0.742   1.585  -1.213  0.00  0.00    +0.318 C 
ATOM      3  O   UNL     1      -1.732   2.266  -1.089  0.00  0.00    -0.250 OA
BRANCH   2   4
ATOM      4  C   UNL     1      -0.013   1.086   0.008  0.00  0.00    +0.199 C 
BRANCH   4   5
ATOM      5  S   UNL     1      -0.860   1.669   1.497  0.00  0.00    -0.054 S 
BRANCH   5   6
ATOM      6  C   UNL     1       0.174   0.961   2.735  0.00  0.00    +0.278 A 
ATOM      7  N   UNL     1       1.243   0.227   2.528  0.00  0.00    -0.101 NA
ATOM      8  N   UNL     1       1.750  -0.120   3.659  0.00  0.00    -0.106 NA
ATOM      9  C   UNL     1       1.026   0.377   4.632  0.00  0.00    +0.249 A 
ATOM     10  O   UNL     1       0.017   1.077   4.068  0.00  0.00    -0.411 OA
BRANCH   9  11
ATOM     11  C   UNL     1       1.272   0.209   6.079  0.00  0.00    +0.039 A 
ATOM     12  C   UNL     1       0.418   0.804   7.009  0.00  0.00    +0.014 A 
ATOM     13  C   UNL     1       0.650   0.640   8.358  0.00  0.00    +0.021 A 
ATOM     14  C   UNL     1       1.734  -0.105   8.791  0.00  0.00    +0.041 A 
ATOM     15  C   UNL     1       2.588  -0.693   7.874  0.00  0.00    +0.021 A 
ATOM     16  C   UNL     1       2.364  -0.540   6.522  0.00  0.00    +0.014 A 
ATOM     17 CL   UNL     1       2.023  -0.302  10.492  0.00  0.00    -0.084 Cl
ENDBRANCH   9  11
ENDBRANCH   5   6
ENDBRANCH   4   5
ENDBRANCH   2   4
ENDBRANCH   1   2
BRANCH   1  18
ATOM     18  C   UNL     1      -1.042   1.789  -3.568  0.00  0.00    +0.313 C 
BRANCH  18  19
ATOM     19  C   UNL     1      -0.391   1.340  -4.851  0.00  0.00    +0.217 C 
ATOM     20  O   UNL     1       0.609   0.653  -4.816  0.00  0.00    -0.287 OA
BRANCH  19  23
ATOM     21  C   UNL     1      -1.313   1.970  -8.292  0.00  0.00    +0.083 A 
ATOM     22  C   UNL     1      -0.452   1.386  -7.339  0.00  0.00    -0.008 A 
ATOM     23  C   UNL     1      -0.946   1.720  -6.097  0.00  0.00    +0.090 A 
ATOM     24  N   UNL     1      -2.074   2.495  -6.280  0.00  0.00    -0.355 N 
ATOM     25  H   UNL     1      -2.618   2.870  -5.570  0.00  0.00    +0.166 HD
ATOM     26  C   UNL     1      -2.297   2.647  -7.593  0.00  0.00    +0.028 A 
ATOM     27  C   UNL     1      -3.432   3.428  -8.206  0.00  0.00    +0.064 C 
ATOM     28  C   UNL     1       0.771   0.553  -7.625  0.00  0.00    +0.047 C 
BRANCH  21  29
ATOM     29  C   UNL     1      -1.185   1.882  -9.757  0.00  0.00    +0.341 C 
ATOM     30  O   UNL     1      -0.536   2.713 -10.361  0.00  0.00    -0.245 OA
BRANCH  29  31
ATOM     31  O   UNL     1      -1.787   0.880 -10.427  0.00  0.00    -0.461 OA
BRANCH  31  33
ATOM     32  C   UNL     1      -2.367  -0.345 -12.450  0.00  0.00    +0.048 C 
ATOM     33  C   UNL     1      -1.617   0.856 -11.869  0.00  0.00    +0.229 C 
ENDBRANCH  31  33
ENDBRANCH  29  31
ENDBRANCH  21  29
ENDBRANCH  19  23
ENDBRANCH  18  19
ENDBRANCH   1  18
TORSDOF 11
