REMARK  Name = ZINC32600400
REMARK  4 active torsions:
REMARK  status: ('A' for Active; 'I' for Inactive)
REMARK    1  A    between atoms: C_1  and  C_2
REMARK    2  A    between atoms: C_2  and  C_3
REMARK    3  A    between atoms: C_3  and  C_5
REMARK    4  A    between atoms: C_3  and  C_11
REMARK                            x       y       z     vdW  Elec       q    Type
REMARK                         _______ _______ _______ _____ _____    ______ ____
ROOT
ATOM      1  C   UNL     1      -0.753   1.593  -1.232  0.00  0.00    +0.159 C 
ENDROOT
BRANCH   1   2
ATOM      2  C   UNL     1       0.019   1.211  -2.468  0.00  0.00    +0.117 A 
ATOM      3  N   UNL     1       0.351   0.027  -2.893  0.00  0.00    -0.145 NA
ATOM      4  N   UNL     1       1.063  -0.126  -4.061  0.00  0.00    -0.134 NA
ATOM      5  C   UNL     1       1.420   0.985  -4.754  0.00  0.00    +0.169 A 
ATOM      6  S   UNL     1       2.299   1.121  -6.217  0.00  0.00    -0.021 SA
ATOM      7  S   UNL     1       0.721   2.268  -3.725  0.00  0.00    -0.043 S 
ENDBRANCH   1   2
BRANCH   1   8
ATOM      8  C   UNL     1      -2.126   0.973  -1.285  0.00  0.00    +0.365 C 
ATOM      9  O   UNL     1      -2.476   0.205  -0.421  0.00  0.00    -0.246 OA
ATOM     10  O   UNL     1      -2.959   1.275  -2.293  0.00  0.00    -0.246 OA
ENDBRANCH   1   8
BRANCH   1  12
ATOM     11  C   UNL     1      -0.729   1.579   1.267  0.00  0.00    +0.005 C 
ATOM     12  C   UNL     1      -0.013   1.086   0.008  0.00  0.00    +0.018 C 
ENDBRANCH   1  12
TORSDOF 3
