REMARK  Name = ZINC40036882
REMARK  6 active torsions:
REMARK  status: ('A' for Active; 'I' for Inactive)
REMARK    1  A    between atoms: C_1  and  O_2
REMARK    2  A    between atoms: O_2  and  C_3
REMARK    3  A    between atoms: C_8  and  C_9
REMARK    4  A    between atoms: C_10  and  C_11
REMARK    5  A    between atoms: N_12  and  N_13
REMARK    6  A    between atoms: N_20  and  C_21
REMARK                            x       y       z     vdW  Elec       q    Type
REMARK                         _______ _______ _______ _____ _____    ______ ____
ROOT
ATOM      1  N   UNL     1       2.261  -7.173  -1.059  0.00  0.00    -0.206 N 
ATOM      2  C   UNL     1       2.186  -8.450  -0.567  0.00  0.00    +0.223 A 
ATOM      3  N   UNL     1       1.010  -9.039  -0.480  0.00  0.00    -0.214 NA
ATOM      4  C   UNL     1       0.897 -10.282  -0.001  0.00  0.00    +0.084 A 
ATOM      5  C   UNL     1       2.033 -10.983   0.379  0.00  0.00    +0.050 A 
ATOM      6  C   UNL     1       3.279 -10.350   0.289  0.00  0.00    +0.264 A 
ATOM      7  O   UNL     1       4.298 -10.931   0.625  0.00  0.00    -0.267 OA
ATOM      8  N   UNL     1       3.330  -9.086  -0.182  0.00  0.00    -0.248 N 
ATOM      9  C   UNL     1       1.928 -12.407   0.852  0.00  0.00    +0.007 C 
ATOM     10  C   UNL     1       3.140 -12.737   1.729  0.00  0.00    +0.012 C 
ATOM     11  C   UNL     1       3.042 -14.186   2.209  0.00  0.00    +0.001 C 
ATOM     12  C   UNL     1       3.024 -15.123   1.000  0.00  0.00    +0.000 C 
ATOM     13  C   UNL     1       1.818 -14.794   0.118  0.00  0.00    +0.001 C 
ATOM     14  C   UNL     1       1.915 -13.344  -0.359  0.00  0.00    +0.012 C 
ATOM     15  C   UNL     1       0.649 -12.609   1.662  0.00  0.00    +0.047 C 
ATOM     16  C   UNL     1      -0.545 -12.080   0.914  0.00  0.00    -0.037 A 
ATOM     17  C   UNL     1      -0.423 -10.941   0.119  0.00  0.00    +0.004 A 
ATOM     18  C   UNL     1      -1.534 -10.436  -0.552  0.00  0.00    +0.010 A 
ATOM     19  C   UNL     1      -2.751 -11.078  -0.438  0.00  0.00    +0.001 A 
ATOM     20  C   UNL     1      -2.865 -12.216   0.339  0.00  0.00    +0.000 A 
ATOM     21  C   UNL     1      -1.765 -12.716   1.014  0.00  0.00    +0.004 A 
ATOM     22  H   UNL     1       3.109  -6.702  -1.058  0.00  0.00    +0.177 HD
ENDROOT
BRANCH   8  23
ATOM     23  C   UNL     1       4.560  -8.423  -0.271  0.00  0.00    +0.053 A 
ATOM     24  C   UNL     1       5.029  -7.679   0.804  0.00  0.00    +0.026 A 
ATOM     25  C   UNL     1       6.243  -7.027   0.713  0.00  0.00    +0.002 A 
ATOM     26  C   UNL     1       6.991  -7.113  -0.447  0.00  0.00    +0.000 A 
ATOM     27  C   UNL     1       6.527  -7.852  -1.519  0.00  0.00    +0.002 A 
ATOM     28  C   UNL     1       5.317  -8.512  -1.432  0.00  0.00    +0.026 A 
ENDBRANCH   8  23
BRANCH   1  30
ATOM     29  C   UNL     1       1.184  -5.335  -2.031  0.00  0.00    +0.130 C 
ATOM     30  N   UNL     1       1.113  -6.548  -1.563  0.00  0.00    -0.188 NA
BRANCH  29  32
ATOM     31  C   UNL     1       0.097  -3.445  -3.025  0.00  0.00    +0.013 C 
ATOM     32  C   UNL     1       0.022  -4.702  -2.541  0.00  0.00    +0.022 C 
BRANCH  31  38
ATOM     33  C   UNL     1      -1.037  -1.481  -4.059  0.00  0.00    +0.127 A 
ATOM     34  C   UNL     1      -2.177  -0.875  -4.561  0.00  0.00    +0.046 A 
ATOM     35  C   UNL     1      -3.381  -1.554  -4.557  0.00  0.00    +0.004 A 
ATOM     36  C   UNL     1      -3.459  -2.842  -4.055  0.00  0.00    +0.001 A 
ATOM     37  C   UNL     1      -2.334  -3.462  -3.553  0.00  0.00    +0.011 A 
ATOM     38  C   UNL     1      -1.109  -2.788  -3.554  0.00  0.00    +0.017 A 
BRANCH  33  40
ATOM     39  C   UNL     1       0.144   0.511  -4.592  0.00  0.00    +0.277 C 
ATOM     40  O   UNL     1       0.147  -0.816  -4.062  0.00  0.00    -0.495 OA
ENDBRANCH  33  40
ENDBRANCH  31  38
ENDBRANCH  29  32
ENDBRANCH   1  30
TORSDOF 5
