REMARK  Name = ZINC22252696
REMARK  7 active torsions:
REMARK  status: ('A' for Active; 'I' for Inactive)
REMARK    1  A    between atoms: C_1  and  C_2
REMARK    2  A    between atoms: C_4  and  C_7
REMARK    3  A    between atoms: C_7  and  N_8
REMARK    4  A    between atoms: N_11  and  C_14
REMARK    5  A    between atoms: C_14  and  C_16
REMARK    6  A    between atoms: C_14  and  C_17
REMARK    7  A    between atoms: N_19  and  C_20
REMARK                            x       y       z     vdW  Elec       q    Type
REMARK                         _______ _______ _______ _____ _____    ______ ____
ROOT
ATOM      1  N   UNL     1      -3.517   3.035   2.314  0.00  0.00    -0.299 NA
ATOM      2  C   UNL     1      -2.760   1.776   2.308  0.00  0.00    +0.066 C 
ATOM      3  C   UNL     1      -3.021   1.021   3.614  0.00  0.00    -0.062 C 
ATOM      4  N   UNL     1      -4.462   0.765   3.749  0.00  0.00    +0.389 N 
ATOM      5  C   UNL     1      -5.219   2.025   3.755  0.00  0.00    -0.062 C 
ATOM      6  C   UNL     1      -4.958   2.779   2.449  0.00  0.00    +0.066 C 
ATOM      7  H   UNL     1      -4.786   0.178   2.877  0.00  0.00    -0.081 HD
ENDROOT
BRANCH   4   8
ATOM      8  C   UNL     1      -4.745  -0.025   4.955  0.00  0.00    +0.017 C 
ATOM      9  C   UNL     1      -3.884  -1.290   4.950  0.00  0.00    -0.004 C 
BRANCH   8  10
ATOM     10  C   UNL     1      -6.202  -0.410   4.972  0.00  0.00    +0.203 C 
ATOM     11  O   UNL     1      -6.812  -0.521   3.930  0.00  0.00    -0.277 OA
ATOM     12  N   UNL     1      -6.827  -0.630   6.146  0.00  0.00    -0.286 N 
ATOM     13  H   UNL     1      -6.298  -0.449   7.093  0.00  0.00    +0.155 HD
BRANCH  12  14
ATOM     14  C   UNL     1      -8.149  -1.090   6.160  0.00  0.00    +0.047 A 
ATOM     15  C   UNL     1      -9.003  -0.784   5.108  0.00  0.00    +0.025 A 
ATOM     16  C   UNL     1     -10.307  -1.239   5.124  0.00  0.00    +0.017 A 
ATOM     17  C   UNL     1     -10.763  -1.999   6.186  0.00  0.00    +0.019 A 
ATOM     18  C   UNL     1      -9.916  -2.305   7.236  0.00  0.00    +0.032 A 
ATOM     19  C   UNL     1      -8.608  -1.858   7.223  0.00  0.00    +0.040 A 
ATOM     20 BR   UNL     1      -7.447  -2.284   8.653  0.00  0.00    -0.048 Br
ATOM     21 BR   UNL     1     -12.549  -2.620   6.204  0.00  0.00    -0.050 Br
ENDBRANCH  12  14
ENDBRANCH   8  10
ENDBRANCH   4   8
BRANCH   1  22
ATOM     22  C   UNL     1      -3.234   3.825   1.108  0.00  0.00    +0.161 C 
BRANCH  22  26
ATOM     23  C   UNL     1       1.808   4.217   0.536  0.00  0.00    +0.069 C 
ATOM     24  C   UNL     1       0.365   4.461   0.893  0.00  0.00    +0.081 A 
ATOM     25  C   UNL     1      -0.732   3.613   0.616  0.00  0.00    +0.072 A 
ATOM     26  C   UNL     1      -1.796   4.275   1.129  0.00  0.00    +0.151 A 
ATOM     27  O   UNL     1      -1.317   5.409   1.661  0.00  0.00    -0.358 OA
ATOM     28  N   UNL     1      -0.120   5.495   1.518  0.00  0.00    -0.083 NA
ENDBRANCH  22  26
ENDBRANCH   1  22
TORSDOF 5
