REMARK  Name = ZINC40547511
REMARK  9 active torsions:
REMARK  status: ('A' for Active; 'I' for Inactive)
REMARK    1  A    between atoms: C_1  and  O_2
REMARK    2  A    between atoms: O_2  and  C_3
REMARK    3  A    between atoms: C_6  and  C_10
REMARK    4  A    between atoms: C_10  and  O_12
REMARK    5  A    between atoms: O_12  and  C_13
REMARK    6  A    between atoms: C_20  and  N_35
REMARK    7  A    between atoms: C_21  and  C_33
REMARK    8  A    between atoms: C_22  and  C_24
REMARK    9  A    between atoms: C_28  and  N_30
REMARK                            x       y       z     vdW  Elec       q    Type
REMARK                         _______ _______ _______ _____ _____    ______ ____
ROOT
ATOM      1  C   UNL     1       2.448  -3.511   6.445  0.00  0.00    +0.135 A 
ATOM      2  C   UNL     1       3.808  -3.786   6.435  0.00  0.00    +0.047 A 
ATOM      3  C   UNL     1       4.387  -4.442   7.504  0.00  0.00    +0.012 A 
ATOM      4  C   UNL     1       3.616  -4.828   8.586  0.00  0.00    +0.008 A 
ATOM      5  C   UNL     1       2.257  -4.555   8.601  0.00  0.00    +0.138 A 
ATOM      6  C   UNL     1       1.675  -3.889   7.530  0.00  0.00    +0.093 A 
ATOM      7  O   UNL     1       1.485  -4.925   9.653  0.00  0.00    -0.441 OA
ATOM      8  C   UNL     1       2.055  -5.202  10.837  0.00  0.00    +0.199 C 
ATOM      9  C   UNL     1       3.370  -5.503  10.947  0.00  0.00    +0.098 C 
ATOM     10  C   UNL     1       4.266  -5.543   9.741  0.00  0.00    +0.098 C 
ENDROOT
BRANCH  10  11
ATOM     11  C   UNL     1       4.525  -6.977   9.358  0.00  0.00    -0.033 A 
ATOM     12  C   UNL     1       3.471  -7.798   8.998  0.00  0.00    +0.005 A 
ATOM     13  C   UNL     1       3.709  -9.113   8.647  0.00  0.00    +0.003 A 
ATOM     14  C   UNL     1       4.999  -9.608   8.654  0.00  0.00    +0.033 A 
ATOM     15  C   UNL     1       6.052  -8.788   9.013  0.00  0.00    +0.126 A 
ATOM     16  C   UNL     1       5.816  -7.471   9.360  0.00  0.00    +0.037 A 
BRANCH  15  17
ATOM     17  N   UNL     1       7.434  -9.319   9.021  0.00  0.00    +0.056 N 
ATOM     18  O   UNL     1       7.642 -10.470   8.714  0.00  0.00    -0.126 OA
ATOM     19  O   UNL     1       8.355  -8.601   9.335  0.00  0.00    -0.126 OA
ENDBRANCH  15  17
ENDBRANCH  10  11
BRANCH   8  20
ATOM     20  N   UNL     1       1.280  -5.180  11.970  0.00  0.00    -0.328 N 
ATOM     21  H   UNL     1       0.336  -4.966  11.908  0.00  0.00    +0.145 HD
ATOM     22  H   UNL     1       1.676  -5.378  12.833  0.00  0.00    +0.145 HD
ENDBRANCH   8  20
BRANCH   9  23
ATOM     23  C   UNL     1       3.919  -5.789  12.238  0.00  0.00    +0.101 C 
ATOM     24  N   UNL     1       4.355  -6.015  13.263  0.00  0.00    -0.191 NA
ENDBRANCH   9  23
BRANCH   1  25
ATOM     25  O   UNL     1       1.877  -2.865   5.394  0.00  0.00    -0.422 OA
BRANCH  25  26
ATOM     26  C   UNL     1       1.635  -3.572   4.273  0.00  0.00    +0.345 C 
ATOM     27  O   UNL     1       2.008  -4.726   4.190  0.00  0.00    -0.245 OA
BRANCH  26  31
ATOM     28  C   UNL     1      -0.428  -1.769   1.028  0.00  0.00    +0.157 A 
ATOM     29  C   UNL     1      -0.002  -3.089   0.931  0.00  0.00    +0.085 A 
ATOM     30  C   UNL     1       0.668  -3.678   1.982  0.00  0.00    +0.038 A 
ATOM     31  C   UNL     1       0.919  -2.946   3.146  0.00  0.00    +0.062 A 
ATOM     32  C   UNL     1       0.490  -1.619   3.240  0.00  0.00    +0.038 A 
ATOM     33  C   UNL     1      -0.174  -1.036   2.183  0.00  0.00    +0.085 A 
ATOM     34 CL   UNL     1      -0.702   0.614   2.295  0.00  0.00    -0.080 Cl
ATOM     35 CL   UNL     1      -0.315  -3.997  -0.515  0.00  0.00    -0.080 Cl
BRANCH  28  37
ATOM     36  C   UNL     1      -0.294  -0.529  -0.994  0.00  0.00    +0.277 C 
ATOM     37  O   UNL     1      -1.088  -1.193  -0.009  0.00  0.00    -0.492 OA
ENDBRANCH  28  37
ENDBRANCH  26  31
ENDBRANCH  25  26
ENDBRANCH   1  25
TORSDOF 8
