REMARK  Name = ZINC38804910
REMARK  11 active torsions:
REMARK  status: ('A' for Active; 'I' for Inactive)
REMARK    1  A    between atoms: C_1  and  C_2
REMARK    2  A    between atoms: C_2  and  O_3
REMARK    3  A    between atoms: O_3  and  C_4
REMARK    4  A    between atoms: C_4  and  C_6
REMARK    5  A    between atoms: C_11  and  O_12
REMARK    6  A    between atoms: C_27  and  N_30
REMARK    7  A    between atoms: C_31  and  O_33
REMARK    8  A    between atoms: O_33  and  C_34
REMARK    9  A    between atoms: C_34  and  C_35
REMARK   10  A    between atoms: C_34  and  C_36
REMARK   11  A    between atoms: C_34  and  C_37
REMARK                            x       y       z     vdW  Elec       q    Type
REMARK                         _______ _______ _______ _____ _____    ______ ____
ROOT
ATOM      1  C   UNL     1       1.441  -2.347  -2.527  0.00  0.00    +0.117 A 
ATOM      2  C   UNL     1       1.636  -3.713  -2.645  0.00  0.00    +0.110 A 
ATOM      3  N   UNL     1       2.259  -4.240  -3.709  0.00  0.00    -0.309 N 
ATOM      4  C   UNL     1       2.730  -3.431  -4.729  0.00  0.00    +0.102 A 
ATOM      5  C   UNL     1       2.556  -2.027  -4.657  0.00  0.00    +0.048 A 
ATOM      6  C   UNL     1       1.898  -1.476  -3.545  0.00  0.00    +0.142 A 
ATOM      7  C   UNL     1       3.036  -1.201  -5.695  0.00  0.00    +0.054 A 
ATOM      8  C   UNL     1       3.664  -1.751  -6.764  0.00  0.00    +0.151 A 
ATOM      9  C   UNL     1       3.844  -3.152  -6.847  0.00  0.00    +0.119 A 
ATOM     10  C   UNL     1       3.371  -3.989  -5.819  0.00  0.00    +0.179 A 
ATOM     11  O   UNL     1       3.545  -5.336  -5.901  0.00  0.00    -0.450 OA
ATOM     12  C   UNL     1       3.094  -6.158  -4.918  0.00  0.00    +0.152 A 
ATOM     13  C   UNL     1       2.444  -5.628  -3.804  0.00  0.00    +0.089 A 
ATOM     14  C   UNL     1       1.986  -6.467  -2.803  0.00  0.00    +0.030 A 
ATOM     15  C   UNL     1       2.175  -7.834  -2.909  0.00  0.00    +0.002 A 
ATOM     16  C   UNL     1       2.820  -8.361  -4.012  0.00  0.00    +0.004 A 
ATOM     17  C   UNL     1       3.279  -7.527  -5.016  0.00  0.00    +0.048 A 
ATOM     18  N   UNL     1       4.464  -3.683  -7.906  0.00  0.00    -0.364 N 
ATOM     19  C   UNL     1       5.013  -2.929  -9.047  0.00  0.00    +0.118 C 
ATOM     20  C   UNL     1       6.113  -3.846  -9.637  0.00  0.00    +0.045 C 
ATOM     21  C   UNL     1       5.478  -5.250  -9.457  0.00  0.00    +0.097 C 
ATOM     22  C   UNL     1       4.718  -5.115  -8.121  0.00  0.00    +0.139 C 
ATOM     23  F   UNL     1       4.121  -0.956  -7.756  0.00  0.00    -0.203 F 
ENDROOT
BRANCH  21  24
ATOM     24  N   UNL     1       4.558  -5.547 -10.559  0.00  0.00    -0.277 N 
ATOM     25  C   UNL     1       5.026  -6.093 -11.698  0.00  0.00    +0.401 C 
ATOM     26  O   UNL     1       6.211  -6.339 -11.813  0.00  0.00    -0.226 OA
ATOM     27  H   UNL     1       3.613  -5.351 -10.467  0.00  0.00    +0.152 HD
BRANCH  25  28
ATOM     28  O   UNL     1       4.181  -6.366 -12.710  0.00  0.00    -0.445 OA
BRANCH  28  29
ATOM     29  C   UNL     1       4.746  -6.944 -13.889  0.00  0.00    +0.107 C 
ATOM     30  C   UNL     1       5.409  -8.277 -13.536  0.00  0.00    +0.055 C 
ATOM     31  C   UNL     1       3.641  -7.182 -14.920  0.00  0.00    +0.055 C 
ATOM     32  C   UNL     1       5.792  -5.993 -14.473  0.00  0.00    +0.055 C 
ENDBRANCH  28  29
ENDBRANCH  25  28
ENDBRANCH  21  24
BRANCH   1  33
ATOM     33  C   UNL     1       0.754  -1.801  -1.347  0.00  0.00    +0.344 C 
ATOM     34  O   UNL     1       0.261  -2.554  -0.529  0.00  0.00    -0.245 OA
BRANCH  33  35
ATOM     35  O   UNL     1       0.670  -0.467  -1.172  0.00  0.00    -0.461 OA
BRANCH  35  37
ATOM     36  C   UNL     1      -0.004   1.522   0.023  0.00  0.00    +0.048 C 
ATOM     37  C   UNL     1      -0.011  -0.008  -0.003  0.00  0.00    +0.229 C 
ENDBRANCH  35  37
ENDBRANCH  33  35
ENDBRANCH   1  33
BRANCH   6  38
ATOM     38  O   UNL     1       1.710  -0.142  -3.446  0.00  0.00    -0.505 OA
ATOM     39  H   UNL     1       1.328   0.139  -2.603  0.00  0.00    +0.292 HD
ENDBRANCH   6  38
TORSDOF 7
