REMARK  Name = ZINC14538366
REMARK  9 active torsions:
REMARK  status: ('A' for Active; 'I' for Inactive)
REMARK    1  A    between atoms: C_1  and  C_2
REMARK    2  A    between atoms: C_2  and  C_35
REMARK    3  A    between atoms: C_7  and  C_11
REMARK    4  A    between atoms: C_11  and  N_70
REMARK    5  A    between atoms: N_19  and  C_31
REMARK    6  A    between atoms: N_22  and  C_23
REMARK    7  A    between atoms: C_23  and  C_24
REMARK    8  A    between atoms: C_24  and  C_25
REMARK    9  A    between atoms: C_31  and  C_32
REMARK                            x       y       z     vdW  Elec       q    Type
REMARK                         _______ _______ _______ _____ _____    ______ ____
ROOT
ATOM      1  C   UNL     1       3.692  -3.699  -0.472  0.00  0.00    -0.076 C 
ATOM      2  C   UNL     1       5.222  -3.761  -0.472  0.00  0.00    +0.017 C 
ATOM      3  C   UNL     1       5.758  -3.004  -1.683  0.00  0.00    +0.112 C 
ATOM      4  C   UNL     1       5.164  -3.568  -2.970  0.00  0.00    +0.017 C 
ATOM      5  C   UNL     1       3.636  -3.512  -2.889  0.00  0.00    -0.076 C 
ATOM      6  C   UNL     1       7.267  -3.071  -1.723  0.00  0.00    +0.247 C 
ATOM      7  O   UNL     1       7.956  -4.064  -1.816  0.00  0.00    -0.273 OA
ATOM      8  N   UNL     1       7.686  -1.791  -1.633  0.00  0.00    -0.215 N 
ATOM      9  C   UNL     1       6.656  -0.940  -1.549  0.00  0.00    +0.312 C 
ATOM     10  O   UNL     1       6.781   0.266  -1.465  0.00  0.00    -0.252 OA
ATOM     11  N   UNL     1       5.466  -1.571  -1.565  0.00  0.00    -0.271 N 
ATOM     12  N   UNL     1       3.190  -4.306  -1.724  0.00  0.00    +0.382 N 
ATOM     13  H   UNL     1       3.565  -5.258  -1.806  0.00  0.00    -0.081 HD
ENDROOT
BRANCH  12  14
ATOM     14  C   UNL     1       1.714  -4.372  -1.695  0.00  0.00    -0.047 C 
BRANCH  14  20
ATOM     15  C   UNL     1       3.018  -6.117  -4.863  0.00  0.00    +0.012 C 
ATOM     16  C   UNL     1       1.726  -5.440  -5.324  0.00  0.00    -0.025 C 
ATOM     17  C   UNL     1       0.476  -6.326  -5.190  0.00  0.00    -0.000 C 
ATOM     18  C   UNL     1       0.529  -7.250  -3.965  0.00  0.00    +0.031 C 
ATOM     19  C   UNL     1       1.008  -6.473  -2.763  0.00  0.00    -0.029 C 
ATOM     20  C   UNL     1       1.242  -5.186  -2.873  0.00  0.00    -0.086 C 
ATOM     21  C   UNL     1       1.014  -4.547  -4.231  0.00  0.00    +0.019 C 
ATOM     22  C   UNL     1      -0.298  -5.032  -4.867  0.00  0.00    +0.012 C 
ATOM     23  C   UNL     1       1.858  -4.757  -6.687  0.00  0.00    +0.012 C 
ENDBRANCH  14  20
ENDBRANCH  12  14
BRANCH  11  24
ATOM     24  C   UNL     1       4.142  -0.948  -1.487  0.00  0.00    +0.115 C 
BRANCH  24  25
ATOM     25  C   UNL     1       3.957  -0.314  -0.107  0.00  0.00    +0.054 C 
BRANCH  25  26
ATOM     26  C   UNL     1       2.580   0.291  -0.012  0.00  0.00    -0.046 A 
ATOM     27  C   UNL     1       1.522  -0.468   0.450  0.00  0.00    +0.004 A 
ATOM     28  C   UNL     1       0.259   0.087   0.537  0.00  0.00    +0.000 A 
ATOM     29  C   UNL     1       0.054   1.402   0.161  0.00  0.00    +0.000 A 
ATOM     30  C   UNL     1       1.113   2.161  -0.301  0.00  0.00    +0.000 A 
ATOM     31  C   UNL     1       2.376   1.606  -0.388  0.00  0.00    +0.004 A 
ENDBRANCH  25  26
ENDBRANCH  24  25
ENDBRANCH  11  24
BRANCH   8  32
ATOM     32  C   UNL     1       9.093  -1.383  -1.634  0.00  0.00    +0.213 C 
BRANCH  32  33
ATOM     33  C   UNL     1       9.543  -1.134  -3.051  0.00  0.00    +0.228 C 
ATOM     34  O   UNL     1       8.765  -1.282  -3.969  0.00  0.00    -0.274 OA
ATOM     35  N   UNL     1      10.810  -0.746  -3.297  0.00  0.00    -0.328 N 
ATOM     36  H   UNL     1      11.432  -0.627  -2.563  0.00  0.00    +0.145 HD
ATOM     37  H   UNL     1      11.099  -0.586  -4.209  0.00  0.00    +0.145 HD
ENDBRANCH  32  33
ENDBRANCH   8  32
TORSDOF 7
