REMARK  Name = ZINC03368728
REMARK  9 active torsions:
REMARK  status: ('A' for Active; 'I' for Inactive)
REMARK    1  A    between atoms: C_1  and  C_2
REMARK    2  A    between atoms: C_5  and  N_34
REMARK    3  A    between atoms: C_7  and  S_8
REMARK    4  A    between atoms: S_8  and  O_11
REMARK    5  A    between atoms: O_11  and  C_12
REMARK    6  A    between atoms: C_15  and  C_18
REMARK    7  A    between atoms: N_20  and  C_21
REMARK    8  A    between atoms: C_21  and  C_23
REMARK    9  A    between atoms: C_21  and  C_24
REMARK                            x       y       z     vdW  Elec       q    Type
REMARK                         _______ _______ _______ _____ _____    ______ ____
ROOT
ATOM      1  C   UNL     1       5.687   0.256  -4.370  0.00  0.00    +0.157 A 
ATOM      2  C   UNL     1       5.774   1.635  -4.220  0.00  0.00    +0.049 A 
ATOM      3  C   UNL     1       4.697   2.345  -3.739  0.00  0.00    +0.017 A 
ATOM      4  C   UNL     1       3.516   1.679  -3.403  0.00  0.00    +0.037 A 
ATOM      5  C   UNL     1       3.435   0.291  -3.550  0.00  0.00    +0.017 A 
ATOM      6  C   UNL     1       4.514  -0.412  -4.037  0.00  0.00    +0.049 A 
ENDROOT
BRANCH   4   7
ATOM      7  C   UNL     1       2.359   2.437  -2.888  0.00  0.00    +0.244 C 
ATOM      8  O   UNL     1       2.432   3.643  -2.756  0.00  0.00    -0.270 OA
ATOM      9  N   UNL     1       1.220   1.791  -2.564  0.00  0.00    -0.308 N 
ATOM     10  H   UNL     1       1.162   0.829  -2.669  0.00  0.00    +0.149 HD
BRANCH   9  11
ATOM     11  C   UNL     1       0.072   2.544  -2.053  0.00  0.00    +0.074 C 
ATOM     12  C   UNL     1      -0.744   3.089  -3.227  0.00  0.00    +0.028 C 
BRANCH  11  13
ATOM     13  C   UNL     1      -0.806   1.621  -1.206  0.00  0.00    +0.012 C 
ATOM     14  C   UNL     1      -0.013   1.086   0.008  0.00  0.00    +0.009 C 
ATOM     15  C   UNL     1      -0.790   1.612   1.253  0.00  0.00    -0.010 C 
ATOM     16  C   UNL     1      -2.116   0.793   1.261  0.00  0.00    +0.004 C 
ATOM     17  C   UNL     1      -2.913   1.328   0.042  0.00  0.00    +0.004 C 
ATOM     18  C   UNL     1      -1.991   2.420  -0.581  0.00  0.00    -0.006 C 
ATOM     19  C   UNL     1      -1.306   2.993   0.709  0.00  0.00    +0.007 C 
ENDBRANCH  11  13
ENDBRANCH   9  11
ENDBRANCH   4   7
BRANCH   1  20
ATOM     20  O   UNL     1       6.751  -0.441  -4.844  0.00  0.00    -0.342 OA
BRANCH  20  21
ATOM     21  S   UNL     1       7.703  -0.930  -3.761  0.00  0.00    +0.151 S 
ATOM     22  O   UNL     1       8.846  -1.446  -4.428  0.00  0.00    -0.131 OA
ATOM     23  O   UNL     1       7.788   0.110  -2.796  0.00  0.00    -0.131 OA
BRANCH  21  30
ATOM     24  C   UNL     1       8.016  -3.810  -4.631  0.00  0.00    +0.046 C 
ATOM     25  C   UNL     1       7.130  -3.579  -3.434  0.00  0.00    -0.022 A 
ATOM     26  C   UNL     1       6.521  -4.650  -2.807  0.00  0.00    +0.007 A 
ATOM     27  C   UNL     1       5.709  -4.438  -1.709  0.00  0.00    +0.033 A 
ATOM     28  C   UNL     1       5.506  -3.154  -1.237  0.00  0.00    +0.128 A 
ATOM     29  C   UNL     1       6.118  -2.084  -1.861  0.00  0.00    +0.063 A 
ATOM     30  C   UNL     1       6.926  -2.296  -2.963  0.00  0.00    +0.133 A 
BRANCH  28  31
ATOM     31  N   UNL     1       4.636  -2.927  -0.061  0.00  0.00    +0.056 N 
ATOM     32  O   UNL     1       4.100  -3.871   0.491  0.00  0.00    -0.126 OA
ATOM     33  O   UNL     1       4.457  -1.796   0.355  0.00  0.00    -0.126 OA
ENDBRANCH  28  31
ENDBRANCH  21  30
ENDBRANCH  20  21
ENDBRANCH   1  20
TORSDOF 7
