REMARK  Name = ZINC09253929
REMARK  11 active torsions:
REMARK  status: ('A' for Active; 'I' for Inactive)
REMARK    1  A    between atoms: C_1  and  S_2
REMARK    2  A    between atoms: S_2  and  C_3
REMARK    3  A    between atoms: C_8  and  C_14
REMARK    4  A    between atoms: C_14  and  O_15
REMARK    5  A    between atoms: O_15  and  C_16
REMARK    6  A    between atoms: C_16  and  C_18
REMARK    7  A    between atoms: C_18  and  N_19
REMARK    8  A    between atoms: N_19  and  C_20
REMARK    9  A    between atoms: C_23  and  S_29
REMARK   10  A    between atoms: C_25  and  N_26
REMARK   11  A    between atoms: S_29  and  C_32
REMARK                            x       y       z     vdW  Elec       q    Type
REMARK                         _______ _______ _______ _____ _____    ______ ____
ROOT
ATOM      1  C   UNL     1       4.827  -2.841   0.954  0.00  0.00    +0.325 C 
ATOM      2  O   UNL     1       5.920  -2.328   0.913  0.00  0.00    -0.249 OA
ENDROOT
BRANCH   1   3
ATOM      3  O   UNL     1       3.745  -2.095   1.226  0.00  0.00    -0.459 OA
BRANCH   3   4
ATOM      4  C   UNL     1       3.962  -0.679   1.461  0.00  0.00    +0.270 C 
BRANCH   4  10
ATOM      5  C   UNL     1      -2.082   1.272   2.572  0.00  0.00    +0.010 A 
ATOM      6  C   UNL     1      -2.094  -0.106   2.319  0.00  0.00    +0.015 A 
ATOM      7  C   UNL     1      -0.941  -0.774   2.053  0.00  0.00    +0.011 A 
ATOM      8  C   UNL     1       0.281  -0.079   2.029  0.00  0.00    +0.001 A 
ATOM      9  C   UNL     1       1.491  -0.743   1.756  0.00  0.00    +0.020 A 
ATOM     10  C   UNL     1       2.643  -0.009   1.749  0.00  0.00    +0.027 A 
ATOM     11  C   UNL     1       2.598   1.360   2.007  0.00  0.00    +0.136 A 
ATOM     12  N   UNL     1       1.467   1.976   2.261  0.00  0.00    -0.235 NA
ATOM     13  C   UNL     1       0.305   1.315   2.283  0.00  0.00    +0.074 A 
ATOM     14  C   UNL     1      -0.899   1.981   2.561  0.00  0.00    +0.043 A 
ATOM     15 CL   UNL     1       4.074   2.273   1.992  0.00  0.00    -0.062 Cl
BRANCH   5  17
ATOM     16  C   UNL     1      -4.849   0.800   2.828  0.00  0.00    +0.090 C 
ATOM     17  S   UNL     1      -3.595   2.108   2.913  0.00  0.00    -0.129 S 
ENDBRANCH   5  17
ENDBRANCH   4  10
ENDBRANCH   3   4
ENDBRANCH   1   3
BRANCH   1  18
ATOM     18  C   UNL     1       4.679  -4.319   0.699  0.00  0.00    +0.222 C 
BRANCH  18  19
ATOM     19  N   UNL     1       5.995  -4.902   0.428  0.00  0.00    -0.332 N 
ATOM     20  H   UNL     1       6.786  -4.340   0.434  0.00  0.00    +0.147 HD
BRANCH  19  21
ATOM     21  C   UNL     1       6.113  -6.268   0.161  0.00  0.00    +0.058 A 
ATOM     22  C   UNL     1       5.003  -7.097   0.272  0.00  0.00    +0.027 A 
ATOM     23  C   UNL     1       5.123  -8.447   0.007  0.00  0.00    +0.029 A 
ATOM     24  C   UNL     1       6.345  -8.974  -0.368  0.00  0.00    +0.090 A 
ATOM     25  C   UNL     1       7.451  -8.152  -0.479  0.00  0.00    +0.061 A 
ATOM     26  C   UNL     1       7.338  -6.800  -0.221  0.00  0.00    +0.149 A 
BRANCH  24  27
ATOM     27  S   UNL     1       6.493 -10.697  -0.704  0.00  0.00    -0.006 S 
ATOM     28  O   UNL     1       7.857 -11.002  -0.445  0.00  0.00    -0.170 OA
ATOM     29  O   UNL     1       5.458 -11.305   0.056  0.00  0.00    -0.170 OA
ATOM     30  C   UNL     1       6.143 -10.858  -2.477  0.00  0.00    +0.200 C 
ENDBRANCH  24  27
BRANCH  26  31
ATOM     31  N   UNL     1       8.521  -5.920  -0.346  0.00  0.00    +0.058 N 
ATOM     32  O   UNL     1       8.397  -4.793  -0.792  0.00  0.00    -0.126 OA
ATOM     33  O   UNL     1       9.618  -6.322  -0.003  0.00  0.00    -0.126 OA
ENDBRANCH  26  31
ENDBRANCH  19  21
ENDBRANCH  18  19
ENDBRANCH   1  18
TORSDOF 9
