REMARK  Name = ZINC24193214
REMARK  11 active torsions:
REMARK  status: ('A' for Active; 'I' for Inactive)
REMARK    1  A    between atoms: C_1  and  C_2
REMARK    2  A    between atoms: C_5  and  S_8
REMARK    3  A    between atoms: S_8  and  C_11
REMARK    4  A    between atoms: N_15  and  C_30
REMARK    5  A    between atoms: C_16  and  C_18
REMARK    6  A    between atoms: C_22  and  O_24
REMARK    7  A    between atoms: O_24  and  C_25
REMARK    8  A    between atoms: C_25  and  C_26
REMARK    9  A    between atoms: C_26  and  C_27
REMARK   10  A    between atoms: C_27  and  C_28
REMARK   11  A    between atoms: C_27  and  C_29
REMARK                            x       y       z     vdW  Elec       q    Type
REMARK                         _______ _______ _______ _____ _____    ______ ____
ROOT
ATOM      1  C   UNL     1       2.837   0.568   1.375  0.00  0.00    +0.148 C 
ATOM      2  C   UNL     1       2.912  -0.762   1.323  0.00  0.00    +0.264 C 
ATOM      3  C   UNL     1       2.631  -1.221  -0.045  0.00  0.00    +0.293 C 
ATOM      4  O   UNL     1       2.625  -2.383  -0.404  0.00  0.00    -0.266 OA
ATOM      5  N   UNL     1       2.381  -0.165  -0.842  0.00  0.00    -0.252 N 
ATOM      6  C   UNL     1       2.490   1.045  -0.016  0.00  0.00    +0.164 C 
ATOM      7  O   UNL     1       3.203  -1.572   2.376  0.00  0.00    -0.281 OA
ENDROOT
BRANCH   6   8
ATOM      8  C   UNL     1       1.176   1.782   0.000  0.00  0.00    -0.017 A 
ATOM      9  C   UNL     1      -0.013   1.076   0.008  0.00  0.00    +0.006 A 
ATOM     10  C   UNL     1      -1.220   1.750   0.017  0.00  0.00    +0.004 A 
ATOM     11  C   UNL     1      -1.241   3.131   0.031  0.00  0.00    +0.045 A 
ATOM     12  C   UNL     1      -0.050   3.842   0.024  0.00  0.00    +0.121 A 
ATOM     13  C   UNL     1       1.160   3.163   0.008  0.00  0.00    +0.051 A 
BRANCH  12  14
ATOM     14  O   UNL     1      -0.069   5.201   0.032  0.00  0.00    -0.492 OA
BRANCH  14  15
ATOM     15  C   UNL     1      -1.350   5.832   0.048  0.00  0.00    +0.229 C 
BRANCH  15  16
ATOM     16  C   UNL     1      -1.171   7.351   0.055  0.00  0.00    +0.044 C 
BRANCH  16  17
ATOM     17  C   UNL     1      -2.543   8.027   0.072  0.00  0.00    -0.014 C 
ATOM     18  C   UNL     1      -2.364   9.541   0.205  0.00  0.00    +0.007 C 
ATOM     19  C   UNL     1      -3.282   7.714  -1.231  0.00  0.00    +0.007 C 
ENDBRANCH  16  17
ENDBRANCH  15  16
ENDBRANCH  14  15
ENDBRANCH  12  14
ENDBRANCH   6   8
BRANCH   5  20
ATOM     20  C   UNL     1       2.075  -0.211  -2.205  0.00  0.00    +0.038 A 
ATOM     21  C   UNL     1       1.834   0.964  -2.905  0.00  0.00    +0.023 A 
ATOM     22  C   UNL     1       1.536   0.915  -4.252  0.00  0.00    +0.002 A 
ATOM     23  C   UNL     1       1.468  -0.303  -4.903  0.00  0.00    +0.000 A 
ATOM     24  C   UNL     1       1.702  -1.476  -4.208  0.00  0.00    +0.002 A 
ATOM     25  C   UNL     1       2.005  -1.433  -2.862  0.00  0.00    +0.023 A 
ENDBRANCH   5  20
BRANCH   1  26
ATOM     26  S   UNL     1       3.094   1.577   2.796  0.00  0.00    +0.027 S 
ATOM     27  O   UNL     1       1.995   2.477   2.858  0.00  0.00    -0.164 OA
ATOM     28  O   UNL     1       3.421   0.700   3.864  0.00  0.00    -0.164 OA
BRANCH  26  33
ATOM     29  C   UNL     1       8.004   4.923   1.746  0.00  0.00    +0.044 C 
ATOM     30  C   UNL     1       6.778   4.087   2.008  0.00  0.00    -0.050 A 
ATOM     31  C   UNL     1       5.530   4.558   1.645  0.00  0.00    +0.005 A 
ATOM     32  C   UNL     1       4.405   3.792   1.885  0.00  0.00    +0.027 A 
ATOM     33  C   UNL     1       4.528   2.554   2.489  0.00  0.00    +0.093 A 
ATOM     34  C   UNL     1       5.775   2.085   2.857  0.00  0.00    +0.027 A 
ATOM     35  C   UNL     1       6.901   2.849   2.611  0.00  0.00    +0.005 A 
ENDBRANCH  26  33
ENDBRANCH   1  26
TORSDOF 8
