REMARK  Name = ZINC10380119
REMARK  7 active torsions:
REMARK  status: ('A' for Active; 'I' for Inactive)
REMARK    1  A    between atoms: C_1  and  C_2
REMARK    2  A    between atoms: C_4  and  C_35
REMARK    3  A    between atoms: C_8  and  C_29
REMARK    4  A    between atoms: C_10  and  S_11
REMARK    5  A    between atoms: S_11  and  C_12
REMARK    6  A    between atoms: C_12  and  C_13
REMARK    7  A    between atoms: C_17  and  C_26
REMARK                            x       y       z     vdW  Elec       q    Type
REMARK                         _______ _______ _______ _____ _____    ______ ____
ROOT
ATOM      1  S   UNL     1       0.306   3.257  -4.753  0.00  0.00    -0.077 S 
ENDROOT
BRANCH   1  11
ATOM      2  C   UNL     1      -2.421   3.889 -10.561  0.00  0.00    +0.046 C 
ATOM      3  C   UNL     1      -1.222   3.778  -9.654  0.00  0.00    -0.021 A 
ATOM      4  C   UNL     1       0.040   3.821 -10.167  0.00  0.00    +0.030 A 
ATOM      5  C   UNL     1       1.151   3.718  -9.316  0.00  0.00    +0.059 A 
ATOM      6  N   UNL     1       1.006   3.586  -8.026  0.00  0.00    -0.169 NA
ATOM      7  N   UNL     1      -0.270   3.544  -7.453  0.00  0.00    -0.206 N 
ATOM      8  C   UNL     1      -1.388   3.640  -8.268  0.00  0.00    +0.097 A 
ATOM      9  C   UNL     1      -2.493   3.573  -7.426  0.00  0.00    +0.100 A 
ATOM     10  N   UNL     1      -2.031   3.439  -6.170  0.00  0.00    -0.220 NA
ATOM     11  C   UNL     1      -0.717   3.417  -6.178  0.00  0.00    +0.191 A 
ATOM     12  C   UNL     1       2.538   3.760  -9.903  0.00  0.00    +0.067 C 
BRANCH   9  13
ATOM     13  C   UNL     1      -3.912   3.639  -7.835  0.00  0.00    +0.003 A 
ATOM     14  C   UNL     1      -4.339   4.620  -8.732  0.00  0.00    +0.010 A 
ATOM     15  C   UNL     1      -5.663   4.673  -9.114  0.00  0.00    +0.001 A 
ATOM     16  C   UNL     1      -6.571   3.762  -8.601  0.00  0.00    +0.000 A 
ATOM     17  C   UNL     1      -6.156   2.791  -7.708  0.00  0.00    +0.001 A 
ATOM     18  C   UNL     1      -4.833   2.723  -7.322  0.00  0.00    +0.010 A 
ENDBRANCH   9  13
ENDBRANCH   1  11
BRANCH   1  19
ATOM     19  C   UNL     1      -0.871   3.138  -3.378  0.00  0.00    +0.173 C 
BRANCH  19  20
ATOM     20  C   UNL     1      -0.117   2.995  -2.082  0.00  0.00    +0.230 C 
ATOM     21  O   UNL     1       1.094   3.066  -2.073  0.00  0.00    -0.274 OA
ATOM     22  N   UNL     1      -0.788   2.789  -0.931  0.00  0.00    -0.264 N 
ATOM     23  C   UNL     1      -2.261   2.783  -0.898  0.00  0.00    +0.168 C 
ATOM     24  C   UNL     1      -2.701   1.626   0.010  0.00  0.00    +0.276 C 
ATOM     25  O   UNL     1      -2.131   1.818   1.308  0.00  0.00    -0.476 OA
ATOM     26  C   UNL     1      -0.799   2.082   1.383  0.00  0.00    +0.143 A 
ATOM     27  C   UNL     1      -0.107   2.572   0.279  0.00  0.00    +0.078 A 
ATOM     28  C   UNL     1       1.248   2.845   0.372  0.00  0.00    +0.027 A 
ATOM     29  C   UNL     1       1.915   2.627   1.564  0.00  0.00    +0.002 A 
ATOM     30  C   UNL     1       1.230   2.138   2.661  0.00  0.00    +0.004 A 
ATOM     31  C   UNL     1      -0.123   1.865   2.574  0.00  0.00    +0.047 A 
BRANCH  24  32
ATOM     32  C   UNL     1      -4.204   1.610   0.114  0.00  0.00    +0.253 C 
ATOM     33  O   UNL     1      -4.741   1.826   1.180  0.00  0.00    -0.272 OA
ATOM     34  N   UNL     1      -4.953   1.355  -0.978  0.00  0.00    -0.326 N 
ATOM     35  H   UNL     1      -4.524   1.182  -1.830  0.00  0.00    +0.145 HD
ATOM     36  H   UNL     1      -5.920   1.345  -0.911  0.00  0.00    +0.145 HD
ENDBRANCH  24  32
ENDBRANCH  19  20
ENDBRANCH   1  19
TORSDOF 5
