REMARK  Name = ZINC57999118
REMARK  10 active torsions:
REMARK  status: ('A' for Active; 'I' for Inactive)
REMARK    1  A    between atoms: C_1  and  C_2
REMARK    2  A    between atoms: C_2  and  C_4
REMARK    3  A    between atoms: C_2  and  N_21
REMARK    4  A    between atoms: C_4  and  C_5
REMARK    5  A    between atoms: N_7  and  C_8
REMARK    6  A    between atoms: C_8  and  C_10
REMARK    7  A    between atoms: C_8  and  C_11
REMARK    8  A    between atoms: C_15  and  S_17
REMARK    9  A    between atoms: S_17  and  N_20
REMARK   10  A    between atoms: C_22  and  C_24
REMARK                            x       y       z     vdW  Elec       q    Type
REMARK                         _______ _______ _______ _____ _____    ______ ____
ROOT
ATOM      1  C   UNL     1       0.847  -1.998  -1.206  0.00  0.00    +0.215 C 
ATOM      2  O   UNL     1       0.410  -2.612  -0.256  0.00  0.00    -0.276 OA
ATOM      3  N   UNL     1       1.449  -2.657  -2.215  0.00  0.00    -0.309 N 
ATOM      4  H   UNL     1       1.799  -2.166  -2.975  0.00  0.00    +0.149 HD
ENDROOT
BRANCH   3   5
ATOM      5  C   UNL     1       1.575  -4.116  -2.166  0.00  0.00    +0.100 C 
ATOM      6  C   UNL     1       2.825  -4.494  -1.369  0.00  0.00    +0.033 C 
BRANCH   5   7
ATOM      7  C   UNL     1       1.689  -4.659  -3.567  0.00  0.00    -0.026 A 
ATOM      8  C   UNL     1       2.454  -3.991  -4.506  0.00  0.00    +0.005 A 
ATOM      9  C   UNL     1       2.559  -4.489  -5.792  0.00  0.00    +0.002 A 
ATOM     10  C   UNL     1       1.900  -5.654  -6.138  0.00  0.00    +0.028 A 
ATOM     11  C   UNL     1       1.136  -6.321  -5.199  0.00  0.00    +0.105 A 
ATOM     12  C   UNL     1       1.035  -5.826  -3.912  0.00  0.00    +0.034 A 
BRANCH  11  13
ATOM     13  S   UNL     1       0.296  -7.806  -5.640  0.00  0.00    +0.056 S 
ATOM     14  O   UNL     1      -0.790  -7.943  -4.734  0.00  0.00    -0.153 OA
ATOM     15  O   UNL     1       0.113  -7.765  -7.049  0.00  0.00    -0.153 OA
BRANCH  13  16
ATOM     16  N   UNL     1       1.330  -9.063  -5.334  0.00  0.00    -0.204 NA
ATOM     17  H   UNL     1       0.977  -9.932  -5.086  0.00  0.00    +0.144 HD
ATOM     18  H   UNL     1       2.288  -8.931  -5.402  0.00  0.00    +0.144 HD
ENDBRANCH  13  16
ENDBRANCH  11  13
ENDBRANCH   5   7
ENDBRANCH   3   5
BRANCH   1  19
ATOM     19  C   UNL     1       0.718  -0.497  -1.257  0.00  0.00    +0.117 C 
BRANCH  19  21
ATOM     20  C   UNL     1      -0.019   1.526   0.010  0.00  0.00    +0.028 C 
ATOM     21  C   UNL     1       0.002  -0.004   0.002  0.00  0.00    +0.079 C 
BRANCH  21  22
ATOM     22  N   UNL     1      -1.372  -0.511   0.012  0.00  0.00    -0.308 N 
ATOM     23  C   UNL     1      -2.029  -0.655   1.181  0.00  0.00    +0.244 C 
ATOM     24  O   UNL     1      -1.480  -0.364   2.226  0.00  0.00    -0.270 OA
ATOM     25  H   UNL     1      -1.810  -0.743  -0.822  0.00  0.00    +0.149 HD
BRANCH  23  26
ATOM     26  C   UNL     1      -3.416  -1.167   1.191  0.00  0.00    +0.037 A 
ATOM     27  C   UNL     1      -4.046  -1.507  -0.006  0.00  0.00    +0.013 A 
ATOM     28  C   UNL     1      -5.340  -1.985   0.010  0.00  0.00    +0.001 A 
ATOM     29  C   UNL     1      -6.013  -2.126   1.211  0.00  0.00    +0.000 A 
ATOM     30  C   UNL     1      -5.394  -1.790   2.402  0.00  0.00    +0.001 A 
ATOM     31  C   UNL     1      -4.098  -1.317   2.399  0.00  0.00    +0.013 A 
ENDBRANCH  23  26
ENDBRANCH  21  22
ENDBRANCH  19  21
ENDBRANCH   1  19
TORSDOF 8
