REMARK  Name = ZINC40310450
REMARK  8 active torsions:
REMARK  status: ('A' for Active; 'I' for Inactive)
REMARK    1  A    between atoms: C_1  and  C_2
REMARK    2  A    between atoms: C_2  and  C_4
REMARK    3  A    between atoms: C_2  and  N_12
REMARK    4  A    between atoms: C_9  and  O_10
REMARK    5  A    between atoms: O_10  and  C_11
REMARK    6  A    between atoms: C_13  and  C_15
REMARK    7  A    between atoms: C_18  and  N_22
REMARK    8  A    between atoms: C_20  and  N_21
REMARK                            x       y       z     vdW  Elec       q    Type
REMARK                         _______ _______ _______ _____ _____    ______ ____
ROOT
ATOM      1  N   UNL     1       0.705  -0.536   1.174  0.00  0.00    -0.305 N 
ATOM      2  C   UNL     1       2.050  -0.619   1.168  0.00  0.00    +0.246 C 
ATOM      3  O   UNL     1       2.675  -0.300   0.174  0.00  0.00    -0.270 OA
ATOM      4  H   UNL     1       0.207  -0.791   1.967  0.00  0.00    +0.150 HD
ENDROOT
BRANCH   2   5
ATOM      5  C   UNL     1       2.764  -1.097   2.363  0.00  0.00    +0.057 A 
ATOM      6  C   UNL     1       2.062  -1.347   3.547  0.00  0.00    +0.016 A 
ATOM      7  C   UNL     1       2.723  -1.790   4.655  0.00  0.00    +0.023 A 
ATOM      8  C   UNL     1       4.101  -1.997   4.618  0.00  0.00    +0.026 A 
ATOM      9  C   UNL     1       4.815  -1.754   3.452  0.00  0.00    +0.046 A 
ATOM     10  C   UNL     1       4.153  -1.309   2.318  0.00  0.00    +0.039 A 
BRANCH  10  11
ATOM     11  N   UNL     1       4.859  -1.069   1.146  0.00  0.00    -0.357 N 
ATOM     12  H   UNL     1       4.409  -0.679   0.380  0.00  0.00    +0.142 HD
ATOM     13  H   UNL     1       5.801  -1.291   1.093  0.00  0.00    +0.142 HD
ENDBRANCH  10  11
BRANCH   8  14
ATOM     14  N   UNL     1       4.765  -2.448   5.754  0.00  0.00    -0.358 N 
ATOM     15  H   UNL     1       4.269  -2.618   6.570  0.00  0.00    +0.142 HD
ATOM     16  H   UNL     1       5.724  -2.592   5.731  0.00  0.00    +0.142 HD
ENDBRANCH   8  14
ENDBRANCH   2   5
BRANCH   1  18
ATOM     17  C   UNL     1      -0.057   1.468  -0.002  0.00  0.00    +0.033 C 
ATOM     18  C   UNL     1      -0.005  -0.061  -0.016  0.00  0.00    +0.104 C 
BRANCH  18  19
ATOM     19  C   UNL     1      -1.408  -0.611  -0.017  0.00  0.00    +0.014 A 
ATOM     20  C   UNL     1      -2.012  -0.966   1.174  0.00  0.00    +0.009 A 
ATOM     21  C   UNL     1      -3.299  -1.471   1.174  0.00  0.00    +0.001 A 
ATOM     22  C   UNL     1      -3.985  -1.622  -0.017  0.00  0.00    +0.004 A 
ATOM     23  C   UNL     1      -3.385  -1.269  -1.210  0.00  0.00    +0.046 A 
ATOM     24  C   UNL     1      -2.096  -0.756  -1.212  0.00  0.00    +0.125 A 
BRANCH  24  25
ATOM     25  O   UNL     1      -1.506  -0.402  -2.384  0.00  0.00    -0.495 OA
ATOM     26  C   UNL     1      -2.273  -0.579  -3.576  0.00  0.00    +0.277 C 
ENDBRANCH  24  25
ENDBRANCH  18  19
ENDBRANCH   1  18
TORSDOF 6
