REMARK  Name = ZINC21998602
REMARK  9 active torsions:
REMARK  status: ('A' for Active; 'I' for Inactive)
REMARK    1  A    between atoms: C_1  and  C_2
REMARK    2  A    between atoms: C_2  and  C_23
REMARK    3  A    between atoms: N_5  and  C_9
REMARK    4  A    between atoms: C_9  and  C_10
REMARK    5  A    between atoms: N_12  and  C_13
REMARK    6  A    between atoms: C_18  and  C_19
REMARK    7  A    between atoms: C_19  and  C_20
REMARK    8  A    between atoms: C_19  and  C_21
REMARK    9  A    between atoms: C_19  and  C_22
REMARK                            x       y       z     vdW  Elec       q    Type
REMARK                         _______ _______ _______ _____ _____    ______ ____
ROOT
ATOM      1  C   UNL     1       1.424   9.639  -2.420  0.00  0.00    +0.047 C 
ATOM      2  C   UNL     1       2.834   9.251  -1.969  0.00  0.00    +0.135 C 
ATOM      3  C   UNL     1       3.095   7.778  -2.213  0.00  0.00    +0.251 C 
ATOM      4  O   UNL     1       3.095   7.202  -3.280  0.00  0.00    -0.272 OA
ATOM      5  N   UNL     1       3.324   7.242  -0.998  0.00  0.00    -0.215 N 
ATOM      6  C   UNL     1       3.252   8.164  -0.031  0.00  0.00    +0.310 C 
ATOM      7  O   UNL     1       3.426   7.921   1.147  0.00  0.00    -0.252 OA
ATOM      8  N   UNL     1       2.966   9.389  -0.508  0.00  0.00    -0.281 N 
ATOM      9  H   UNL     1       2.829  10.371  -0.033  0.00  0.00    +0.152 HD
ENDROOT
BRANCH   2  10
ATOM     10  C   UNL     1       3.865  10.093  -2.675  0.00  0.00    -0.012 A 
ATOM     11  C   UNL     1       4.376   9.681  -3.892  0.00  0.00    +0.010 A 
ATOM     12  C   UNL     1       5.322  10.449  -4.543  0.00  0.00    +0.050 A 
ATOM     13  C   UNL     1       5.763  11.636  -3.977  0.00  0.00    +0.162 A 
ATOM     14  C   UNL     1       5.248  12.051  -2.754  0.00  0.00    +0.162 A 
ATOM     15  C   UNL     1       4.295  11.277  -2.109  0.00  0.00    +0.055 A 
ATOM     16  O   UNL     1       5.664  13.214  -2.183  0.00  0.00    -0.485 OA
ATOM     17  C   UNL     1       6.887  13.772  -2.675  0.00  0.00    +0.270 C 
ATOM     18  C   UNL     1       6.846  13.740  -4.209  0.00  0.00    +0.270 C 
ATOM     19  O   UNL     1       6.701  12.378  -4.626  0.00  0.00    -0.485 OA
ENDBRANCH   2  10
BRANCH   5  20
ATOM     20  C   UNL     1       3.621   5.827  -0.766  0.00  0.00    +0.214 C 
BRANCH  20  21
ATOM     21  C   UNL     1       2.335   5.075  -0.536  0.00  0.00    +0.235 C 
ATOM     22  O   UNL     1       1.275   5.663  -0.563  0.00  0.00    -0.274 OA
ATOM     23  N   UNL     1       2.363   3.748  -0.300  0.00  0.00    -0.284 N 
ATOM     24  H   UNL     1       3.326   3.232  -0.175  0.00  0.00    +0.155 HD
BRANCH  23  25
ATOM     25  C   UNL     1       1.167   3.027  -0.214  0.00  0.00    +0.037 A 
ATOM     26  C   UNL     1      -0.051   3.693  -0.252  0.00  0.00    +0.023 A 
ATOM     27  C   UNL     1      -1.230   2.979  -0.167  0.00  0.00    +0.002 A 
ATOM     28  C   UNL     1      -1.199   1.601  -0.049  0.00  0.00    +0.000 A 
ATOM     29  C   UNL     1       0.012   0.936  -0.005  0.00  0.00    +0.006 A 
ATOM     30  C   UNL     1       1.195   1.645  -0.090  0.00  0.00    -0.021 A 
BRANCH  30  31
ATOM     31  C   UNL     1       2.515   0.918  -0.048  0.00  0.00    -0.011 C 
ATOM     32  C   UNL     1       2.264  -0.588   0.058  0.00  0.00    +0.015 C 
ATOM     33  C   UNL     1       3.301   1.215  -1.326  0.00  0.00    +0.015 C 
ATOM     34  C   UNL     1       3.318   1.388   1.166  0.00  0.00    +0.015 C 
ENDBRANCH  30  31
ENDBRANCH  23  25
ENDBRANCH  20  21
ENDBRANCH   5  20
TORSDOF 5
