REMARK  Name = ZINC28721003
REMARK  9 active torsions:
REMARK  status: ('A' for Active; 'I' for Inactive)
REMARK    1  A    between atoms: C_1  and  C_2
REMARK    2  A    between atoms: C_2  and  C_3
REMARK    3  A    between atoms: C_2  and  C_4
REMARK    4  A    between atoms: C_7  and  N_10
REMARK    5  A    between atoms: N_12  and  C_32
REMARK    6  A    between atoms: C_15  and  C_18
REMARK    7  A    between atoms: C_18  and  C_19
REMARK    8  A    between atoms: N_21  and  C_22
REMARK    9  A    between atoms: C_24  and  N_29
REMARK                            x       y       z     vdW  Elec       q    Type
REMARK                         _______ _______ _______ _____ _____    ______ ____
ROOT
ATOM      1  N   UNL     1      -6.290   0.100   1.010  0.00  0.00    -0.226 NA
ATOM      2  C   UNL     1      -6.531  -0.861   1.871  0.00  0.00    +0.164 C 
ATOM      3  N   UNL     1      -7.592  -1.741   1.889  0.00  0.00    -0.247 N 
ATOM      4  C   UNL     1      -7.721  -2.674   2.818  0.00  0.00    +0.235 C 
ATOM      5  O   UNL     1      -8.656  -3.446   2.829  0.00  0.00    -0.274 OA
ATOM      6  C   UNL     1      -6.625  -2.717   3.870  0.00  0.00    +0.149 C 
ATOM      7  S   UNL     1      -5.557  -1.340   3.290  0.00  0.00    -0.077 S 
ENDROOT
BRANCH   1  11
ATOM      8  C   UNL     1      -2.920   2.465   1.438  0.00  0.00    -0.045 A 
ATOM      9  C   UNL     1      -3.700   2.171   2.543  0.00  0.00    +0.006 A 
ATOM     10  C   UNL     1      -4.828   1.388   2.406  0.00  0.00    +0.028 A 
ATOM     11  C   UNL     1      -5.175   0.883   1.152  0.00  0.00    +0.067 A 
ATOM     12  C   UNL     1      -4.380   1.179   0.043  0.00  0.00    +0.028 A 
ATOM     13  C   UNL     1      -3.259   1.967   0.193  0.00  0.00    +0.006 A 
BRANCH   8  15
ATOM     14  C   UNL     1      -2.100   4.700   2.132  0.00  0.00    +0.012 C 
ATOM     15  C   UNL     1      -1.694   3.326   1.594  0.00  0.00    +0.013 C 
ATOM     16  C   UNL     1      -0.725   2.661   2.574  0.00  0.00    +0.012 C 
ENDBRANCH   8  15
ENDBRANCH   1  11
BRANCH   3  17
ATOM     17  C   UNL     1      -8.611  -1.641   0.842  0.00  0.00    +0.084 C 
ATOM     18  C   UNL     1      -8.263  -0.830  -0.407  0.00  0.00    +0.025 C 
ATOM     19  C   UNL     1      -9.257  -0.272   0.614  0.00  0.00    +0.025 C 
ENDBRANCH   3  17
BRANCH   6  20
ATOM     20  C   UNL     1      -7.186  -2.439   5.266  0.00  0.00    +0.120 C 
BRANCH  20  21
ATOM     21  C   UNL     1      -6.094  -2.612   6.290  0.00  0.00    +0.219 C 
ATOM     22  O   UNL     1      -4.977  -2.926   5.938  0.00  0.00    -0.275 OA
ATOM     23  N   UNL     1      -6.358  -2.417   7.597  0.00  0.00    -0.284 N 
ATOM     24  H   UNL     1      -7.390  -2.225   7.927  0.00  0.00    +0.155 HD
BRANCH  23  25
ATOM     25  C   UNL     1      -5.320  -2.460   8.535  0.00  0.00    +0.054 A 
ATOM     26  C   UNL     1      -4.009  -2.245   8.132  0.00  0.00    +0.057 A 
ATOM     27  C   UNL     1      -2.987  -2.287   9.060  0.00  0.00    +0.128 A 
ATOM     28  C   UNL     1      -3.268  -2.542  10.390  0.00  0.00    +0.034 A 
ATOM     29  C   UNL     1      -4.572  -2.757  10.795  0.00  0.00    +0.024 A 
ATOM     30  C   UNL     1      -5.600  -2.711   9.873  0.00  0.00    +0.062 A 
ATOM     31 CL   UNL     1      -7.239  -2.974  10.383  0.00  0.00    -0.082 Cl
BRANCH  27  32
ATOM     32  N   UNL     1      -1.589  -2.058   8.631  0.00  0.00    +0.056 N 
ATOM     33  O   UNL     1      -1.341  -1.833   7.460  0.00  0.00    -0.126 OA
ATOM     34  O   UNL     1      -0.687  -2.095   9.448  0.00  0.00    -0.126 OA
ENDBRANCH  27  32
ENDBRANCH  23  25
ENDBRANCH  20  21
ENDBRANCH   6  20
TORSDOF 7
