REMARK  Name = ZINC01160436
REMARK  5 active torsions:
REMARK  status: ('A' for Active; 'I' for Inactive)
REMARK    1  A    between atoms: C_1  and  S_2
REMARK    2  A    between atoms: S_2  and  C_3
REMARK    3  A    between atoms: C_6  and  C_9
REMARK    4  A    between atoms: C_21  and  S_24
REMARK    5  A    between atoms: S_24  and  C_25
REMARK                            x       y       z     vdW  Elec       q    Type
REMARK                         _______ _______ _______ _____ _____    ______ ____
ROOT
ATOM      1  C   UNL     1      -0.013   1.086   0.008  0.00  0.00    +0.294 C 
ATOM      2  N   UNL     1      -0.704   1.628   1.174  0.00  0.00    -0.305 N 
ATOM      3  C   UNL     1      -1.127   2.960   1.148  0.00  0.00    +0.040 A 
ATOM      4  C   UNL     1      -0.529   3.923   1.940  0.00  0.00    +0.025 A 
ATOM      5  C   UNL     1      -0.950   5.238   1.862  0.00  0.00    +0.017 A 
ATOM      6  C   UNL     1      -1.968   5.597   0.995  0.00  0.00    +0.019 A 
ATOM      7  C   UNL     1      -2.580   4.646   0.202  0.00  0.00    +0.027 A 
ATOM      8  C   UNL     1      -2.171   3.320   0.275  0.00  0.00    +0.029 A 
ATOM      9  C   UNL     1      -2.808   2.267  -0.544  0.00  0.00    +0.156 A 
ATOM     10  C   UNL     1      -2.000   1.356  -1.261  0.00  0.00    +0.248 A 
ATOM     11  N   UNL     1      -2.587   0.412  -1.976  0.00  0.00    -0.184 NA
ATOM     12  C   UNL     1      -3.915   0.350  -2.005  0.00  0.00    +0.212 A 
ATOM     13  N   UNL     1      -4.656   1.220  -1.330  0.00  0.00    -0.122 NA
ATOM     14  N   UNL     1      -4.125   2.153  -0.619  0.00  0.00    -0.141 NA
ATOM     15  O   UNL     1      -0.651   1.464  -1.206  0.00  0.00    -0.449 OA
ATOM     16 BR   UNL     1      -2.524   7.402   0.896  0.00  0.00    -0.050 Br
ATOM     17  H   UNL     1      -0.866   1.074   1.954  0.00  0.00    +0.150 HD
ENDROOT
BRANCH   1  21
ATOM     18  C   UNL     1       4.009   2.532  -0.023  0.00  0.00    +0.008 A 
ATOM     19  C   UNL     1       3.393   2.213   1.181  0.00  0.00    +0.015 A 
ATOM     20  C   UNL     1       2.093   1.746   1.188  0.00  0.00    +0.010 A 
ATOM     21  C   UNL     1       1.405   1.596  -0.003  0.00  0.00    +0.011 A 
ATOM     22  C   UNL     1       2.017   1.907  -1.203  0.00  0.00    +0.010 A 
ATOM     23  C   UNL     1       3.315   2.380  -1.217  0.00  0.00    +0.015 A 
BRANCH  18  25
ATOM     24  C   UNL     1       6.023   3.398  -1.793  0.00  0.00    +0.090 C 
ATOM     25  S   UNL     1       5.667   3.128  -0.035  0.00  0.00    -0.129 S 
ENDBRANCH  18  25
ENDBRANCH   1  21
BRANCH  12  26
ATOM     26  S   UNL     1      -4.704  -0.906  -2.957  0.00  0.00    -0.088 S 
ATOM     27  C   UNL     1      -6.438  -0.507  -2.627  0.00  0.00    +0.093 C 
ENDBRANCH  12  26
TORSDOF 3
