REMARK  Name = ZINC36597565
REMARK  17 active torsions:
REMARK  status: ('A' for Active; 'I' for Inactive)
REMARK    1  A    between atoms: C_1  and  C_2
REMARK    2  A    between atoms: C_2  and  C_3
REMARK    3  A    between atoms: C_3  and  C_4
REMARK    4  A    between atoms: C_4  and  N_5
REMARK    5  A    between atoms: C_6  and  C_8
REMARK    6  A    between atoms: C_8  and  C_10
REMARK    7  A    between atoms: C_8  and  N_20
REMARK    8  A    between atoms: C_13  and  O_18
REMARK    9  A    between atoms: C_14  and  O_16
REMARK   10  A    between atoms: O_16  and  C_17
REMARK   11  A    between atoms: O_18  and  C_19
REMARK   12  A    between atoms: N_20  and  C_21
REMARK   13  A    between atoms: C_21  and  C_22
REMARK   14  A    between atoms: C_25  and  C_27
REMARK   15  A    between atoms: C_28  and  C_30
REMARK   16  A    between atoms: C_31  and  O_37
REMARK   17  A    between atoms: C_35  and  O_36
REMARK                            x       y       z     vdW  Elec       q    Type
REMARK                         _______ _______ _______ _____ _____    ______ ____
ROOT
ATOM      1  N   UNL     1       2.255  -5.787   3.718  0.00  0.00    -0.274 N 
ATOM      2  C   UNL     1       2.760  -6.448   4.778  0.00  0.00    +0.255 C 
ATOM      3  O   UNL     1       3.233  -5.828   5.712  0.00  0.00    -0.270 OA
ENDROOT
BRANCH   2   4
ATOM      4  C   UNL     1       2.741  -7.920   4.806  0.00  0.00    +0.119 A 
ATOM      5  C   UNL     1       3.822  -8.650   4.291  0.00  0.00    +0.133 A 
ATOM      6  C   UNL     1       3.793 -10.035   4.323  0.00  0.00    +0.046 A 
ATOM      7  C   UNL     1       2.705 -10.697   4.859  0.00  0.00    +0.007 A 
ATOM      8  C   UNL     1       1.634  -9.987   5.370  0.00  0.00    +0.046 A 
ATOM      9  C   UNL     1       1.644  -8.602   5.353  0.00  0.00    +0.133 A 
BRANCH   9  10
ATOM     10  O   UNL     1       0.595  -7.907   5.860  0.00  0.00    -0.506 OA
ATOM     11  H   UNL     1      -0.099  -7.716   5.214  0.00  0.00    +0.292 HD
ENDBRANCH   9  10
BRANCH   5  12
ATOM     12  O   UNL     1       4.891  -8.003   3.763  0.00  0.00    -0.506 OA
ATOM     13  H   UNL     1       5.587  -7.805   4.404  0.00  0.00    +0.292 HD
ENDBRANCH   5  12
ENDBRANCH   2   4
BRANCH   1  14
ATOM     14  C   UNL     1       2.274  -4.323   3.690  0.00  0.00    +0.193 C 
BRANCH  14  15
ATOM     15  C   UNL     1       3.700  -3.838   3.722  0.00  0.00    -0.015 A 
ATOM     16  C   UNL     1       4.660  -4.468   2.951  0.00  0.00    +0.010 A 
ATOM     17  C   UNL     1       5.970  -4.027   2.976  0.00  0.00    +0.050 A 
ATOM     18  C   UNL     1       6.324  -2.952   3.776  0.00  0.00    +0.162 A 
ATOM     19  C   UNL     1       5.358  -2.318   4.552  0.00  0.00    +0.162 A 
ATOM     20  C   UNL     1       4.046  -2.762   4.518  0.00  0.00    +0.055 A 
BRANCH  19  21
ATOM     21  O   UNL     1       5.701  -1.263   5.338  0.00  0.00    -0.491 OA
ATOM     22  C   UNL     1       4.657  -0.662   6.107  0.00  0.00    +0.277 C 
ENDBRANCH  19  21
BRANCH  18  23
ATOM     23  O   UNL     1       7.612  -2.518   3.803  0.00  0.00    -0.491 OA
ATOM     24  C   UNL     1       8.574  -3.295   3.085  0.00  0.00    +0.277 C 
ENDBRANCH  18  23
ENDBRANCH  14  15
BRANCH  14  26
ATOM     25  N   UNL     1       0.612  -2.928   2.503  0.00  0.00    -0.313 N 
ATOM     26  C   UNL     1       1.606  -3.835   2.431  0.00  0.00    +0.238 C 
ATOM     27  O   UNL     1       1.962  -4.260   1.352  0.00  0.00    -0.273 OA
ATOM     28  H   UNL     1       0.327  -2.588   3.365  0.00  0.00    +0.149 HD
BRANCH  25  29
ATOM     29  C   UNL     1      -0.038  -2.454   1.278  0.00  0.00    +0.104 C 
BRANCH  29  30
ATOM     30  C   UNL     1      -1.123  -1.436   1.637  0.00  0.00    +0.018 C 
BRANCH  30  32
ATOM     31  C   UNL     1      -2.886   0.076   0.717  0.00  0.00    +0.004 C 
ATOM     32  C   UNL     1      -1.801  -0.942   0.358  0.00  0.00    -0.002 C 
ENDBRANCH  30  32
ENDBRANCH  29  30
ENDBRANCH  25  29
ENDBRANCH  14  26
ENDBRANCH   1  14
BRANCH   1  33
ATOM     33  C   UNL     1       1.685  -6.534   2.593  0.00  0.00    +0.183 C 
BRANCH  33  34
ATOM     34  C   UNL     1       2.789  -6.943   1.652  0.00  0.00    +0.122 A 
ATOM     35  C   UNL     1       3.386  -8.148   1.617  0.00  0.00    +0.046 A 
ATOM     36  C   UNL     1       4.357  -8.095   0.591  0.00  0.00    +0.045 A 
ATOM     37  C   UNL     1       4.295  -6.860   0.060  0.00  0.00    +0.102 A 
ATOM     38  O   UNL     1       3.340  -6.169   0.703  0.00  0.00    -0.463 OA
ATOM     39  C   UNL     1       5.149  -6.342  -1.069  0.00  0.00    +0.086 C 
ENDBRANCH  33  34
ENDBRANCH   1  33
TORSDOF 13
