REMARK  Name = ZINC37570699
REMARK  8 active torsions:
REMARK  status: ('A' for Active; 'I' for Inactive)
REMARK    1  A    between atoms: C_1  and  C_2
REMARK    2  A    between atoms: C_5  and  C_8
REMARK    3  A    between atoms: C_8  and  N_9
REMARK    4  A    between atoms: C_12  and  N_15
REMARK    5  A    between atoms: N_15  and  C_16
REMARK    6  A    between atoms: N_15  and  S_23
REMARK    7  A    between atoms: S_23  and  C_26
REMARK    8  A    between atoms: C_31  and  C_32
REMARK                            x       y       z     vdW  Elec       q    Type
REMARK                         _______ _______ _______ _____ _____    ______ ____
ROOT
ATOM      1  N   UNL     1       5.166  -6.727  -1.086  0.00  0.00    -0.200 N 
ENDROOT
BRANCH   1   5
ATOM      2  N   UNL     1       2.002  -4.122  -0.103  0.00  0.00    +0.382 N 
ATOM      3  C   UNL     1       2.772  -3.799  -1.310  0.00  0.00    -0.077 C 
ATOM      4  C   UNL     1       4.120  -4.521  -1.268  0.00  0.00    +0.006 C 
ATOM      5  C   UNL     1       3.882  -6.032  -1.203  0.00  0.00    +0.095 C 
ATOM      6  C   UNL     1       3.015  -6.350   0.019  0.00  0.00    +0.006 C 
ATOM      7  C   UNL     1       1.708  -5.560  -0.070  0.00  0.00    -0.077 C 
ATOM      8  H   UNL     1       2.539  -3.872   0.714  0.00  0.00    -0.081 HD
BRANCH   2   9
ATOM      9  C   UNL     1       0.742  -3.366  -0.110  0.00  0.00    -0.043 C 
BRANCH   9  14
ATOM     10  C   UNL     1       1.885   2.288   0.238  0.00  0.00    +0.044 C 
ATOM     11  C   UNL     1       1.587   0.813   0.147  0.00  0.00    -0.050 A 
ATOM     12  C   UNL     1       1.497   0.201  -1.089  0.00  0.00    +0.003 A 
ATOM     13  C   UNL     1       1.224  -1.151  -1.172  0.00  0.00    +0.002 A 
ATOM     14  C   UNL     1       1.041  -1.892  -0.019  0.00  0.00    -0.064 A 
ATOM     15  C   UNL     1       1.132  -1.280   1.217  0.00  0.00    +0.002 A 
ATOM     16  C   UNL     1       1.409   0.072   1.300  0.00  0.00    +0.003 A 
ENDBRANCH   9  14
ENDBRANCH   2   9
ENDBRANCH   1   5
BRANCH   1  17
ATOM     17  C   UNL     1       6.065  -6.369  -0.076  0.00  0.00    +0.052 A 
ATOM     18  C   UNL     1       5.768  -6.650   1.251  0.00  0.00    +0.027 A 
ATOM     19  C   UNL     1       6.657  -6.296   2.247  0.00  0.00    +0.040 A 
ATOM     20  C   UNL     1       7.844  -5.662   1.923  0.00  0.00    +0.124 A 
ATOM     21  C   UNL     1       8.143  -5.381   0.600  0.00  0.00    +0.040 A 
ATOM     22  C   UNL     1       7.259  -5.738  -0.399  0.00  0.00    +0.027 A 
ATOM     23  F   UNL     1       8.713  -5.316   2.899  0.00  0.00    -0.205 F 
ENDBRANCH   1  17
BRANCH   1  24
ATOM     24  S   UNL     1       5.554  -7.935  -2.149  0.00  0.00    +0.075 S 
ATOM     25  O   UNL     1       6.400  -8.837  -1.449  0.00  0.00    -0.150 OA
ATOM     26  O   UNL     1       4.338  -8.348  -2.757  0.00  0.00    -0.150 OA
BRANCH  24  27
ATOM     27  C   UNL     1       6.534  -7.213  -3.424  0.00  0.00    +0.112 A 
ATOM     28  C   UNL     1       7.873  -7.539  -3.535  0.00  0.00    +0.029 A 
ATOM     29  C   UNL     1       8.641  -6.973  -4.535  0.00  0.00    +0.002 A 
ATOM     30  C   UNL     1       8.070  -6.080  -5.423  0.00  0.00    +0.000 A 
ATOM     31  C   UNL     1       6.731  -5.755  -5.313  0.00  0.00    +0.005 A 
ATOM     32  C   UNL     1       5.962  -6.325  -4.315  0.00  0.00    -0.024 A 
ATOM     33  C   UNL     1       4.501  -5.975  -4.198  0.00  0.00    +0.046 C 
ENDBRANCH  24  27
ENDBRANCH   1  24
TORSDOF 6
