REMARK  Name = ZINC38975415
REMARK  6 active torsions:
REMARK  status: ('A' for Active; 'I' for Inactive)
REMARK    1  A    between atoms: C_1  and  O_2
REMARK    2  A    between atoms: O_2  and  C_3
REMARK    3  A    between atoms: C_9  and  C_12
REMARK    4  A    between atoms: C_13  and  C_14
REMARK    5  A    between atoms: N_25  and  C_26
REMARK    6  A    between atoms: C_29  and  N_32
REMARK                            x       y       z     vdW  Elec       q    Type
REMARK                         _______ _______ _______ _____ _____    ______ ____
ROOT
ATOM      1  C   UNL     1       1.425  -7.176  -1.791  0.00  0.00    +0.190 C 
ATOM      2  N   UNL     1       0.250  -7.636  -2.539  0.00  0.00    -0.322 N 
ATOM      3  C   UNL     1       0.328  -8.835  -3.238  0.00  0.00    +0.041 A 
ATOM      4  C   UNL     1      -0.424  -9.065  -4.378  0.00  0.00    +0.024 A 
ATOM      5  C   UNL     1      -0.320 -10.277  -5.033  0.00  0.00    +0.002 A 
ATOM      6  C   UNL     1       0.530 -11.264  -4.559  0.00  0.00    +0.001 A 
ATOM      7  C   UNL     1       1.290 -11.050  -3.427  0.00  0.00    +0.015 A 
ATOM      8  C   UNL     1       1.198  -9.830  -2.759  0.00  0.00    +0.058 A 
ATOM      9  C   UNL     1       2.006  -9.544  -1.561  0.00  0.00    +0.254 C 
ATOM     10  O   UNL     1       2.643 -10.431  -1.024  0.00  0.00    -0.270 OA
ATOM     11  N   UNL     1       2.033  -8.293  -1.068  0.00  0.00    -0.245 N 
ATOM     12  H   UNL     1      -0.568  -7.114  -2.545  0.00  0.00    +0.148 HD
ENDROOT
BRANCH  11  13
ATOM     13  C   UNL     1       2.657  -8.058   0.161  0.00  0.00    +0.039 A 
ATOM     14  C   UNL     1       4.013  -7.764   0.208  0.00  0.00    +0.026 A 
ATOM     15  C   UNL     1       4.626  -7.532   1.424  0.00  0.00    +0.034 A 
ATOM     16  C   UNL     1       3.891  -7.592   2.594  0.00  0.00    +0.126 A 
ATOM     17  C   UNL     1       2.540  -7.885   2.550  0.00  0.00    +0.034 A 
ATOM     18  C   UNL     1       1.920  -8.113   1.337  0.00  0.00    +0.026 A 
BRANCH  16  19
ATOM     19  N   UNL     1       4.551  -7.343   3.895  0.00  0.00    +0.056 N 
ATOM     20  O   UNL     1       5.732  -7.088   3.934  0.00  0.00    -0.126 OA
ATOM     21  O   UNL     1       3.909  -7.396   4.918  0.00  0.00    -0.126 OA
ENDBRANCH  16  19
ENDBRANCH  11  13
BRANCH   1  23
ATOM     22  C   UNL     1       2.810  -5.315  -2.635  0.00  0.00    +0.005 C 
ATOM     23  C   UNL     1       2.432  -6.597  -2.752  0.00  0.00    +0.015 C 
BRANCH  22  30
ATOM     24  C   UNL     1       4.633  -1.176  -2.991  0.00  0.00    +0.121 A 
ATOM     25  C   UNL     1       5.549  -1.055  -4.048  0.00  0.00    +0.047 A 
ATOM     26  C   UNL     1       5.839  -2.094  -4.864  0.00  0.00    +0.029 A 
ATOM     27  C   UNL     1       5.207  -3.351  -4.662  0.00  0.00    +0.043 A 
ATOM     28  N   UNL     1       5.316  -4.493  -5.305  0.00  0.00    -0.380 N 
ATOM     29  C   UNL     1       4.434  -5.484  -4.681  0.00  0.00    +0.149 C 
ATOM     30  C   UNL     1       3.752  -4.773  -3.534  0.00  0.00    -0.019 C 
ATOM     31  C   UNL     1       4.245  -3.476  -3.550  0.00  0.00    +0.006 A 
ATOM     32  C   UNL     1       3.995  -2.349  -2.733  0.00  0.00    +0.056 A 
ATOM     33  H   UNL     1       5.888  -4.653  -6.072  0.00  0.00    +0.160 HD
BRANCH  24  35
ATOM     34  C   UNL     1       5.078   1.111  -2.516  0.00  0.00    +0.277 C 
ATOM     35  O   UNL     1       4.382  -0.097  -2.203  0.00  0.00    -0.495 OA
ENDBRANCH  24  35
ENDBRANCH  22  30
ENDBRANCH   1  23
TORSDOF 5
