REMARK  Name = ZINC06282066
REMARK  9 active torsions:
REMARK  status: ('A' for Active; 'I' for Inactive)
REMARK    1  A    between atoms: C_1  and  C_2
REMARK    2  A    between atoms: C_7  and  C_14
REMARK    3  A    between atoms: C_14  and  C_16
REMARK    4  A    between atoms: C_14  and  N_65
REMARK    5  A    between atoms: N_20  and  C_21
REMARK    6  A    between atoms: C_21  and  C_22
REMARK    7  A    between atoms: C_21  and  C_23
REMARK    8  A    between atoms: C_21  and  C_24
REMARK    9  A    between atoms: N_27  and  C_30
REMARK                            x       y       z     vdW  Elec       q    Type
REMARK                         _______ _______ _______ _____ _____    ______ ____
ROOT
ATOM      1  C   UNL     1      -5.120   1.054   0.072  0.00  0.00    +0.039 C 
ENDROOT
BRANCH   1   8
ATOM      2  C   UNL     1       1.082   6.037   0.646  0.00  0.00    +0.044 C 
ATOM      3  C   UNL     1      -0.146   5.169   0.752  0.00  0.00    -0.048 A 
ATOM      4  C   UNL     1      -0.917   5.208   1.906  0.00  0.00    +0.004 A 
ATOM      5  C   UNL     1      -2.034   4.430   2.022  0.00  0.00    +0.010 A 
ATOM      6  C   UNL     1      -2.401   3.582   0.972  0.00  0.00    -0.001 A 
ATOM      7  C   UNL     1      -3.593   2.737   1.062  0.00  0.00    +0.017 A 
ATOM      8  C   UNL     1      -3.902   1.938   0.010  0.00  0.00    +0.011 A 
ATOM      9  C   UNL     1      -3.087   1.933  -1.142  0.00  0.00    +0.251 A 
ATOM     10  O   UNL     1      -3.382   1.207  -2.075  0.00  0.00    -0.268 OA
ATOM     11  N   UNL     1      -1.992   2.708  -1.235  0.00  0.00    -0.322 N 
ATOM     12  H   UNL     1      -1.454   2.680  -2.042  0.00  0.00    +0.169 HD
ATOM     13  C   UNL     1      -1.624   3.542  -0.201  0.00  0.00    +0.049 A 
ATOM     14  C   UNL     1      -0.491   4.344  -0.297  0.00  0.00    +0.029 A 
ENDBRANCH   1   8
BRANCH   1  20
ATOM     15  C   UNL     1      -6.374   2.842  -0.973  0.00  0.00    -0.058 C 
ATOM     16  C   UNL     1      -7.269   3.190  -2.165  0.00  0.00    +0.086 C 
ATOM     17  N   UNL     1      -8.486   2.367  -2.118  0.00  0.00    -0.331 N 
ATOM     18  C   UNL     1      -8.152   0.936  -2.160  0.00  0.00    +0.086 C 
ATOM     19  C   UNL     1      -7.257   0.589  -0.968  0.00  0.00    -0.058 C 
ATOM     20  N   UNL     1      -6.029   1.407  -1.040  0.00  0.00    +0.391 N 
ATOM     21  H   UNL     1      -5.554   1.218  -1.931  0.00  0.00    -0.080 HD
BRANCH  17  22
ATOM     22  C   UNL     1      -9.362   2.708  -3.153  0.00  0.00    +0.065 A 
ATOM     23  C   UNL     1     -10.605   2.096  -3.242  0.00  0.00    +0.026 A 
ATOM     24  C   UNL     1     -11.470   2.437  -4.263  0.00  0.00    +0.002 A 
ATOM     25  C   UNL     1     -11.097   3.381  -5.202  0.00  0.00    +0.003 A 
ATOM     26  C   UNL     1      -9.858   3.990  -5.121  0.00  0.00    +0.040 A 
ATOM     27  C   UNL     1      -8.989   3.656  -4.099  0.00  0.00    +0.144 A 
ATOM     28  F   UNL     1      -7.778   4.250  -4.020  0.00  0.00    -0.204 F 
ENDBRANCH  17  22
ENDBRANCH   1  20
BRANCH   1  29
ATOM     29  C   UNL     1      -5.811   1.242   1.398  0.00  0.00    +0.143 A 
ATOM     30  N   UNL     1      -6.497   2.291   1.781  0.00  0.00    -0.115 NA
ATOM     31  N   UNL     1      -6.929   2.070   2.974  0.00  0.00    -0.023 NA
ATOM     32  N   UNL     1      -6.536   0.907   3.363  0.00  0.00    -0.043 NA
ATOM     33  N   UNL     1      -5.849   0.363   2.417  0.00  0.00    -0.225 N 
BRANCH  33  34
ATOM     34  C   UNL     1      -5.223  -0.961   2.447  0.00  0.00    +0.059 C 
ATOM     35  C   UNL     1      -3.724  -0.824   2.176  0.00  0.00    +0.036 C 
ATOM     36  C   UNL     1      -5.437  -1.595   3.823  0.00  0.00    +0.036 C 
ATOM     37  C   UNL     1      -5.856  -1.849   1.373  0.00  0.00    +0.036 C 
ENDBRANCH  33  34
ENDBRANCH   1  29
TORSDOF 5
