REMARK  Name = ZINC15968452
REMARK  4 active torsions:
REMARK  status: ('A' for Active; 'I' for Inactive)
REMARK    1  A    between atoms: C_1  and  C_2
REMARK    2  A    between atoms: C_16  and  C_19
REMARK    3  A    between atoms: C_19  and  C_20
REMARK    4  A    between atoms: N_32  and  C_35
REMARK                            x       y       z     vdW  Elec       q    Type
REMARK                         _______ _______ _______ _____ _____    ______ ____
ROOT
ATOM      1  C   UNL     1       4.734  -0.039   0.520  0.00  0.00    +0.046 C 
ATOM      2  C   UNL     1       3.906  -1.297   0.456  0.00  0.00    -0.028 A 
ATOM      3  C   UNL     1       4.014  -2.136  -0.634  0.00  0.00    +0.025 A 
ATOM      4  C   UNL     1       3.259  -3.293  -0.702  0.00  0.00    +0.042 A 
ATOM      5  C   UNL     1       2.390  -3.611   0.330  0.00  0.00    +0.027 A 
ATOM      6  C   UNL     1       2.280  -2.776   1.419  0.00  0.00    +0.005 A 
ATOM      7  C   UNL     1       3.039  -1.611   1.499  0.00  0.00    +0.042 A 
ATOM      8  N   UNL     1       2.761  -0.935   2.690  0.00  0.00    -0.283 N 
ATOM      9  C   UNL     1       1.848  -1.582   3.440  0.00  0.00    +0.243 C 
ATOM     10  O   UNL     1       1.416  -1.231   4.517  0.00  0.00    -0.273 OA
ATOM     11  C   UNL     1       1.460  -2.819   2.676  0.00  0.00    +0.136 C 
ATOM     12  C   UNL     1      -0.042  -2.855   2.371  0.00  0.00    +0.123 C 
ATOM     13  C   UNL     1      -0.645  -3.756   3.484  0.00  0.00    +0.108 C 
ATOM     14  C   UNL     1       0.556  -4.155   4.367  0.00  0.00    +0.072 C 
ATOM     15  N   UNL     1       1.741  -4.033   3.466  0.00  0.00    -0.295 NA
ATOM     16  C   UNL     1      -1.147  -4.962   2.724  0.00  0.00    +0.232 C 
ATOM     17  O   UNL     1      -1.690  -5.927   3.219  0.00  0.00    -0.274 OA
ATOM     18  N   UNL     1      -0.899  -4.800   1.419  0.00  0.00    -0.210 N 
ATOM     19  C   UNL     1      -0.283  -3.638   1.100  0.00  0.00    +0.233 C 
ATOM     20  O   UNL     1       0.028  -3.277  -0.015  0.00  0.00    -0.274 OA
ATOM     21 CL   UNL     1       3.400  -4.345  -2.076  0.00  0.00    -0.084 Cl
ATOM     22  H   UNL     1       3.176  -0.097   2.946  0.00  0.00    +0.155 HD
ATOM     23  H   UNL     1       1.837  -4.839   2.867  0.00  0.00    +0.124 HD
ENDROOT
BRANCH  18  24
ATOM     24  C   UNL     1      -1.254  -5.754   0.455  0.00  0.00    +0.044 A 
ATOM     25  C   UNL     1      -0.628  -6.993   0.439  0.00  0.00    +0.024 A 
ATOM     26  C   UNL     1      -0.980  -7.931  -0.512  0.00  0.00    +0.002 A 
ATOM     27  C   UNL     1      -1.955  -7.637  -1.447  0.00  0.00    +0.000 A 
ATOM     28  C   UNL     1      -2.581  -6.404  -1.434  0.00  0.00    +0.002 A 
ATOM     29  C   UNL     1      -2.237  -5.464  -0.482  0.00  0.00    +0.024 A 
ENDBRANCH  18  24
BRANCH  14  30
ATOM     30  C   UNL     1       0.670  -3.214   5.567  0.00  0.00    +0.056 C 
BRANCH  30  31
ATOM     31  C   UNL     1      -0.088  -3.793   6.734  0.00  0.00    -0.021 A 
ATOM     32  C   UNL     1      -1.355  -3.515   7.080  0.00  0.00    +0.087 A 
ATOM     33  N   UNL     1      -1.702  -4.231   8.193  0.00  0.00    -0.360 N 
ATOM     34  H   UNL     1      -2.568  -4.196   8.630  0.00  0.00    +0.165 HD
ATOM     35  C   UNL     1      -0.641  -5.008   8.600  0.00  0.00    +0.047 A 
ATOM     36  C   UNL     1       0.415  -4.772   7.700  0.00  0.00    +0.003 A 
ATOM     37  C   UNL     1       1.631  -5.437   7.864  0.00  0.00    +0.010 A 
ATOM     38  C   UNL     1       1.790  -6.317   8.898  0.00  0.00    +0.001 A 
ATOM     39  C   UNL     1       0.750  -6.555   9.786  0.00  0.00    +0.002 A 
ATOM     40  C   UNL     1      -0.456  -5.903   9.648  0.00  0.00    +0.026 A 
ENDBRANCH  30  31
ENDBRANCH  14  30
TORSDOF 3
