REMARK  Name = ZINC13501173
REMARK  11 active torsions:
REMARK  status: ('A' for Active; 'I' for Inactive)
REMARK    1  A    between atoms: C_1  and  C_2
REMARK    2  A    between atoms: C_2  and  C_3
REMARK    3  A    between atoms: C_3  and  C_5
REMARK    4  A    between atoms: C_3  and  N_72
REMARK    5  A    between atoms: N_9  and  C_10
REMARK    6  A    between atoms: C_10  and  C_11
REMARK    7  A    between atoms: C_11  and  C_12
REMARK    8  A    between atoms: C_18  and  C_19
REMARK    9  A    between atoms: C_18  and  N_72
REMARK   10  A    between atoms: C_23  and  C_31
REMARK   11  A    between atoms: C_32  and  N_72
REMARK                            x       y       z     vdW  Elec       q    Type
REMARK                         _______ _______ _______ _____ _____    ______ ____
ROOT
ATOM      1  N   UNL     1       3.880   1.774  -1.127  0.00  0.00    +0.391 N 
ATOM      2  H   UNL     1       3.158   1.738  -1.856  0.00  0.00    -0.080 HD
ENDROOT
BRANCH   1   3
ATOM      3  C   UNL     1       3.897   3.128  -0.535  0.00  0.00    -0.067 C 
ATOM      4  C   UNL     1       4.847   3.177   0.664  0.00  0.00    -0.015 C 
ATOM      5  C   UNL     1       4.844   4.586   1.260  0.00  0.00    -0.002 C 
ATOM      6  C   UNL     1       3.428   4.944   1.716  0.00  0.00    -0.000 C 
ATOM      7  C   UNL     1       2.478   4.895   0.517  0.00  0.00    -0.002 C 
ATOM      8  C   UNL     1       2.481   3.485  -0.079  0.00  0.00    -0.015 C 
ENDBRANCH   1   3
BRANCH   1   9
ATOM      9  C   UNL     1       3.563   0.771  -0.088  0.00  0.00    +0.003 C 
BRANCH   9  10
ATOM     10  C   UNL     1       4.764   0.523   0.789  0.00  0.00    +0.138 A 
ATOM     11  N   UNL     1       6.015   0.460   0.403  0.00  0.00    -0.115 NA
ATOM     12  N   UNL     1       6.741   0.233   1.443  0.00  0.00    -0.023 NA
ATOM     13  N   UNL     1       5.985   0.150   2.482  0.00  0.00    -0.044 NA
ATOM     14  N   UNL     1       4.759   0.324   2.120  0.00  0.00    -0.231 N 
BRANCH  14  15
ATOM     15  C   UNL     1       3.583   0.306   2.994  0.00  0.00    +0.152 C 
BRANCH  15  16
ATOM     16  C   UNL     1       3.395   1.688   3.623  0.00  0.00    +0.058 C 
BRANCH  16  17
ATOM     17  C   UNL     1       2.269   1.635   4.624  0.00  0.00    -0.046 A 
ATOM     18  C   UNL     1       0.974   1.903   4.222  0.00  0.00    +0.004 A 
ATOM     19  C   UNL     1      -0.059   1.849   5.139  0.00  0.00    +0.000 A 
ATOM     20  C   UNL     1       0.205   1.539   6.460  0.00  0.00    +0.000 A 
ATOM     21  C   UNL     1       1.501   1.277   6.862  0.00  0.00    +0.000 A 
ATOM     22  C   UNL     1       2.533   1.325   5.944  0.00  0.00    +0.004 A 
ENDBRANCH  16  17
ENDBRANCH  15  16
ENDBRANCH  14  15
ENDBRANCH   9  10
BRANCH   9  24
ATOM     23  C   UNL     1       1.907  -0.292  -1.626  0.00  0.00    +0.002 C 
ATOM     24  C   UNL     1       3.154  -0.534  -0.773  0.00  0.00    -0.011 C 
ENDBRANCH   9  24
ENDBRANCH   1   9
BRANCH   1  25
ATOM     25  C   UNL     1       5.193   1.472  -1.736  0.00  0.00    -0.036 C 
BRANCH  25  26
ATOM     26  C   UNL     1       5.309   2.230  -3.034  0.00  0.00    +0.001 A 
ATOM     27  C   UNL     1       5.930   3.435  -3.059  0.00  0.00    +0.017 A 
ATOM     28  C   UNL     1       6.032   4.143  -4.336  0.00  0.00    -0.001 A 
ATOM     29  C   UNL     1       6.667   5.386  -4.426  0.00  0.00    +0.013 A 
ATOM     30  C   UNL     1       6.741   6.023  -5.632  0.00  0.00    -0.050 A 
ATOM     31  C   UNL     1       6.192   5.447  -6.770  0.00  0.00    +0.005 A 
ATOM     32  C   UNL     1       5.561   4.224  -6.705  0.00  0.00    +0.026 A 
ATOM     33  C   UNL     1       5.474   3.556  -5.487  0.00  0.00    +0.049 A 
ATOM     34  N   UNL     1       4.850   2.331  -5.394  0.00  0.00    -0.322 N 
ATOM     35  H   UNL     1       4.466   1.928  -6.188  0.00  0.00    +0.169 HD
ATOM     36  C   UNL     1       4.766   1.685  -4.217  0.00  0.00    +0.251 A 
ATOM     37  O   UNL     1       4.207   0.603  -4.171  0.00  0.00    -0.268 OA
ATOM     38  C   UNL     1       7.425   7.362  -5.729  0.00  0.00    +0.044 C 
ENDBRANCH  25  26
ENDBRANCH   1  25
TORSDOF 9
