REMARK  Name = ZINC39999068
REMARK  10 active torsions:
REMARK  status: ('A' for Active; 'I' for Inactive)
REMARK    1  A    between atoms: C_1  and  C_2
REMARK    2  A    between atoms: C_5  and  O_9
REMARK    3  A    between atoms: C_6  and  C_8
REMARK    4  A    between atoms: O_9  and  C_10
REMARK    5  A    between atoms: C_11  and  C_22
REMARK    6  A    between atoms: C_16  and  C_21
REMARK    7  A    between atoms: C_23  and  C_24
REMARK    8  A    between atoms: C_23  and  C_26
REMARK    9  A    between atoms: N_28  and  C_29
REMARK   10  A    between atoms: C_29  and  C_30
REMARK                            x       y       z     vdW  Elec       q    Type
REMARK                         _______ _______ _______ _____ _____    ______ ____
ROOT
ATOM      1  C   UNL     1      -0.314  -4.754  -1.192  0.00  0.00    +0.235 A 
ATOM      2  C   UNL     1      -0.154  -6.159  -1.260  0.00  0.00    +0.103 A 
ATOM      3  C   UNL     1      -0.012  -6.759  -2.539  0.00  0.00    +0.269 A 
ATOM      4  O   UNL     1       0.128  -7.964  -2.646  0.00  0.00    -0.266 OA
ATOM      5  N   UNL     1      -0.035  -5.970  -3.634  0.00  0.00    -0.267 N 
ATOM      6  C   UNL     1       0.100  -6.536  -4.866  0.00  0.00    +0.099 A 
ATOM      7  C   UNL     1       0.082  -5.774  -5.984  0.00  0.00    -0.034 A 
ATOM      8  C   UNL     1      -0.077  -4.386  -5.885  0.00  0.00    +0.008 A 
ATOM      9  C   UNL     1      -0.214  -3.811  -4.656  0.00  0.00    +0.047 A 
ATOM     10  C   UNL     1      -0.193  -4.618  -3.506  0.00  0.00    +0.144 A 
ATOM     11  N   UNL     1      -0.332  -4.046  -2.308  0.00  0.00    -0.194 NA
ATOM     12  C   UNL     1       0.234  -6.420  -7.337  0.00  0.00    +0.045 C 
ENDROOT
BRANCH   2  13
ATOM     13  C   UNL     1      -0.136  -6.940  -0.090  0.00  0.00    +0.042 C 
ATOM     14  C   UNL     1       0.786  -6.669   0.911  0.00  0.00    +0.114 C 
BRANCH  14  15
ATOM     15  C   UNL     1       0.724  -7.398   2.182  0.00  0.00    +0.255 C 
ATOM     16  O   UNL     1      -0.136  -8.240   2.359  0.00  0.00    -0.269 OA
ATOM     17  N   UNL     1       1.619  -7.134   3.155  0.00  0.00    -0.307 N 
ATOM     18  H   UNL     1       2.305  -6.462   3.014  0.00  0.00    +0.149 HD
BRANCH  17  19
ATOM     19  C   UNL     1       1.557  -7.862   4.425  0.00  0.00    +0.139 C 
BRANCH  19  20
ATOM     20  C   UNL     1       2.660  -7.383   5.333  0.00  0.00    -0.030 A 
ATOM     21  C   UNL     1       3.898  -7.998   5.301  0.00  0.00    +0.005 A 
ATOM     22  C   UNL     1       4.910  -7.559   6.133  0.00  0.00    +0.000 A 
ATOM     23  C   UNL     1       4.684  -6.504   6.998  0.00  0.00    +0.000 A 
ATOM     24  C   UNL     1       3.447  -5.889   7.030  0.00  0.00    +0.000 A 
ATOM     25  C   UNL     1       2.436  -6.325   6.194  0.00  0.00    +0.005 A 
ENDBRANCH  19  20
ENDBRANCH  17  19
ENDBRANCH  14  15
BRANCH  14  26
ATOM     26  C   UNL     1       1.798  -5.677   0.703  0.00  0.00    +0.104 C 
ATOM     27  N   UNL     1       2.601  -4.891   0.538  0.00  0.00    -0.191 NA
ENDBRANCH  14  26
ENDBRANCH   2  13
BRANCH   1  28
ATOM     28  O   UNL     1      -0.453  -4.141   0.005  0.00  0.00    -0.437 OA
BRANCH  28  33
ATOM     29  C   UNL     1      -1.575   1.378   0.034  0.00  0.00    +0.044 C 
ATOM     30  C   UNL     1      -1.275  -0.098   0.026  0.00  0.00    -0.050 A 
ATOM     31  C   UNL     1       0.031  -0.538   0.142  0.00  0.00    +0.007 A 
ATOM     32  C   UNL     1       0.309  -1.891   0.135  0.00  0.00    +0.047 A 
ATOM     33  C   UNL     1      -0.724  -2.809   0.012  0.00  0.00    +0.133 A 
ATOM     34  C   UNL     1      -2.034  -2.366  -0.103  0.00  0.00    -0.008 A 
ATOM     35  C   UNL     1      -2.306  -1.012  -0.091  0.00  0.00    +0.010 A 
ATOM     36  C   UNL     1      -3.158  -3.361  -0.237  0.00  0.00    +0.047 C 
ENDBRANCH  28  33
ENDBRANCH   1  28
TORSDOF 7
