REMARK  Name = ZINC13064841
REMARK  11 active torsions:
REMARK  status: ('A' for Active; 'I' for Inactive)
REMARK    1  A    between atoms: C_1  and  C_2
REMARK    2  A    between atoms: C_2  and  C_3
REMARK    3  A    between atoms: C_3  and  C_5
REMARK    4  A    between atoms: C_3  and  N_73
REMARK    5  A    between atoms: N_9  and  C_10
REMARK    6  A    between atoms: C_16  and  C_17
REMARK    7  A    between atoms: C_16  and  N_73
REMARK    8  A    between atoms: C_20  and  C_30
REMARK    9  A    between atoms: C_22  and  C_29
REMARK   10  A    between atoms: C_31  and  C_32
REMARK   11  A    between atoms: C_31  and  N_73
REMARK                            x       y       z     vdW  Elec       q    Type
REMARK                         _______ _______ _______ _____ _____    ______ ____
ROOT
ATOM      1  N   UNL     1      -1.572   1.546  -0.645  0.00  0.00    +0.391 N 
ATOM      2  H   UNL     1      -1.069   1.851  -1.486  0.00  0.00    -0.080 HD
ENDROOT
BRANCH   1   3
ATOM      3  C   UNL     1      -0.619   1.472   0.483  0.00  0.00    +0.003 C 
BRANCH   3   4
ATOM      4  C   UNL     1       0.692   0.933  -0.028  0.00  0.00    +0.138 A 
ATOM      5  N   UNL     1       0.859  -0.097  -0.821  0.00  0.00    -0.115 NA
ATOM      6  N   UNL     1       2.122  -0.236  -1.033  0.00  0.00    -0.023 NA
ATOM      7  N   UNL     1       2.765   0.679  -0.396  0.00  0.00    -0.044 NA
ATOM      8  N   UNL     1       1.919   1.420   0.235  0.00  0.00    -0.228 N 
BRANCH   8   9
ATOM      9  C   UNL     1       2.234   2.574   1.081  0.00  0.00    +0.111 C 
ATOM     10  C   UNL     1       2.962   3.632   0.249  0.00  0.00    +0.027 C 
ATOM     11  C   UNL     1       3.291   4.837   1.132  0.00  0.00    +0.002 C 
ATOM     12  C   UNL     1       4.187   4.393   2.289  0.00  0.00    +0.000 C 
ATOM     13  C   UNL     1       3.459   3.335   3.121  0.00  0.00    +0.002 C 
ATOM     14  C   UNL     1       3.130   2.129   2.238  0.00  0.00    +0.027 C 
ENDBRANCH   8   9
ENDBRANCH   3   4
BRANCH   3  16
ATOM     15  C   UNL     1      -2.404   1.176   2.206  0.00  0.00    +0.002 C 
ATOM     16  C   UNL     1      -1.157   0.549   1.578  0.00  0.00    -0.011 C 
ENDBRANCH   3  16
ENDBRANCH   1   3
BRANCH   1  17
ATOM     17  C   UNL     1      -2.638   2.524  -0.342  0.00  0.00    -0.036 C 
BRANCH  17  18
ATOM     18  C   UNL     1      -2.109   3.910  -0.601  0.00  0.00    +0.001 A 
ATOM     19  C   UNL     1      -2.291   4.487  -1.815  0.00  0.00    +0.017 A 
ATOM     20  C   UNL     1      -1.764   5.836  -2.034  0.00  0.00    +0.002 A 
ATOM     21  C   UNL     1      -1.922   6.482  -3.264  0.00  0.00    -0.041 A 
ATOM     22  C   UNL     1      -1.419   7.741  -3.437  0.00  0.00    +0.007 A 
ATOM     23  C   UNL     1      -0.753   8.384  -2.403  0.00  0.00    -0.048 A 
ATOM     24  C   UNL     1      -0.587   7.766  -1.182  0.00  0.00    +0.029 A 
ATOM     25  C   UNL     1      -1.090   6.484  -0.983  0.00  0.00    +0.050 A 
ATOM     26  N   UNL     1      -0.938   5.843   0.228  0.00  0.00    -0.322 N 
ATOM     27  H   UNL     1      -0.472   6.291   0.951  0.00  0.00    +0.169 HD
ATOM     28  C   UNL     1      -1.429   4.606   0.422  0.00  0.00    +0.251 A 
ATOM     29  O   UNL     1      -1.281   4.071   1.507  0.00  0.00    -0.268 OA
ATOM     30  C   UNL     1      -0.207   9.772  -2.616  0.00  0.00    +0.044 C 
ATOM     31  C   UNL     1      -2.643   5.794  -4.394  0.00  0.00    +0.044 C 
ENDBRANCH  17  18
ENDBRANCH   1  17
BRANCH   1  32
ATOM     32  C   UNL     1      -2.163   0.215  -0.894  0.00  0.00    -0.045 C 
BRANCH  32  33
ATOM     33  C   UNL     1      -2.822   0.221  -2.275  0.00  0.00    +0.102 C 
ATOM     34  C   UNL     1      -3.471  -1.150  -2.568  0.00  0.00    +0.032 C 
ATOM     35  C   UNL     1      -3.216  -1.372  -4.075  0.00  0.00    +0.030 C 
ATOM     36  C   UNL     1      -2.444  -0.108  -4.516  0.00  0.00    +0.160 C 
ATOM     37  O   UNL     1      -1.825   0.385  -3.307  0.00  0.00    -0.378 OA
ENDBRANCH  32  33
ENDBRANCH   1  32
TORSDOF 8
