REMARK  Name = ZINC59719399
REMARK  8 active torsions:
REMARK  status: ('A' for Active; 'I' for Inactive)
REMARK    1  A    between atoms: C_1  and  C_2
REMARK    2  A    between atoms: C_2  and  C_4
REMARK    3  A    between atoms: N_6  and  C_29
REMARK    4  A    between atoms: C_7  and  C_12
REMARK    5  A    between atoms: N_10  and  C_11
REMARK    6  A    between atoms: C_17  and  O_18
REMARK    7  A    between atoms: O_18  and  C_19
REMARK    8  A    between atoms: C_19  and  C_20
REMARK                            x       y       z     vdW  Elec       q    Type
REMARK                         _______ _______ _______ _____ _____    ______ ____
ROOT
ATOM      1  C   UNL     1      -2.092  -0.283   0.161  0.00  0.00    +0.195 C 
ATOM      2  N   UNL     1      -3.347   0.064   0.303  0.00  0.00    -0.158 NA
ATOM      3  N   UNL     1      -4.339  -0.933   0.311  0.00  0.00    -0.199 N 
ATOM      4  C   UNL     1      -3.916  -2.330   0.503  0.00  0.00    +0.215 C 
ATOM      5  N   UNL     1      -2.706  -2.550  -0.313  0.00  0.00    -0.213 NA
ATOM      6  N   UNL     1      -1.746  -1.635   0.022  0.00  0.00    -0.248 N 
ATOM      7  C   UNL     1      -0.363  -2.067   0.240  0.00  0.00    +0.151 C 
ATOM      8  H   UNL     1      -2.363  -3.492  -0.204  0.00  0.00    +0.147 HD
ENDROOT
BRANCH   4   9
ATOM      9  C   UNL     1      -3.603  -2.573   1.957  0.00  0.00    +0.035 A 
ATOM     10  C   UNL     1      -3.246  -1.517   2.774  0.00  0.00    +0.030 A 
ATOM     11  C   UNL     1      -2.959  -1.740   4.108  0.00  0.00    +0.043 A 
ATOM     12  C   UNL     1      -3.028  -3.020   4.629  0.00  0.00    +0.043 A 
ATOM     13  C   UNL     1      -3.385  -4.079   3.816  0.00  0.00    +0.084 A 
ATOM     14  C   UNL     1      -3.680  -3.856   2.478  0.00  0.00    +0.146 A 
ATOM     15 CL   UNL     1      -3.471  -5.685   4.469  0.00  0.00    -0.080 Cl
ATOM     16 CL   UNL     1      -2.510  -0.411   5.131  0.00  0.00    -0.083 Cl
BRANCH  14  17
ATOM     17  O   UNL     1      -4.036  -4.896   1.677  0.00  0.00    -0.485 OA
BRANCH  17  18
ATOM     18  C   UNL     1      -2.977  -5.649   1.082  0.00  0.00    +0.266 C 
BRANCH  18  19
ATOM     19  C   UNL     1      -3.557  -6.666   0.132  0.00  0.00    +0.008 A 
ATOM     20  C   UNL     1      -4.915  -6.679  -0.122  0.00  0.00    +0.008 A 
ATOM     21  C   UNL     1      -5.447  -7.612  -0.992  0.00  0.00    +0.000 A 
ATOM     22  C   UNL     1      -4.620  -8.532  -1.609  0.00  0.00    +0.001 A 
ATOM     23  C   UNL     1      -3.261  -8.520  -1.356  0.00  0.00    +0.020 A 
ATOM     24  C   UNL     1      -2.728  -7.583  -0.489  0.00  0.00    +0.047 A 
ATOM     25 CL   UNL     1      -1.021  -7.563  -0.175  0.00  0.00    -0.083 Cl
ENDBRANCH  18  19
ENDBRANCH  17  18
ENDBRANCH  14  17
ENDBRANCH   4   9
BRANCH   3  26
ATOM     26  C   UNL     1      -5.685  -0.609   0.142  0.00  0.00    +0.054 A 
ATOM     27  C   UNL     1      -6.650  -1.608   0.159  0.00  0.00    +0.025 A 
ATOM     28  C   UNL     1      -7.982  -1.283  -0.008  0.00  0.00    +0.002 A 
ATOM     29  C   UNL     1      -8.355   0.036  -0.192  0.00  0.00    +0.000 A 
ATOM     30  C   UNL     1      -7.397   1.034  -0.210  0.00  0.00    +0.002 A 
ATOM     31  C   UNL     1      -6.064   0.717  -0.038  0.00  0.00    +0.025 A 
ENDBRANCH   3  26
BRANCH   1  33
ATOM     32  C   UNL     1      -1.458   2.168   0.196  0.00  0.00    +0.095 C 
ATOM     33  C   UNL     1      -1.082   0.710   0.143  0.00  0.00    +0.195 C 
ATOM     34  O   UNL     1       0.087   0.386   0.084  0.00  0.00    -0.289 OA
ENDBRANCH   1  33
TORSDOF 6
