REMARK  Name = ZINC67419131
REMARK  6 active torsions:
REMARK  status: ('A' for Active; 'I' for Inactive)
REMARK    1  A    between atoms: C_1  and  C_2
REMARK    2  A    between atoms: N_4  and  C_5
REMARK    3  A    between atoms: C_5  and  C_6
REMARK    4  A    between atoms: N_11  and  C_13
REMARK    5  A    between atoms: C_13  and  C_14
REMARK    6  A    between atoms: N_19  and  C_20
REMARK                            x       y       z     vdW  Elec       q    Type
REMARK                         _______ _______ _______ _____ _____    ______ ____
ROOT
ATOM      1  C   UNL     1       0.486  -6.580  -5.453  0.00  0.00    +0.204 C 
ATOM      2  O   UNL     1       0.402  -5.789  -6.369  0.00  0.00    -0.277 OA
ATOM      3  N   UNL     1       0.689  -7.887  -5.708  0.00  0.00    -0.242 N 
ATOM      4  C   UNL     1       0.799  -8.316  -6.981  0.00  0.00    +0.306 C 
ATOM      5  O   UNL     1       0.715  -7.524  -7.899  0.00  0.00    -0.252 OA
ATOM      6  N   UNL     1       1.002  -9.624  -7.237  0.00  0.00    -0.294 N 
ATOM      7  H   UNL     1       0.756  -8.520  -4.976  0.00  0.00    +0.159 HD
ATOM      8  H   UNL     1       1.069 -10.256  -6.504  0.00  0.00    +0.151 HD
ENDROOT
BRANCH   6   9
ATOM      9  C   UNL     1       1.121 -10.090  -8.620  0.00  0.00    +0.037 C 
ATOM     10  C   UNL     1       2.307  -9.394  -9.293  0.00  0.00    +0.029 C 
ATOM     11  C   UNL     1       2.432  -9.881 -10.738  0.00  0.00    -0.008 C 
ATOM     12  C   UNL     1       2.656 -11.395 -10.748  0.00  0.00    +0.007 C 
ATOM     13  C   UNL     1       1.471 -12.091 -10.076  0.00  0.00    -0.008 C 
ATOM     14  C   UNL     1       1.346 -11.604  -8.631  0.00  0.00    +0.029 C 
ATOM     15  C   UNL     1       0.186 -11.760 -10.838  0.00  0.00    +0.007 C 
ATOM     16  C   UNL     1      -0.038 -10.247 -10.828  0.00  0.00    -0.008 C 
ATOM     17  C   UNL     1       1.147  -9.551 -11.500  0.00  0.00    +0.007 C 
ATOM     18  C   UNL     1      -0.163  -9.760  -9.383  0.00  0.00    +0.029 C 
ENDBRANCH   6   9
BRANCH   1  19
ATOM     19  C   UNL     1       0.363  -6.100  -4.030  0.00  0.00    +0.019 C 
BRANCH  19  24
ATOM     20  C   UNL     1       0.013  -2.639  -2.622  0.00  0.00    -0.011 C 
ATOM     21  C   UNL     1      -1.308  -2.250  -3.292  0.00  0.00    +0.001 C 
ATOM     22  C   UNL     1      -1.337  -2.824  -4.712  0.00  0.00    -0.018 C 
ATOM     23  C   UNL     1      -1.144  -4.341  -4.646  0.00  0.00    -0.078 C 
ATOM     24  N   UNL     1       0.147  -4.647  -4.020  0.00  0.00    +0.386 N 
ATOM     25  C   UNL     1       0.157  -4.162  -2.634  0.00  0.00    -0.073 C 
ATOM     26  H   UNL     1       0.887  -4.196  -4.538  0.00  0.00    -0.081 HD
BRANCH  20  27
ATOM     27  C   UNL     1       0.020  -2.136  -1.177  0.00  0.00    +0.105 C 
BRANCH  27  31
ATOM     28  C   UNL     1      -0.018   1.503   0.010  0.00  0.00    +0.109 C 
ATOM     29  C   UNL     1       0.002  -0.004   0.002  0.00  0.00    +0.210 C 
ATOM     30  O   UNL     1       0.020  -0.616   1.049  0.00  0.00    -0.276 OA
ATOM     31  N   UNL     1       0.000  -0.672  -1.169  0.00  0.00    -0.315 N 
ATOM     32  H   UNL     1      -0.015  -0.182  -2.006  0.00  0.00    +0.149 HD
ENDBRANCH  27  31
ENDBRANCH  20  27
ENDBRANCH  19  24
ENDBRANCH   1  19
TORSDOF 5
