REMARK  Name = ZINC41058542
REMARK  6 active torsions:
REMARK  status: ('A' for Active; 'I' for Inactive)
REMARK    1  A    between atoms: C_1  and  C_2
REMARK    2  A    between atoms: C_3  and  C_17
REMARK    3  A    between atoms: C_6  and  C_7
REMARK    4  A    between atoms: C_9  and  C_13
REMARK    5  A    between atoms: C_13  and  C_14
REMARK    6  A    between atoms: C_13  and  C_15
REMARK                            x       y       z     vdW  Elec       q    Type
REMARK                         _______ _______ _______ _____ _____    ______ ____
ROOT
ATOM      1  C   UNL     1      -3.682   0.443  -2.192  0.00  0.00    +0.041 C 
ATOM      2  C   UNL     1      -2.435   1.288  -2.228  0.00  0.00    -0.046 C 
ATOM      3  C   UNL     1      -2.496   2.772  -2.525  0.00  0.00    +0.076 C 
ATOM      4  S   UNL     1      -0.721   3.246  -2.433  0.00  0.00    -0.098 S 
ATOM      5  C   UNL     1      -0.049   1.636  -2.048  0.00  0.00    +0.099 C 
ATOM      6  C   UNL     1      -1.250   0.770  -1.999  0.00  0.00    +0.052 C 
ATOM      7  N   UNL     1       1.198   1.304  -1.853  0.00  0.00    -0.292 NA
ATOM      8  C   UNL     1      -3.059   3.029  -3.924  0.00  0.00    +0.024 C 
ATOM      9  H   UNL     1       1.429   0.385  -1.650  0.00  0.00    +0.187 HD
ENDROOT
BRANCH   6  10
ATOM     10  C   UNL     1      -1.115  -0.675  -1.696  0.00  0.00    +0.184 A 
ATOM     11  N   UNL     1      -1.450  -1.680  -2.516  0.00  0.00    -0.211 NA
ATOM     12  C   UNL     1      -1.201  -2.825  -1.938  0.00  0.00    +0.128 A 
ATOM     13  N   UNL     1      -0.693  -2.580  -0.717  0.00  0.00    -0.262 N 
ATOM     14  H   UNL     1      -0.415  -3.239  -0.061  0.00  0.00    +0.190 HD
ATOM     15  N   UNL     1      -0.640  -1.184  -0.579  0.00  0.00    -0.152 NA
BRANCH  12  16
ATOM     16  C   UNL     1      -1.443  -4.187  -2.536  0.00  0.00    +0.050 C 
ATOM     17  C   UNL     1      -0.154  -4.694  -3.188  0.00  0.00    +0.015 C 
ATOM     18  C   UNL     1      -1.874  -5.159  -1.435  0.00  0.00    +0.015 C 
ENDBRANCH  12  16
ENDBRANCH   6  10
TORSDOF 2
