REMARK  Name = ZINC57153742
REMARK  8 active torsions:
REMARK  status: ('A' for Active; 'I' for Inactive)
REMARK    1  A    between atoms: C_1  and  C_2
REMARK    2  A    between atoms: C_5  and  C_22
REMARK    3  A    between atoms: C_8  and  C_21
REMARK    4  A    between atoms: C_9  and  C_11
REMARK    5  A    between atoms: N_13  and  N_14
REMARK    6  A    between atoms: N_14  and  C_15
REMARK    7  A    between atoms: C_15  and  N_17
REMARK    8  A    between atoms: N_17  and  C_18
REMARK                            x       y       z     vdW  Elec       q    Type
REMARK                         _______ _______ _______ _____ _____    ______ ____
ROOT
ATOM      1  C   UNL     1       0.070  -1.578   4.791  0.00  0.00    +0.296 C 
ATOM      2  O   UNL     1       0.063  -0.566   5.466  0.00  0.00    -0.265 OA
ATOM      3  N   UNL     1       0.091  -2.786   5.388  0.00  0.00    -0.229 N 
ATOM      4  H   UNL     1       0.097  -3.593   4.850  0.00  0.00    +0.173 HD
ENDROOT
BRANCH   1  13
ATOM      5  C   UNL     1      -0.018   1.503   0.010  0.00  0.00    +0.044 C 
ATOM      6  C   UNL     1       0.002  -0.004   0.002  0.00  0.00    -0.039 A 
ATOM      7  C   UNL     1       0.006  -0.684  -1.183  0.00  0.00    +0.004 A 
ATOM      8  C   UNL     1       0.024  -2.072  -1.198  0.00  0.00    +0.007 A 
ATOM      9  C   UNL     1       0.039  -2.789  -0.021  0.00  0.00    -0.008 A 
ATOM     10  C   UNL     1       0.036  -2.119   1.197  0.00  0.00    +0.139 A 
ATOM     11  C   UNL     1       0.023  -0.712   1.206  0.00  0.00    +0.027 A 
ATOM     12  C   UNL     1       0.031  -0.325   2.616  0.00  0.00    +0.008 A 
ATOM     13  C   UNL     1       0.054  -1.483   3.324  0.00  0.00    +0.195 A 
ATOM     14  O   UNL     1       0.047  -2.535   2.478  0.00  0.00    -0.450 OA
ATOM     15  C   UNL     1       0.018   1.076   3.171  0.00  0.00    +0.048 C 
ATOM     16  C   UNL     1       0.058  -4.295  -0.055  0.00  0.00    +0.047 C 
ENDBRANCH   1  13
BRANCH   3  17
ATOM     17  N   UNL     1       0.106  -2.876   6.786  0.00  0.00    -0.246 N 
ATOM     18  H   UNL     1       0.101  -2.069   7.324  0.00  0.00    +0.172 HD
BRANCH  17  19
ATOM     19  C   UNL     1       0.129  -4.084   7.383  0.00  0.00    +0.147 C 
ATOM     20  S   UNL     1       0.147  -4.194   9.091  0.00  0.00    -0.017 S 
BRANCH  19  21
ATOM     21  N   UNL     1       0.136  -5.205   6.635  0.00  0.00    -0.323 N 
ATOM     22  H   UNL     1       0.126  -5.143   5.667  0.00  0.00    +0.148 HD
BRANCH  21  23
ATOM     23  C   UNL     1       0.160  -6.519   7.284  0.00  0.00    +0.072 C 
ATOM     24  C   UNL     1       1.105  -7.575   6.707  0.00  0.00    +0.024 C 
ATOM     25  C   UNL     1      -0.405  -7.705   6.500  0.00  0.00    +0.024 C 
ENDBRANCH  21  23
ENDBRANCH  19  21
ENDBRANCH  17  19
ENDBRANCH   3  17
TORSDOF 5
