REMARK  Name = ZINC39980675
REMARK  6 active torsions:
REMARK  status: ('A' for Active; 'I' for Inactive)
REMARK    1  A    between atoms: C_1  and  C_2
REMARK    2  A    between atoms: C_8  and  C_14
REMARK    3  A    between atoms: C_16  and  N_26
REMARK    4  A    between atoms: C_19  and  C_25
REMARK    5  A    between atoms: N_26  and  C_27
REMARK    6  A    between atoms: C_27  and  C_28
REMARK                            x       y       z     vdW  Elec       q    Type
REMARK                         _______ _______ _______ _____ _____    ______ ____
ROOT
ATOM      1  C   UNL     1      -0.669  -1.985   4.294  0.00  0.00    +0.126 C 
ATOM      2  C   UNL     1      -1.074  -1.491   5.695  0.00  0.00    +0.050 C 
ATOM      3  N   UNL     1      -2.508  -1.186   5.553  0.00  0.00    -0.301 N 
ATOM      4  C   UNL     1      -3.403  -0.712   6.467  0.00  0.00    +0.007 C 
ATOM      5  C   UNL     1      -4.691  -0.498   6.128  0.00  0.00    +0.019 C 
ATOM      6  C   UNL     1      -5.128  -0.764   4.819  0.00  0.00    +0.005 C 
ATOM      7  C   UNL     1      -4.251  -1.235   3.899  0.00  0.00    +0.043 C 
ATOM      8  C   UNL     1      -2.894  -1.458   4.266  0.00  0.00    +0.119 C 
ATOM      9  N   UNL     1      -1.909  -1.910   3.514  0.00  0.00    -0.265 NA
ATOM     10  C   UNL     1      -2.947  -0.423   7.874  0.00  0.00    +0.061 C 
ENDROOT
BRANCH   1  18
ATOM     11  C   UNL     1       4.245  -2.692   0.684  0.00  0.00    +0.045 C 
ATOM     12  C   UNL     1       4.120  -2.294   2.132  0.00  0.00    -0.029 A 
ATOM     13  C   UNL     1       5.213  -2.329   2.938  0.00  0.00    +0.005 A 
ATOM     14  C   UNL     1       5.167  -1.974   4.286  0.00  0.00    +0.001 A 
ATOM     15  C   UNL     1       4.010  -1.568   4.871  0.00  0.00    +0.009 A 
ATOM     16  C   UNL     1       2.793  -1.506   4.061  0.00  0.00    -0.007 A 
ATOM     17  C   UNL     1       1.609  -1.105   4.605  0.00  0.00    -0.003 C 
ATOM     18  C   UNL     1       0.400  -1.072   3.692  0.00  0.00    +0.123 C 
ATOM     19  C   UNL     1       0.605  -1.486   2.252  0.00  0.00    +0.226 C 
ATOM     20  O   UNL     1      -0.331  -1.477   1.475  0.00  0.00    -0.275 OA
ATOM     21  N   UNL     1       1.806  -1.857   1.840  0.00  0.00    -0.284 N 
ATOM     22  C   UNL     1       2.873  -1.883   2.639  0.00  0.00    +0.043 A 
ATOM     23  H   UNL     1       1.916  -2.119   0.913  0.00  0.00    +0.155 HD
ENDBRANCH   1  18
BRANCH   2  24
ATOM     24  N   UNL     1      -0.863  -2.545   6.696  0.00  0.00    +0.398 N 
ATOM     25  H   UNL     1       0.097  -2.856   6.660  0.00  0.00    -0.082 HD
ATOM     26  H   UNL     1      -1.063  -2.181   7.615  0.00  0.00    -0.082 HD
BRANCH  24  27
ATOM     27  C   UNL     1      -1.756  -3.676   6.412  0.00  0.00    -0.004 C 
BRANCH  27  28
ATOM     28  C   UNL     1      -1.478  -4.792   7.386  0.00  0.00    +0.088 A 
ATOM     29  C   UNL     1      -2.079  -4.965   8.577  0.00  0.00    +0.042 A 
ATOM     30  C   UNL     1      -1.519  -6.128   9.154  0.00  0.00    +0.041 A 
ATOM     31  C   UNL     1      -0.610  -6.596   8.281  0.00  0.00    +0.195 A 
ATOM     32  O   UNL     1      -0.593  -5.787   7.209  0.00  0.00    -0.470 OA
ENDBRANCH  27  28
ENDBRANCH  24  27
ENDBRANCH   2  24
TORSDOF 4
