REMARK  Name = ZINC05123571
REMARK  6 active torsions:
REMARK  status: ('A' for Active; 'I' for Inactive)
REMARK    1  A    between atoms: C_1  and  C_2
REMARK    2  A    between atoms: C_5  and  N_8
REMARK    3  A    between atoms: C_10  and  N_15
REMARK    4  A    between atoms: N_18  and  C_19
REMARK    5  A    between atoms: C_22  and  C_26
REMARK    6  A    between atoms: C_24  and  C_25
REMARK                            x       y       z     vdW  Elec       q    Type
REMARK                         _______ _______ _______ _____ _____    ______ ____
ROOT
ATOM      1  N   UNL     1      -0.320  -7.441  -1.506  0.00  0.00    -0.294 N 
ATOM      2  C   UNL     1       0.166  -8.697  -1.572  0.00  0.00    +0.304 C 
ATOM      3  O   UNL     1       1.237  -8.962  -1.063  0.00  0.00    -0.252 OA
ATOM      4  N   UNL     1      -0.537  -9.658  -2.204  0.00  0.00    -0.269 N 
ATOM      5  H   UNL     1      -1.175  -7.229  -1.912  0.00  0.00    +0.151 HD
ATOM      6  H   UNL     1      -1.364  -9.434  -2.659  0.00  0.00    +0.156 HD
ENDROOT
BRANCH   4   7
ATOM      7  C   UNL     1      -0.074 -10.978  -2.203  0.00  0.00    +0.038 A 
ATOM      8  C   UNL     1       1.282 -11.240  -2.051  0.00  0.00    +0.024 A 
ATOM      9  C   UNL     1       1.735 -12.544  -2.045  0.00  0.00    +0.005 A 
ATOM     10  C   UNL     1       0.843 -13.589  -2.201  0.00  0.00    -0.050 A 
ATOM     11  C   UNL     1      -0.507 -13.332  -2.358  0.00  0.00    +0.008 A 
ATOM     12  C   UNL     1      -0.967 -12.029  -2.359  0.00  0.00    -0.029 A 
ATOM     13  C   UNL     1      -2.438 -11.750  -2.529  0.00  0.00    +0.045 C 
ATOM     14  C   UNL     1       1.342 -15.011  -2.201  0.00  0.00    +0.044 C 
ENDBRANCH   4   7
BRANCH   1  17
ATOM     15  N   UNL     1       0.055  -4.161  -0.043  0.00  0.00    -0.270 N 
ATOM     16  C   UNL     1      -0.037  -4.991  -1.250  0.00  0.00    +0.136 C 
ATOM     17  C   UNL     1       0.444  -6.396  -0.819  0.00  0.00    +0.101 C 
ATOM     18  C   UNL     1       0.129  -6.384   0.695  0.00  0.00    +0.120 C 
ATOM     19  C   UNL     1       0.140  -4.918   1.065  0.00  0.00    +0.222 C 
ATOM     20  O   UNL     1       0.215  -4.487   2.196  0.00  0.00    -0.275 OA
BRANCH  15  25
ATOM     21  C   UNL     1       0.029   1.512  -0.050  0.00  0.00    +0.044 C 
ATOM     22  C   UNL     1       0.036   0.005  -0.048  0.00  0.00    -0.050 A 
ATOM     23  C   UNL     1       0.059  -0.686  -1.246  0.00  0.00    +0.005 A 
ATOM     24  C   UNL     1       0.070  -2.067  -1.247  0.00  0.00    +0.024 A 
ATOM     25  C   UNL     1       0.049  -2.762  -0.045  0.00  0.00    +0.036 A 
ATOM     26  C   UNL     1       0.021  -2.064   1.156  0.00  0.00    +0.024 A 
ATOM     27  C   UNL     1       0.015  -0.683   1.151  0.00  0.00    +0.005 A 
ENDBRANCH  15  25
ENDBRANCH   1  17
TORSDOF 3
