REMARK  Name = ZINC13634657
REMARK  6 active torsions:
REMARK  status: ('A' for Active; 'I' for Inactive)
REMARK    1  A    between atoms: C_4  and  C_7
REMARK    2  A    between atoms: C_9  and  C_33
REMARK    3  A    between atoms: C_12  and  C_24
REMARK    4  A    between atoms: C_14  and  C_18
REMARK    5  A    between atoms: C_28  and  N_30
REMARK    6  A    between atoms: C_37  and  N_39
REMARK                            x       y       z     vdW  Elec       q    Type
REMARK                         _______ _______ _______ _____ _____    ______ ____
ROOT
ATOM      1  C   UNL     1       3.711  -0.707  -0.038  0.00  0.00    +0.107 C 
ATOM      2  C   UNL     1       3.817  -1.607   1.199  0.00  0.00    +0.099 C 
ATOM      3  N   UNL     1       2.802  -2.665   1.121  0.00  0.00    -0.301 NA
ATOM      4  C   UNL     1       3.056  -3.574  -0.004  0.00  0.00    +0.099 C 
ATOM      5  C   UNL     1       2.898  -2.808  -1.323  0.00  0.00    +0.107 C 
ATOM      6  C   UNL     1       3.790  -1.583  -1.270  0.00  0.00    +0.152 C 
ATOM      7  O   UNL     1       4.538  -1.315  -2.179  0.00  0.00    -0.296 OA
ATOM      8  H   UNL     1       2.742  -3.174   1.990  0.00  0.00    +0.123 HD
ENDROOT
BRANCH   1  12
ATOM      9  C   UNL     1      -0.017   1.378   0.010  0.00  0.00    +0.000 A 
ATOM     10  C   UNL     1       1.171   2.086   0.002  0.00  0.00    +0.000 A 
ATOM     11  C   UNL     1       2.377   1.411  -0.013  0.00  0.00    +0.004 A 
ATOM     12  C   UNL     1       2.396   0.029  -0.020  0.00  0.00    -0.035 A 
ATOM     13  C   UNL     1       1.208  -0.679  -0.012  0.00  0.00    +0.004 A 
ATOM     14  C   UNL     1       0.002  -0.004   0.002  0.00  0.00    +0.000 A 
ENDBRANCH   1  12
BRANCH   5  15
ATOM     15  C   UNL     1       3.311  -3.688  -2.474  0.00  0.00    -0.035 A 
ATOM     16  C   UNL     1       4.596  -4.194  -2.532  0.00  0.00    +0.004 A 
ATOM     17  C   UNL     1       4.974  -5.001  -3.588  0.00  0.00    +0.000 A 
ATOM     18  C   UNL     1       4.067  -5.303  -4.587  0.00  0.00    +0.000 A 
ATOM     19  C   UNL     1       2.781  -4.798  -4.528  0.00  0.00    +0.000 A 
ATOM     20  C   UNL     1       2.402  -3.994  -3.470  0.00  0.00    +0.004 A 
ENDBRANCH   5  15
BRANCH   4  21
ATOM     21  C   UNL     1       2.069  -4.712   0.037  0.00  0.00    -0.027 A 
ATOM     22  C   UNL     1       0.749  -4.471   0.367  0.00  0.00    +0.005 A 
ATOM     23  C   UNL     1      -0.156  -5.515   0.405  0.00  0.00    +0.003 A 
ATOM     24  C   UNL     1       0.259  -6.801   0.112  0.00  0.00    +0.033 A 
ATOM     25  C   UNL     1       1.579  -7.042  -0.219  0.00  0.00    +0.127 A 
ATOM     26  C   UNL     1       2.484  -5.996  -0.261  0.00  0.00    +0.038 A 
BRANCH  25  27
ATOM     27  N   UNL     1       2.024  -8.418  -0.533  0.00  0.00    +0.056 N 
ATOM     28  O   UNL     1       1.233  -9.332  -0.499  0.00  0.00    -0.126 OA
ATOM     29  O   UNL     1       3.179  -8.629  -0.823  0.00  0.00    -0.126 OA
ENDBRANCH  25  27
ENDBRANCH   4  21
BRANCH   2  30
ATOM     30  C   UNL     1       3.590  -0.783   2.441  0.00  0.00    -0.027 A 
ATOM     31  C   UNL     1       2.303  -0.463   2.832  0.00  0.00    +0.005 A 
ATOM     32  C   UNL     1       2.094   0.292   3.971  0.00  0.00    +0.003 A 
ATOM     33  C   UNL     1       3.173   0.728   4.718  0.00  0.00    +0.033 A 
ATOM     34  C   UNL     1       4.459   0.408   4.327  0.00  0.00    +0.127 A 
ATOM     35  C   UNL     1       4.667  -0.352   3.191  0.00  0.00    +0.038 A 
BRANCH  34  36
ATOM     36  N   UNL     1       5.614   0.875   5.127  0.00  0.00    +0.056 N 
ATOM     37  O   UNL     1       5.431   1.536   6.122  0.00  0.00    -0.126 OA
ATOM     38  O   UNL     1       6.739   0.595   4.785  0.00  0.00    -0.126 OA
ENDBRANCH  34  36
ENDBRANCH   2  30
TORSDOF 6
