REMARK  Name = ZINC13274051
REMARK  8 active torsions:
REMARK  status: ('A' for Active; 'I' for Inactive)
REMARK    1  A    between atoms: C_4  and  C_7
REMARK    2  A    between atoms: C_7  and  C_8
REMARK    3  A    between atoms: C_8  and  N_9
REMARK    4  A    between atoms: C_15  and  C_32
REMARK    5  A    between atoms: C_19  and  S_20
REMARK    6  A    between atoms: S_20  and  C_21
REMARK    7  A    between atoms: C_24  and  N_29
REMARK    8  A    between atoms: C_25  and  C_27
REMARK                            x       y       z     vdW  Elec       q    Type
REMARK                         _______ _______ _______ _____ _____    ______ ____
ROOT
ATOM      1  N   UNL     1       2.242   1.334  -0.421  0.00  0.00    -0.287 N 
ATOM      2  C   UNL     1       2.339  -0.015  -0.370  0.00  0.00    +0.262 A 
ATOM      3  O   UNL     1       3.413  -0.575  -0.493  0.00  0.00    -0.267 OA
ATOM      4  C   UNL     1       1.099  -0.780  -0.161  0.00  0.00    +0.065 A 
ATOM      5  C   UNL     1       1.101  -2.173  -0.095  0.00  0.00    +0.016 A 
ATOM      6  C   UNL     1      -0.071  -2.846   0.100  0.00  0.00    +0.016 A 
ATOM      7  C   UNL     1      -1.279  -2.150   0.235  0.00  0.00    +0.065 A 
ATOM      8  C   UNL     1      -1.304  -0.762   0.172  0.00  0.00    +0.043 A 
ATOM      9  C   UNL     1      -0.111  -0.062  -0.027  0.00  0.00    +0.080 A 
ATOM     10  N   UNL     1      -0.087   1.290  -0.095  0.00  0.00    -0.223 NA
ATOM     11  C   UNL     1       1.030   1.948  -0.282  0.00  0.00    +0.177 A 
ENDROOT
BRANCH   7  12
ATOM     12  C   UNL     1      -2.538  -2.898   0.445  0.00  0.00    +0.387 C 
ATOM     13  O   UNL     1      -3.588  -2.299   0.562  0.00  0.00    -0.241 OA
ATOM     14  O   UNL     1      -2.520  -4.243   0.506  0.00  0.00    -0.241 OA
ENDBRANCH   7  12
BRANCH   1  15
ATOM     15  C   UNL     1       3.446   2.142  -0.628  0.00  0.00    +0.132 C 
BRANCH  15  16
ATOM     16  C   UNL     1       3.667   2.355  -2.127  0.00  0.00    +0.057 C 
BRANCH  16  20
ATOM     17  C   UNL     1       7.178   4.711  -2.729  0.00  0.00    +0.000 A 
ATOM     18  C   UNL     1       7.271   3.333  -2.676  0.00  0.00    +0.000 A 
ATOM     19  C   UNL     1       6.135   2.571  -2.481  0.00  0.00    +0.004 A 
ATOM     20  C   UNL     1       4.906   3.186  -2.339  0.00  0.00    -0.046 A 
ATOM     21  C   UNL     1       4.812   4.564  -2.397  0.00  0.00    +0.004 A 
ATOM     22  C   UNL     1       5.949   5.327  -2.587  0.00  0.00    +0.000 A 
ENDBRANCH  16  20
ENDBRANCH  15  16
ENDBRANCH   1  15
BRANCH  11  23
ATOM     23  S   UNL     1       0.966   3.707  -0.357  0.00  0.00    -0.052 S 
BRANCH  23  24
ATOM     24  C   UNL     1      -0.777   3.953  -0.283  0.00  0.00    +0.016 A 
ATOM     25  C   UNL     1      -1.537   3.901  -1.447  0.00  0.00    +0.017 A 
ATOM     26  C   UNL     1      -2.905   4.088  -1.394  0.00  0.00    +0.034 A 
ATOM     27  C   UNL     1      -3.526   4.340  -0.187  0.00  0.00    +0.140 A 
ATOM     28  C   UNL     1      -2.772   4.399   0.987  0.00  0.00    +0.094 A 
ATOM     29  C   UNL     1      -1.391   4.205   0.934  0.00  0.00    +0.032 A 
BRANCH  28  30
ATOM     30  C   UNL     1      -3.433   4.668   2.280  0.00  0.00    +0.389 C 
ATOM     31  O   UNL     1      -4.645   4.722   2.343  0.00  0.00    -0.241 OA
ATOM     32  O   UNL     1      -2.693   4.852   3.391  0.00  0.00    -0.241 OA
ENDBRANCH  28  30
BRANCH  27  33
ATOM     33  N   UNL     1      -4.991   4.546  -0.137  0.00  0.00    +0.057 N 
ATOM     34  O   UNL     1      -5.737   3.740  -0.662  0.00  0.00    -0.126 OA
ATOM     35  O   UNL     1      -5.449   5.522   0.430  0.00  0.00    -0.126 OA
ENDBRANCH  27  33
ENDBRANCH  23  24
ENDBRANCH  11  23
TORSDOF 8
