REMARK  Name = ZINC32975012
REMARK  9 active torsions:
REMARK  status: ('A' for Active; 'I' for Inactive)
REMARK    1  A    between atoms: C_1  and  C_2
REMARK    2  A    between atoms: C_8  and  C_12
REMARK    3  A    between atoms: C_12  and  C_13
REMARK    4  A    between atoms: C_13  and  N_14
REMARK    5  A    between atoms: C_15  and  C_17
REMARK    6  A    between atoms: C_17  and  C_18
REMARK    7  A    between atoms: C_18  and  C_19
REMARK    8  A    between atoms: N_21  and  C_33
REMARK    9  A    between atoms: C_23  and  C_24
REMARK                            x       y       z     vdW  Elec       q    Type
REMARK                         _______ _______ _______ _____ _____    ______ ____
ROOT
ATOM      1  C   UNL     1       0.144   0.892   2.360  0.00  0.00    -0.001 A 
ATOM      2  C   UNL     1       0.884   1.567   3.266  0.00  0.00    +0.118 A 
ATOM      3  N   UNL     1       0.999   0.789   4.374  0.00  0.00    -0.239 N 
ATOM      4  N   UNL     1       0.313  -0.409   4.135  0.00  0.00    -0.166 NA
ATOM      5  C   UNL     1      -0.203  -0.352   2.925  0.00  0.00    +0.096 A 
ENDROOT
BRANCH   5   6
ATOM      6  C   UNL     1      -1.008  -1.412   2.270  0.00  0.00    +0.006 A 
ATOM      7  C   UNL     1      -2.158  -1.075   1.559  0.00  0.00    +0.014 A 
ATOM      8  C   UNL     1      -2.907  -2.062   0.951  0.00  0.00    +0.050 A 
ATOM      9  C   UNL     1      -2.520  -3.390   1.045  0.00  0.00    +0.166 A 
ATOM     10  C   UNL     1      -1.370  -3.732   1.755  0.00  0.00    +0.167 A 
ATOM     11  C   UNL     1      -0.613  -2.745   2.361  0.00  0.00    +0.059 A 
ATOM     12  O   UNL     1      -1.209  -5.086   1.698  0.00  0.00    -0.453 OA
ATOM     13  C   UNL     1      -2.040  -5.527   0.608  0.00  0.00    +0.466 C 
ATOM     14  O   UNL     1      -3.078  -4.531   0.544  0.00  0.00    -0.453 OA
ENDBRANCH   5   6
BRANCH   3  15
ATOM     15  C   UNL     1       1.687   1.124   5.548  0.00  0.00    +0.065 A 
ATOM     16  C   UNL     1       2.332   2.349   5.650  0.00  0.00    +0.028 A 
ATOM     17  C   UNL     1       3.007   2.678   6.810  0.00  0.00    +0.002 A 
ATOM     18  C   UNL     1       3.048   1.784   7.864  0.00  0.00    +0.000 A 
ATOM     19  C   UNL     1       2.411   0.561   7.763  0.00  0.00    +0.002 A 
ATOM     20  C   UNL     1       1.731   0.228   6.608  0.00  0.00    +0.028 A 
ENDBRANCH   3  15
BRANCH   1  21
ATOM     21  C   UNL     1      -0.237   1.379   0.986  0.00  0.00    +0.048 C 
BRANCH  21  22
ATOM     22  C   UNL     1       0.692   0.748  -0.054  0.00  0.00    +0.100 C 
BRANCH  22  24
ATOM     23  N   UNL     1       1.022   0.841  -2.504  0.00  0.00    -0.315 N 
ATOM     24  C   UNL     1       0.333   1.262  -1.425  0.00  0.00    +0.213 C 
ATOM     25  O   UNL     1      -0.575   2.055  -1.557  0.00  0.00    -0.276 OA
ATOM     26  H   UNL     1       1.846   0.122  -2.384  0.00  0.00    +0.149 HD
BRANCH  23  27
ATOM     27  C   UNL     1       0.674   1.341  -3.836  0.00  0.00    +0.109 C 
BRANCH  27  28
ATOM     28  C   UNL     1       1.603   0.711  -4.876  0.00  0.00    +0.056 C 
BRANCH  28  36
ATOM     29  C   UNL     1       3.734   5.655  -6.831  0.00  0.00    +0.044 C 
ATOM     30  C   UNL     1       2.816   4.548  -7.280  0.00  0.00    -0.050 A 
ATOM     31  C   UNL     1       2.229   4.607  -8.537  0.00  0.00    +0.005 A 
ATOM     32  C   UNL     1       1.387   3.605  -8.966  0.00  0.00    +0.026 A 
ATOM     33  C   UNL     1       1.121   2.522  -8.135  0.00  0.00    +0.047 A 
ATOM     34  C   UNL     1       1.713   2.470  -6.860  0.00  0.00    +0.003 A 
ATOM     35  C   UNL     1       2.568   3.493  -6.447  0.00  0.00    +0.013 A 
ATOM     36  C   UNL     1       1.244   1.225  -6.247  0.00  0.00    -0.021 A 
ATOM     37  C   UNL     1       0.431   0.632  -7.135  0.00  0.00    +0.087 A 
ATOM     38  N   UNL     1       0.345   1.392  -8.269  0.00  0.00    -0.360 N 
ATOM     39  H   UNL     1      -0.223   1.222  -9.195  0.00  0.00    +0.165 HD
ENDBRANCH  28  36
ENDBRANCH  27  28
ENDBRANCH  23  27
ENDBRANCH  22  24
ENDBRANCH  21  22
ENDBRANCH   1  21
TORSDOF 8
