REMARK  Name = ZINC55119224
REMARK  6 active torsions:
REMARK  status: ('A' for Active; 'I' for Inactive)
REMARK    1  A    between atoms: C_1  and  C_2
REMARK    2  A    between atoms: C_2  and  C_30
REMARK    3  A    between atoms: N_8  and  C_9
REMARK    4  A    between atoms: C_9  and  C_10
REMARK    5  A    between atoms: N_12  and  C_24
REMARK    6  A    between atoms: C_14  and  C_15
REMARK                            x       y       z     vdW  Elec       q    Type
REMARK                         _______ _______ _______ _____ _____    ______ ____
ROOT
ATOM      1  C   UNL     1       3.007  -0.492   2.382  0.00  0.00    +0.012 A 
ATOM      2  C   UNL     1       3.133   0.299   3.470  0.00  0.00    +0.120 A 
ATOM      3  N   UNL     1       3.399  -0.499   4.537  0.00  0.00    -0.239 N 
ATOM      4  N   UNL     1       3.437  -1.825   4.087  0.00  0.00    -0.166 NA
ATOM      5  C   UNL     1       3.196  -1.827   2.792  0.00  0.00    +0.098 A 
ENDROOT
BRANCH   5   6
ATOM      6  C   UNL     1       3.138  -3.023   1.918  0.00  0.00    +0.006 A 
ATOM      7  C   UNL     1       2.131  -3.142   0.963  0.00  0.00    +0.014 A 
ATOM      8  C   UNL     1       2.078  -4.256   0.149  0.00  0.00    +0.050 A 
ATOM      9  C   UNL     1       3.025  -5.260   0.280  0.00  0.00    +0.166 A 
ATOM     10  C   UNL     1       4.035  -5.146   1.234  0.00  0.00    +0.167 A 
ATOM     11  C   UNL     1       4.095  -4.029   2.046  0.00  0.00    +0.059 A 
ATOM     12  O   UNL     1       4.830  -6.254   1.161  0.00  0.00    -0.453 OA
ATOM     13  C   UNL     1       4.061  -7.232   0.437  0.00  0.00    +0.466 C 
ATOM     14  O   UNL     1       3.189  -6.439  -0.390  0.00  0.00    -0.453 OA
ENDBRANCH   5   6
BRANCH   3  15
ATOM     15  C   UNL     1       3.600  -0.071   5.856  0.00  0.00    +0.065 A 
ATOM     16  C   UNL     1       3.530   1.280   6.167  0.00  0.00    +0.028 A 
ATOM     17  C   UNL     1       3.729   1.699   7.468  0.00  0.00    +0.002 A 
ATOM     18  C   UNL     1       3.998   0.774   8.460  0.00  0.00    +0.000 A 
ATOM     19  C   UNL     1       4.070  -0.572   8.153  0.00  0.00    +0.002 A 
ATOM     20  C   UNL     1       3.865  -0.998   6.855  0.00  0.00    +0.028 A 
ENDBRANCH   3  15
BRANCH   1  21
ATOM     21  C   UNL     1       2.710  -0.029   0.979  0.00  0.00    +0.124 C 
BRANCH  21  29
ATOM     22  C   UNL     1       2.798  -1.180  -1.723  0.00  0.00    +0.037 C 
ATOM     23  C   UNL     1       3.623   0.024  -1.263  0.00  0.00    +0.093 C 
ATOM     24  C   UNL     1       4.896   0.090  -2.058  0.00  0.00    +0.233 C 
ATOM     25  O   UNL     1       4.845  -0.113  -3.253  0.00  0.00    -0.274 OA
ATOM     26  N   UNL     1       6.082   0.363  -1.504  0.00  0.00    -0.313 N 
ATOM     27  C   UNL     1       6.256   0.587  -0.072  0.00  0.00    +0.119 C 
ATOM     28  C   UNL     1       4.908   0.908   0.576  0.00  0.00    +0.104 C 
ATOM     29  N   UNL     1       3.931  -0.114   0.167  0.00  0.00    -0.284 NA
ATOM     30  C   UNL     1       2.819   1.306  -1.488  0.00  0.00    +0.037 C 
ATOM     31  H   UNL     1       6.861   0.414  -2.080  0.00  0.00    +0.149 HD
ENDBRANCH  21  29
ENDBRANCH   1  21
TORSDOF 4
