REMARK  Name = ZINC40094365
REMARK  17 active torsions:
REMARK  status: ('A' for Active; 'I' for Inactive)
REMARK    1  A    between atoms: C_1  and  C_2
REMARK    2  A    between atoms: C_2  and  C_3
REMARK    3  A    between atoms: C_2  and  C_4
REMARK    4  A    between atoms: C_4  and  C_5
REMARK    5  A    between atoms: C_5  and  O_6
REMARK    6  A    between atoms: O_6  and  C_7
REMARK    7  A    between atoms: C_10  and  C_15
REMARK    8  A    between atoms: C_12  and  O_13
REMARK    9  A    between atoms: O_13  and  C_14
REMARK   10  A    between atoms: C_17  and  C_29
REMARK   11  A    between atoms: N_21  and  C_22
REMARK   12  A    between atoms: C_22  and  C_23
REMARK   13  A    between atoms: C_23  and  O_24
REMARK   14  A    between atoms: O_24  and  C_25
REMARK   15  A    between atoms: C_25  and  C_26
REMARK   16  A    between atoms: C_26  and  O_27
REMARK   17  A    between atoms: C_29  and  C_31
REMARK                            x       y       z     vdW  Elec       q    Type
REMARK                         _______ _______ _______ _____ _____    ______ ____
ROOT
ATOM      1  C   UNL     1      -3.538  -7.993  -0.427  0.00  0.00    +0.145 C 
ATOM      2  C   UNL     1      -3.289  -8.752   0.855  0.00  0.00    +0.076 C 
ATOM      3  C   UNL     1      -2.362  -9.697   0.575  0.00  0.00    +0.249 C 
ATOM      4  C   UNL     1      -1.981  -9.597  -0.850  0.00  0.00    +0.288 C 
ATOM      5  O   UNL     1      -1.169 -10.309  -1.406  0.00  0.00    -0.266 OA
ATOM      6  N   UNL     1      -2.668  -8.601  -1.440  0.00  0.00    -0.281 N 
ATOM      7  O   UNL     1      -1.863 -10.592   1.459  0.00  0.00    -0.282 OA
ENDROOT
BRANCH   1  11
ATOM      8  C   UNL     1      -2.529  -3.869   0.090  0.00  0.00    +0.162 A 
ATOM      9  C   UNL     1      -1.538  -4.838   0.123  0.00  0.00    +0.050 A 
ATOM     10  C   UNL     1      -1.868  -6.170  -0.044  0.00  0.00    +0.009 A 
ATOM     11  C   UNL     1      -3.185  -6.539  -0.245  0.00  0.00    -0.019 A 
ATOM     12  C   UNL     1      -4.178  -5.578  -0.280  0.00  0.00    +0.055 A 
ATOM     13  C   UNL     1      -3.855  -4.242  -0.107  0.00  0.00    +0.162 A 
BRANCH  13  14
ATOM     14  O   UNL     1      -4.831  -3.295  -0.135  0.00  0.00    -0.491 OA
ATOM     15  C   UNL     1      -6.179  -3.757  -0.239  0.00  0.00    +0.277 C 
ENDBRANCH  13  14
BRANCH   8  16
ATOM     16  O   UNL     1      -2.206  -2.558   0.254  0.00  0.00    -0.488 OA
BRANCH  16  17
ATOM     17  C   UNL     1      -0.825  -2.250   0.452  0.00  0.00    +0.229 C 
BRANCH  17  18
ATOM     18  C   UNL     1      -0.658  -0.738   0.617  0.00  0.00    +0.044 C 
BRANCH  18  20
ATOM     19  C   UNL     1       1.004   1.111   0.868  0.00  0.00    +0.007 C 
ATOM     20  C   UNL     1       0.821  -0.408   0.828  0.00  0.00    -0.014 C 
ATOM     21  C   UNL     1       1.295  -1.014   2.151  0.00  0.00    +0.007 C 
ENDBRANCH  18  20
ENDBRANCH  17  18
ENDBRANCH  16  17
ENDBRANCH   8  16
ENDBRANCH   1  11
BRANCH   2  22
ATOM     22  C   UNL     1      -3.929  -8.512   2.152  0.00  0.00    +0.195 C 
ATOM     23  O   UNL     1      -3.252  -8.219   3.119  0.00  0.00    -0.287 OA
BRANCH  22  24
ATOM     24  C   UNL     1      -5.396  -8.626   2.285  0.00  0.00    +0.022 A 
ATOM     25  C   UNL     1      -6.165  -9.077   1.208  0.00  0.00    +0.014 A 
ATOM     26  C   UNL     1      -7.532  -9.182   1.337  0.00  0.00    +0.039 A 
ATOM     27  C   UNL     1      -8.147  -8.840   2.533  0.00  0.00    +0.123 A 
ATOM     28  C   UNL     1      -7.389  -8.392   3.605  0.00  0.00    +0.039 A 
ATOM     29  C   UNL     1      -6.020  -8.290   3.489  0.00  0.00    +0.014 A 
ATOM     30  F   UNL     1      -9.488  -8.944   2.654  0.00  0.00    -0.205 F 
ENDBRANCH  22  24
ENDBRANCH   2  22
BRANCH   6  31
ATOM     31  C   UNL     1      -2.566  -8.195  -2.844  0.00  0.00    +0.137 C 
BRANCH  31  32
ATOM     32  C   UNL     1      -1.481  -7.126  -2.989  0.00  0.00    +0.179 C 
BRANCH  32  33
ATOM     33  O   UNL     1      -0.209  -7.691  -2.665  0.00  0.00    -0.376 OA
BRANCH  33  34
ATOM     34  C   UNL     1       0.880  -6.771  -2.768  0.00  0.00    +0.187 C 
BRANCH  34  35
ATOM     35  C   UNL     1       2.184  -7.481  -2.401  0.00  0.00    +0.184 C 
BRANCH  35  36
ATOM     36  O   UNL     1       2.459  -8.501  -3.363  0.00  0.00    -0.393 OA
ATOM     37  H   UNL     1       3.273  -8.994  -3.192  0.00  0.00    +0.209 HD
ENDBRANCH  35  36
ENDBRANCH  34  35
ENDBRANCH  33  34
ENDBRANCH  32  33
ENDBRANCH  31  32
ENDBRANCH   6  31
TORSDOF 14
