REMARK  Name = ZINC39325083
REMARK  11 active torsions:
REMARK  status: ('A' for Active; 'I' for Inactive)
REMARK    1  A    between atoms: C_1  and  C_2
REMARK    2  A    between atoms: C_5  and  C_35
REMARK    3  A    between atoms: C_10  and  C_14
REMARK    4  A    between atoms: C_14  and  N_15
REMARK    5  A    between atoms: N_15  and  C_16
REMARK    6  A    between atoms: N_15  and  S_22
REMARK    7  A    between atoms: C_16  and  C_17
REMARK    8  A    between atoms: S_22  and  C_25
REMARK    9  A    between atoms: C_28  and  C_31
REMARK   10  A    between atoms: C_31  and  O_33
REMARK   11  A    between atoms: O_33  and  C_34
REMARK                            x       y       z     vdW  Elec       q    Type
REMARK                         _______ _______ _______ _____ _____    ______ ____
ROOT
ATOM      1  N   UNL     1       1.111  -1.058   5.902  0.00  0.00    -0.168 NA
ENDROOT
BRANCH   1   2
ATOM      2  S   UNL     1       0.323  -0.119   7.016  0.00  0.00    +0.061 S 
ATOM      3  O   UNL     1       0.736  -0.576   8.297  0.00  0.00    -0.153 OA
ATOM      4  O   UNL     1       0.486   1.229   6.599  0.00  0.00    -0.153 OA
BRANCH   2   5
ATOM      5  C   UNL     1      -1.396  -0.483   6.882  0.00  0.00    +0.106 A 
ATOM      6  C   UNL     1      -2.187   0.240   6.007  0.00  0.00    +0.029 A 
ATOM      7  C   UNL     1      -3.533  -0.039   5.897  0.00  0.00    +0.017 A 
ATOM      8  C   UNL     1      -4.097  -1.056   6.671  0.00  0.00    +0.059 A 
ATOM      9  C   UNL     1      -3.293  -1.782   7.551  0.00  0.00    +0.017 A 
ATOM     10  C   UNL     1      -1.947  -1.496   7.647  0.00  0.00    +0.029 A 
BRANCH   8  11
ATOM     11  C   UNL     1      -5.538  -1.361   6.558  0.00  0.00    +0.339 C 
ATOM     12  O   UNL     1      -6.236  -0.727   5.792  0.00  0.00    -0.245 OA
BRANCH  11  13
ATOM     13  O   UNL     1      -6.080  -2.342   7.306  0.00  0.00    -0.464 OA
ATOM     14  C   UNL     1      -7.479  -2.583   7.146  0.00  0.00    +0.280 C 
ENDBRANCH  11  13
ENDBRANCH   8  11
ENDBRANCH   2   5
ENDBRANCH   1   2
BRANCH   1  15
ATOM     15  C   UNL     1       1.332  -0.553   4.545  0.00  0.00    +0.126 C 
BRANCH  15  25
ATOM     16  C   UNL     1       0.498   1.474  -0.101  0.00  0.00    +0.044 C 
ATOM     17  C   UNL     1       0.309  -0.020  -0.045  0.00  0.00    -0.042 A 
ATOM     18  C   UNL     1       0.256  -0.753  -1.187  0.00  0.00    +0.004 A 
ATOM     19  C   UNL     1       0.082  -2.137  -1.155  0.00  0.00    +0.005 A 
ATOM     20  C   UNL     1      -0.045  -2.833   0.005  0.00  0.00    -0.029 A 
ATOM     21  C   UNL     1      -0.004  -2.169   1.245  0.00  0.00    +0.043 A 
ATOM     22  N   UNL     1      -0.129  -2.862   2.376  0.00  0.00    -0.284 N 
ATOM     23  C   UNL     1      -0.099  -2.301   3.574  0.00  0.00    +0.225 C 
ATOM     24  O   UNL     1      -0.218  -2.986   4.572  0.00  0.00    -0.275 OA
ATOM     25  C   UNL     1       0.083  -0.805   3.697  0.00  0.00    +0.114 C 
ATOM     26  C   UNL     1       0.226  -0.012   2.413  0.00  0.00    -0.003 C 
ATOM     27  C   UNL     1       0.185  -0.708   1.241  0.00  0.00    -0.004 A 
ATOM     28  C   UNL     1      -0.231  -4.328  -0.037  0.00  0.00    +0.045 C 
ATOM     29  H   UNL     1      -0.247  -3.823   2.319  0.00  0.00    +0.155 HD
ENDBRANCH  15  25
ENDBRANCH   1  15
BRANCH   1  30
ATOM     30  C   UNL     1       1.586  -2.393   6.274  0.00  0.00    +0.183 C 
BRANCH  30  31
ATOM     31  C   UNL     1       3.019  -2.305   6.734  0.00  0.00    +0.120 A 
ATOM     32  C   UNL     1       3.427  -2.100   7.999  0.00  0.00    +0.046 A 
ATOM     33  C   UNL     1       4.841  -2.090   7.976  0.00  0.00    +0.041 A 
ATOM     34  C   UNL     1       5.212  -2.289   6.699  0.00  0.00    +0.195 A 
ATOM     35  O   UNL     1       4.104  -2.424   5.952  0.00  0.00    -0.466 OA
ENDBRANCH  30  31
ENDBRANCH   1  30
TORSDOF 8
