REMARK  Name = ZINC65227903
REMARK  4 active torsions:
REMARK  status: ('A' for Active; 'I' for Inactive)
REMARK    1  A    between atoms: C_3  and  C_23
REMARK    2  A    between atoms: C_11  and  C_14
REMARK    3  A    between atoms: N_16  and  C_17
REMARK    4  A    between atoms: C_25  and  C_28
REMARK                            x       y       z     vdW  Elec       q    Type
REMARK                         _______ _______ _______ _____ _____    ______ ____
ROOT
ATOM      1  C   UNL     1       0.005   1.403   0.112  0.00  0.00    +0.018 A 
ATOM      2  C   UNL     1       0.644   0.965   1.261  0.00  0.00    +0.016 A 
ATOM      3  C   UNL     1       1.820   0.226   1.125  0.00  0.00    +0.060 A 
ATOM      4  C   UNL     1       2.305  -0.043  -0.162  0.00  0.00    +0.110 A 
ATOM      5  N   UNL     1       1.657   0.398  -1.228  0.00  0.00    -0.349 N 
ATOM      6  C   UNL     1       0.543   1.099  -1.123  0.00  0.00    +0.084 A 
ATOM      7  N   UNL     1       3.472  -0.775  -0.320  0.00  0.00    -0.315 N 
ATOM      8  C   UNL     1       4.783  -0.114  -0.277  0.00  0.00    +0.106 C 
ATOM      9  C   UNL     1       5.561  -0.479  -1.545  0.00  0.00    +0.020 C 
ATOM     10  C   UNL     1       5.630  -2.002  -1.675  0.00  0.00    +0.016 C 
ATOM     11  C   UNL     1       4.215  -2.570  -1.798  0.00  0.00    +0.092 C 
ATOM     12  C   UNL     1       3.421  -2.229  -0.527  0.00  0.00    +0.119 C 
ATOM     13  H   UNL     1       2.009   0.202  -2.110  0.00  0.00    +0.167 HD
ENDROOT
BRANCH   3  14
ATOM     14  C   UNL     1       2.543  -0.266   2.322  0.00  0.00    +0.205 A 
ATOM     15  N   UNL     1       2.230   0.015   3.600  0.00  0.00    -0.191 NA
ATOM     16  C   UNL     1       3.066  -0.576   4.405  0.00  0.00    +0.231 A 
ATOM     17  O   UNL     1       3.952  -1.261   3.670  0.00  0.00    -0.337 OA
ATOM     18  N   UNL     1       3.592  -1.052   2.312  0.00  0.00    -0.056 NA
BRANCH  16  19
ATOM     19  C   UNL     1       3.042  -0.501   5.910  0.00  0.00    +0.078 C 
ATOM     20  C   UNL     1       4.441  -0.447   6.546  0.00  0.00    +0.013 C 
ATOM     21  C   UNL     1       3.897  -1.390   7.632  0.00  0.00    +0.001 C 
ATOM     22  C   UNL     1       2.871  -1.868   6.592  0.00  0.00    +0.013 C 
ENDBRANCH  16  19
ENDBRANCH   3  14
BRANCH  11  23
ATOM     23  C   UNL     1       4.285  -4.066  -1.959  0.00  0.00    +0.218 C 
ATOM     24  O   UNL     1       3.751  -4.790  -1.145  0.00  0.00    -0.275 OA
ATOM     25  N   UNL     1       4.942  -4.601  -3.008  0.00  0.00    -0.312 N 
ATOM     26  H   UNL     1       5.369  -4.022  -3.659  0.00  0.00    +0.149 HD
BRANCH  25  27
ATOM     27  C   UNL     1       5.010  -6.056  -3.165  0.00  0.00    +0.073 C 
ATOM     28  C   UNL     1       6.179  -6.603  -2.343  0.00  0.00    +0.022 C 
ATOM     29  C   UNL     1       6.250  -8.122  -2.507  0.00  0.00    +0.002 C 
ATOM     30  C   UNL     1       6.460  -8.466  -3.983  0.00  0.00    +0.000 C 
ATOM     31  C   UNL     1       5.292  -7.919  -4.805  0.00  0.00    +0.002 C 
ATOM     32  C   UNL     1       5.220  -6.400  -4.641  0.00  0.00    +0.022 C 
ENDBRANCH  25  27
ENDBRANCH  11  23
TORSDOF 4
