REMARK  Name = ZINC59410553
REMARK  9 active torsions:
REMARK  status: ('A' for Active; 'I' for Inactive)
REMARK    1  A    between atoms: C_1  and  C_2
REMARK    2  A    between atoms: C_5  and  C_31
REMARK    3  A    between atoms: N_8  and  C_10
REMARK    4  A    between atoms: C_10  and  C_11
REMARK    5  A    between atoms: C_14  and  C_17
REMARK    6  A    between atoms: C_17  and  N_18
REMARK    7  A    between atoms: C_19  and  C_21
REMARK    8  A    between atoms: C_24  and  N_30
REMARK    9  A    between atoms: C_25  and  N_27
REMARK                            x       y       z     vdW  Elec       q    Type
REMARK                         _______ _______ _______ _____ _____    ______ ____
ROOT
ATOM      1  C   UNL     1       0.329   2.094   6.944  0.00  0.00    +0.139 C 
ENDROOT
BRANCH   1   5
ATOM      2  C   UNL     1       2.716   1.048   3.560  0.00  0.00    -0.064 A 
ATOM      3  C   UNL     1       3.029   2.169   4.306  0.00  0.00    +0.002 A 
ATOM      4  C   UNL     1       2.256   2.508   5.401  0.00  0.00    +0.005 A 
ATOM      5  C   UNL     1       1.171   1.726   5.750  0.00  0.00    -0.030 A 
ATOM      6  C   UNL     1       0.858   0.605   5.003  0.00  0.00    +0.005 A 
ATOM      7  C   UNL     1       1.628   0.269   3.906  0.00  0.00    +0.002 A 
BRANCH   2   8
ATOM      8  C   UNL     1       3.558   0.678   2.366  0.00  0.00    -0.043 C 
BRANCH   8  14
ATOM      9  C   UNL     1       0.984   3.035  -0.006  0.00  0.00    +0.005 C 
ATOM     10  C   UNL     1       1.081   1.540  -0.318  0.00  0.00    -0.031 C 
ATOM     11  C   UNL     1       1.981   1.330  -1.538  0.00  0.00    +0.003 C 
ATOM     12  C   UNL     1       3.395   1.815  -1.207  0.00  0.00    -0.031 C 
ATOM     13  C   UNL     1       3.908   1.069   0.027  0.00  0.00    -0.075 C 
ATOM     14  N   UNL     1       3.020   1.332   1.166  0.00  0.00    +0.383 N 
ATOM     15  C   UNL     1       1.678   0.805   0.884  0.00  0.00    -0.075 C 
ATOM     16  C   UNL     1       4.321   1.538  -2.393  0.00  0.00    +0.005 C 
ATOM     17  H   UNL     1       2.963   2.327   1.324  0.00  0.00    -0.081 HD
ENDBRANCH   8  14
ENDBRANCH   2   8
ENDBRANCH   1   5
BRANCH   1  18
ATOM     18  N   UNL     1      -0.757   2.981   6.521  0.00  0.00    -0.307 N 
ATOM     19  C   UNL     1      -1.642   3.442   7.427  0.00  0.00    +0.244 C 
ATOM     20  O   UNL     1      -1.539   3.122   8.595  0.00  0.00    -0.270 OA
ATOM     21  H   UNL     1      -0.840   3.237   5.589  0.00  0.00    +0.149 HD
BRANCH  19  22
ATOM     22  C   UNL     1      -2.736   4.335   7.001  0.00  0.00    +0.039 A 
ATOM     23  C   UNL     1      -2.860   4.700   5.657  0.00  0.00    +0.015 A 
ATOM     24  C   UNL     1      -3.882   5.532   5.262  0.00  0.00    +0.026 A 
ATOM     25  C   UNL     1      -4.792   6.013   6.200  0.00  0.00    +0.055 A 
ATOM     26  C   UNL     1      -4.671   5.652   7.539  0.00  0.00    +0.147 A 
ATOM     27  C   UNL     1      -3.655   4.814   7.939  0.00  0.00    +0.047 A 
BRANCH  26  28
ATOM     28  N   UNL     1      -5.640   6.166   8.533  0.00  0.00    +0.058 N 
ATOM     29  O   UNL     1      -5.267   6.461   9.645  0.00  0.00    -0.126 OA
ATOM     30  O   UNL     1      -6.805   6.289   8.234  0.00  0.00    -0.126 OA
ENDBRANCH  26  28
BRANCH  25  31
ATOM     31  N   UNL     1      -5.823   6.854   5.798  0.00  0.00    -0.356 N 
ATOM     32  H   UNL     1      -5.978   7.016   4.855  0.00  0.00    +0.142 HD
ATOM     33  H   UNL     1      -6.388   7.280   6.462  0.00  0.00    +0.142 HD
ENDBRANCH  25  31
ENDBRANCH  19  22
ENDBRANCH   1  18
TORSDOF 7
