REMARK  Name = ZINC13064927
REMARK  12 active torsions:
REMARK  status: ('A' for Active; 'I' for Inactive)
REMARK    1  A    between atoms: C_1  and  C_2
REMARK    2  A    between atoms: C_2  and  C_3
REMARK    3  A    between atoms: C_3  and  C_5
REMARK    4  A    between atoms: C_3  and  N_75
REMARK    5  A    between atoms: N_9  and  C_10
REMARK    6  A    between atoms: C_16  and  C_17
REMARK    7  A    between atoms: C_16  and  N_75
REMARK    8  A    between atoms: C_20  and  C_23
REMARK    9  A    between atoms: C_24  and  C_25
REMARK   10  A    between atoms: C_24  and  N_75
REMARK   11  A    between atoms: C_28  and  C_38
REMARK   12  A    between atoms: C_30  and  C_37
REMARK                            x       y       z     vdW  Elec       q    Type
REMARK                         _______ _______ _______ _____ _____    ______ ____
ROOT
ATOM      1  N   UNL     1      -0.080  -0.719   2.220  0.00  0.00    +0.392 N 
ATOM      2  H   UNL     1      -0.971  -0.527   2.693  0.00  0.00    -0.080 HD
ENDROOT
BRANCH   1   3
ATOM      3  C   UNL     1       0.982   0.093   2.852  0.00  0.00    +0.003 C 
BRANCH   3   4
ATOM      4  C   UNL     1       2.338  -0.326   2.345  0.00  0.00    +0.138 A 
ATOM      5  N   UNL     1       2.753  -1.553   2.142  0.00  0.00    -0.115 NA
ATOM      6  N   UNL     1       3.965  -1.496   1.705  0.00  0.00    -0.023 NA
ATOM      7  N   UNL     1       4.335  -0.265   1.633  0.00  0.00    -0.044 NA
ATOM      8  N   UNL     1       3.361   0.487   2.018  0.00  0.00    -0.228 N 
BRANCH   8   9
ATOM      9  C   UNL     1       3.365   1.950   2.088  0.00  0.00    +0.111 C 
ATOM     10  C   UNL     1       3.816   2.523   0.743  0.00  0.00    +0.027 C 
ATOM     11  C   UNL     1       3.821   4.051   0.815  0.00  0.00    +0.002 C 
ATOM     12  C   UNL     1       4.785   4.507   1.913  0.00  0.00    +0.000 C 
ATOM     13  C   UNL     1       4.333   3.934   3.258  0.00  0.00    +0.002 C 
ATOM     14  C   UNL     1       4.329   2.406   3.185  0.00  0.00    +0.027 C 
ENDBRANCH   8   9
ENDBRANCH   3   4
BRANCH   3  16
ATOM     15  C   UNL     1      -0.405   0.440   4.900  0.00  0.00    +0.002 C 
ATOM     16  C   UNL     1       0.920  -0.107   4.367  0.00  0.00    -0.011 C 
ENDBRANCH   3  16
ENDBRANCH   1   3
BRANCH   1  17
ATOM     17  C   UNL     1      -0.207  -0.360   0.792  0.00  0.00    -0.042 C 
BRANCH  17  18
ATOM     18  C   UNL     1      -0.888   0.980   0.688  0.00  0.00    -0.064 A 
ATOM     19  C   UNL     1      -2.268   1.053   0.652  0.00  0.00    +0.002 A 
ATOM     20  C   UNL     1      -2.893   2.283   0.561  0.00  0.00    +0.003 A 
ATOM     21  C   UNL     1      -2.138   3.439   0.497  0.00  0.00    -0.050 A 
ATOM     22  C   UNL     1      -0.758   3.365   0.528  0.00  0.00    +0.003 A 
ATOM     23  C   UNL     1      -0.133   2.136   0.623  0.00  0.00    +0.002 A 
ATOM     24  C   UNL     1      -2.819   4.779   0.393  0.00  0.00    +0.044 C 
ENDBRANCH  17  18
ENDBRANCH   1  17
BRANCH   1  25
ATOM     25  C   UNL     1       0.236  -2.156   2.354  0.00  0.00    -0.036 C 
BRANCH  25  26
ATOM     26  C   UNL     1      -1.030  -2.949   2.155  0.00  0.00    +0.001 A 
ATOM     27  C   UNL     1      -1.320  -3.463   0.934  0.00  0.00    +0.017 A 
ATOM     28  C   UNL     1      -2.558  -4.228   0.774  0.00  0.00    +0.002 A 
ATOM     29  C   UNL     1      -2.911  -4.783  -0.461  0.00  0.00    -0.041 A 
ATOM     30  C   UNL     1      -4.072  -5.492  -0.578  0.00  0.00    +0.007 A 
ATOM     31  C   UNL     1      -4.907  -5.667   0.518  0.00  0.00    -0.048 A 
ATOM     32  C   UNL     1      -4.580  -5.128   1.744  0.00  0.00    +0.029 A 
ATOM     33  C   UNL     1      -3.401  -4.403   1.887  0.00  0.00    +0.050 A 
ATOM     34  N   UNL     1      -3.049  -3.854   3.102  0.00  0.00    -0.322 N 
ATOM     35  H   UNL     1      -3.631  -3.976   3.868  0.00  0.00    +0.169 HD
ATOM     36  C   UNL     1      -1.907  -3.158   3.241  0.00  0.00    +0.251 A 
ATOM     37  O   UNL     1      -1.625  -2.691   4.331  0.00  0.00    -0.268 OA
ATOM     38  C   UNL     1      -6.184  -6.452   0.366  0.00  0.00    +0.044 C 
ATOM     39  C   UNL     1      -2.013  -4.600  -1.657  0.00  0.00    +0.044 C 
ENDBRANCH  25  26
ENDBRANCH   1  25
TORSDOF 8
