REMARK  Name = ZINC18194130
REMARK  7 active torsions:
REMARK  status: ('A' for Active; 'I' for Inactive)
REMARK    1  A    between atoms: C_4  and  N_7
REMARK    2  A    between atoms: C_8  and  C_10
REMARK    3  A    between atoms: C_14  and  N_15
REMARK    4  A    between atoms: C_16  and  C_17
REMARK    5  A    between atoms: C_20  and  O_23
REMARK    6  A    between atoms: O_23  and  C_24
REMARK    7  A    between atoms: C_24  and  C_25
REMARK                            x       y       z     vdW  Elec       q    Type
REMARK                         _______ _______ _______ _____ _____    ______ ____
ROOT
ATOM      1  C   UNL     1       5.516  -2.591   0.140  0.00  0.00    +0.073 A 
ATOM      2  C   UNL     1       6.327  -1.960   1.101  0.00  0.00    -0.023 A 
ATOM      3  C   UNL     1       7.391  -1.258   0.640  0.00  0.00    -0.004 A 
ATOM      4  S   UNL     1       7.318  -1.438  -1.122  0.00  0.00    -0.073 S 
ATOM      5  C   UNL     1       5.857  -2.461  -1.212  0.00  0.00    +0.114 A 
ATOM      6  C   UNL     1       8.399  -0.500   1.447  0.00  0.00    +0.043 C 
ATOM      7  C   UNL     1       7.847  -0.324   2.869  0.00  0.00    +0.005 C 
ATOM      8  C   UNL     1       7.319  -1.674   3.362  0.00  0.00    +0.005 C 
ATOM      9  C   UNL     1       6.047  -2.046   2.599  0.00  0.00    +0.037 C 
ENDROOT
BRANCH   1  11
ATOM     10  N   UNL     1       3.141  -2.774   0.656  0.00  0.00    -0.281 N 
ATOM     11  C   UNL     1       4.343  -3.373   0.545  0.00  0.00    +0.251 C 
ATOM     12  O   UNL     1       4.456  -4.561   0.780  0.00  0.00    -0.270 OA
ATOM     13  H   UNL     1       3.045  -1.834   0.438  0.00  0.00    +0.155 HD
BRANCH  10  17
ATOM     14  C   UNL     1      -0.164  -4.963   1.936  0.00  0.00    +0.000 A 
ATOM     15  C   UNL     1      -0.027  -3.639   2.310  0.00  0.00    +0.002 A 
ATOM     16  C   UNL     1       1.068  -2.910   1.887  0.00  0.00    +0.023 A 
ATOM     17  C   UNL     1       2.031  -3.509   1.086  0.00  0.00    +0.034 A 
ATOM     18  C   UNL     1       1.890  -4.840   0.713  0.00  0.00    +0.023 A 
ATOM     19  C   UNL     1       0.793  -5.562   1.139  0.00  0.00    +0.002 A 
ENDBRANCH  10  17
ENDBRANCH   1  11
BRANCH   5  20
ATOM     20  N   UNL     1       5.242  -2.974  -2.299  0.00  0.00    -0.247 NA
ATOM     21  C   UNL     1       5.946  -3.552  -3.237  0.00  0.00    +0.120 C 
BRANCH  21  22
ATOM     22  C   UNL     1       7.203  -4.232  -2.899  0.00  0.00    -0.007 A 
ATOM     23  C   UNL     1       8.026  -4.734  -3.915  0.00  0.00    +0.013 A 
ATOM     24  C   UNL     1       9.203  -5.370  -3.592  0.00  0.00    +0.046 A 
ATOM     25  C   UNL     1       9.574  -5.516  -2.260  0.00  0.00    +0.121 A 
ATOM     26  C   UNL     1       8.761  -5.021  -1.248  0.00  0.00    +0.046 A 
ATOM     27  C   UNL     1       7.585  -4.376  -1.560  0.00  0.00    +0.013 A 
BRANCH  25  28
ATOM     28  O   UNL     1      10.736  -6.146  -1.947  0.00  0.00    -0.487 OA
BRANCH  28  29
ATOM     29  C   UNL     1      11.057  -6.262  -0.560  0.00  0.00    +0.264 C 
BRANCH  29  30
ATOM     30  C   UNL     1      12.371  -6.984  -0.408  0.00  0.00    -0.007 A 
ATOM     31  C   UNL     1      12.393  -8.362  -0.296  0.00  0.00    +0.011 A 
ATOM     32  C   UNL     1      13.596  -9.028  -0.157  0.00  0.00    +0.050 A 
ATOM     33  C   UNL     1      14.784  -8.316  -0.128  0.00  0.00    +0.166 A 
ATOM     34  C   UNL     1      14.762  -6.928  -0.240  0.00  0.00    +0.167 A 
ATOM     35  C   UNL     1      13.553  -6.267  -0.385  0.00  0.00    +0.056 A 
ATOM     36  O   UNL     1      16.046  -6.466  -0.184  0.00  0.00    -0.453 OA
ATOM     37  C   UNL     1      16.819  -7.545   0.372  0.00  0.00    +0.466 C 
ATOM     38  O   UNL     1      16.081  -8.723  -0.002  0.00  0.00    -0.453 OA
ENDBRANCH  29  30
ENDBRANCH  28  29
ENDBRANCH  25  28
ENDBRANCH  21  22
ENDBRANCH   5  20
TORSDOF 7
