REMARK  Name = ZINC36302358
REMARK  19 active torsions:
REMARK  status: ('A' for Active; 'I' for Inactive)
REMARK    1  A    between atoms: C_1  and  C_2
REMARK    2  A    between atoms: C_3  and  C_22
REMARK    3  A    between atoms: C_4  and  O_13
REMARK    4  A    between atoms: N_5  and  C_7
REMARK    5  A    between atoms: O_13  and  C_14
REMARK    6  A    between atoms: C_17  and  O_20
REMARK    7  A    between atoms: O_20  and  C_21
REMARK    8  A    between atoms: C_22  and  N_23
REMARK    9  A    between atoms: N_23  and  C_24
REMARK   10  A    between atoms: N_23  and  C_36
REMARK   11  A    between atoms: C_24  and  C_25
REMARK   12  A    between atoms: C_25  and  C_27
REMARK   13  A    between atoms: C_25  and  O_35
REMARK   14  A    between atoms: C_27  and  O_28
REMARK   15  A    between atoms: O_28  and  C_29
REMARK   16  A    between atoms: C_29  and  C_30
REMARK   17  A    between atoms: C_36  and  C_37
REMARK   18  A    between atoms: C_37  and  C_38
REMARK   19  A    between atoms: C_37  and  C_39
REMARK                            x       y       z     vdW  Elec       q    Type
REMARK                         _______ _______ _______ _____ _____    ______ ____
ROOT
ATOM      1  C   UNL     1      -1.173   2.020   0.020  0.00  0.00    +0.068 C 
ATOM      2  C   UNL     1      -0.456   0.720   0.282  0.00  0.00    +0.065 A 
ATOM      3  C   UNL     1       0.023  -0.160  -0.694  0.00  0.00    +0.021 A 
ATOM      4  C   UNL     1       0.606  -1.211  -0.058  0.00  0.00    +0.225 A 
ATOM      5  N   UNL     1       0.494  -0.992   1.280  0.00  0.00    -0.200 N 
ATOM      6  N   UNL     1      -0.171   0.228   1.460  0.00  0.00    -0.168 NA
ENDROOT
BRANCH   5   7
ATOM      7  C   UNL     1       0.963  -1.835   2.297  0.00  0.00    +0.069 A 
ATOM      8  C   UNL     1       0.788  -3.209   2.198  0.00  0.00    +0.028 A 
ATOM      9  C   UNL     1       1.253  -4.037   3.201  0.00  0.00    +0.002 A 
ATOM     10  C   UNL     1       1.891  -3.498   4.304  0.00  0.00    +0.000 A 
ATOM     11  C   UNL     1       2.067  -2.130   4.405  0.00  0.00    +0.002 A 
ATOM     12  C   UNL     1       1.610  -1.298   3.402  0.00  0.00    +0.028 A 
ENDBRANCH   5   7
BRANCH   4  13
ATOM     13  O   UNL     1       1.192  -2.283  -0.650  0.00  0.00    -0.438 OA
BRANCH  13  14
ATOM     14  C   UNL     1       0.399  -3.330  -1.000  0.00  0.00    +0.131 A 
ATOM     15  C   UNL     1      -0.977  -3.240  -0.850  0.00  0.00    +0.050 A 
ATOM     16  C   UNL     1      -1.782  -4.305  -1.206  0.00  0.00    +0.049 A 
ATOM     17  C   UNL     1      -1.214  -5.463  -1.715  0.00  0.00    +0.120 A 
ATOM     18  C   UNL     1       0.162  -5.553  -1.866  0.00  0.00    +0.049 A 
ATOM     19  C   UNL     1       0.967  -4.487  -1.515  0.00  0.00    +0.050 A 
BRANCH  17  20
ATOM     20  O   UNL     1      -2.006  -6.512  -2.066  0.00  0.00    -0.495 OA
ATOM     21  C   UNL     1      -1.354  -7.673  -2.583  0.00  0.00    +0.277 C 
ENDBRANCH  17  20
ENDBRANCH  13  14
ENDBRANCH   4  13
BRANCH   3  22
ATOM     22  C   UNL     1      -0.089   0.024  -2.185  0.00  0.00    -0.036 C 
BRANCH  22  23
ATOM     23  N   UNL     1       1.088   0.752  -2.678  0.00  0.00    +0.384 N 
ATOM     24  H   UNL     1       1.183   1.619  -2.172  0.00  0.00    -0.081 HD
BRANCH  23  25
ATOM     25  C   UNL     1       0.924   1.035  -4.110  0.00  0.00    -0.044 C 
BRANCH  25  26
ATOM     26  C   UNL     1      -0.244   2.003  -4.308  0.00  0.00    +0.124 C 
BRANCH  26  27
ATOM     27  O   UNL     1       0.031   3.228  -3.626  0.00  0.00    -0.391 OA
ATOM     28  H   UNL     1       0.786   3.716  -3.983  0.00  0.00    +0.210 HD
ENDBRANCH  26  27
BRANCH  26  29
ATOM     29  C   UNL     1      -0.430   2.281  -5.801  0.00  0.00    +0.189 C 
BRANCH  29  30
ATOM     30  O   UNL     1      -1.591   3.091  -5.994  0.00  0.00    -0.370 OA
BRANCH  30  31
ATOM     31  C   UNL     1      -1.856   3.410  -7.362  0.00  0.00    +0.234 C 
BRANCH  31  32
ATOM     32  C   UNL     1      -3.096   4.262  -7.447  0.00  0.00    +0.130 A 
ATOM     33  C   UNL     1      -3.131   5.606  -7.406  0.00  0.00    +0.047 A 
ATOM     34  C   UNL     1      -4.489   5.984  -7.518  0.00  0.00    +0.041 A 
ATOM     35  C   UNL     1      -5.202   4.848  -7.621  0.00  0.00    +0.195 A 
ATOM     36  O   UNL     1      -4.353   3.809  -7.584  0.00  0.00    -0.465 OA
ENDBRANCH  31  32
ENDBRANCH  30  31
ENDBRANCH  29  30
ENDBRANCH  26  29
ENDBRANCH  25  26
ENDBRANCH  23  25
BRANCH  23  37
ATOM     37  C   UNL     1       2.291  -0.068  -2.476  0.00  0.00    -0.075 C 
BRANCH  37  38
ATOM     38  C   UNL     1       3.531   0.744  -2.857  0.00  0.00    -0.034 C 
ATOM     39  C   UNL     1       3.657   1.950  -1.924  0.00  0.00    +0.005 C 
ATOM     40  C   UNL     1       4.776  -0.135  -2.725  0.00  0.00    +0.005 C 
ENDBRANCH  37  38
ENDBRANCH  23  37
ENDBRANCH  22  23
ENDBRANCH   3  22
TORSDOF 15
