REMARK  Name = ZINC08705722
REMARK  10 active torsions:
REMARK  status: ('A' for Active; 'I' for Inactive)
REMARK    1  A    between atoms: C_1  and  C_2
REMARK    2  A    between atoms: C_2  and  C_3
REMARK    3  A    between atoms: C_2  and  C_4
REMARK    4  A    between atoms: C_6  and  C_33
REMARK    5  A    between atoms: C_7  and  O_32
REMARK    6  A    between atoms: C_8  and  C_10
REMARK    7  A    between atoms: N_15  and  C_18
REMARK    8  A    between atoms: N_21  and  C_26
REMARK    9  A    between atoms: C_33  and  C_34
REMARK   10  A    between atoms: C_33  and  C_35
REMARK                            x       y       z     vdW  Elec       q    Type
REMARK                         _______ _______ _______ _____ _____    ______ ____
ROOT
ATOM      1  C   UNL     1      -1.750   5.262   3.190  0.00  0.00    +0.250 C 
ATOM      2  O   UNL     1      -2.153   5.841   4.181  0.00  0.00    -0.270 OA
ATOM      3  N   UNL     1      -1.133   5.952   2.211  0.00  0.00    -0.294 N 
ATOM      4  C   UNL     1      -0.744   5.295   0.954  0.00  0.00    +0.127 C 
ATOM      5  C   UNL     1      -1.284   6.134  -0.215  0.00  0.00    +0.124 C 
ATOM      6  N   UNL     1      -0.821   7.520  -0.071  0.00  0.00    -0.324 N 
ATOM      7  C   UNL     1      -1.355   8.136   1.151  0.00  0.00    +0.124 C 
ATOM      8  C   UNL     1      -0.823   7.380   2.374  0.00  0.00    +0.127 C 
ENDROOT
BRANCH   6   9
ATOM      9  C   UNL     1      -1.147   8.271  -1.188  0.00  0.00    +0.074 A 
ATOM     10  C   UNL     1      -2.496   8.553  -1.488  0.00  0.00    +0.158 A 
ATOM     11  N   UNL     1      -2.805   9.265  -2.536  0.00  0.00    -0.170 NA
ATOM     12  N   UNL     1      -1.813   9.755  -3.392  0.00  0.00    -0.195 N 
ATOM     13  C   UNL     1      -0.512   9.505  -3.147  0.00  0.00    +0.292 A 
ATOM     14  O   UNL     1       0.349   9.935  -3.900  0.00  0.00    -0.264 OA
ATOM     15  C   UNL     1      -0.152   8.747  -2.024  0.00  0.00    +0.129 A 
ATOM     16 CL   UNL     1       1.518   8.410  -1.687  0.00  0.00    -0.076 Cl
BRANCH  12  17
ATOM     17  C   UNL     1      -2.175  10.511  -4.512  0.00  0.00    +0.069 A 
ATOM     18  C   UNL     1      -1.547  11.723  -4.767  0.00  0.00    +0.028 A 
ATOM     19  C   UNL     1      -1.903  12.464  -5.877  0.00  0.00    +0.002 A 
ATOM     20  C   UNL     1      -2.892  12.007  -6.727  0.00  0.00    +0.000 A 
ATOM     21  C   UNL     1      -3.524  10.803  -6.474  0.00  0.00    +0.002 A 
ATOM     22  C   UNL     1      -3.169  10.054  -5.369  0.00  0.00    +0.028 A 
ENDBRANCH  12  17
ENDBRANCH   6   9
BRANCH   1  27
ATOM     23  C   UNL     1      -1.061   1.634   2.522  0.00  0.00    -0.044 A 
ATOM     24  C   UNL     1      -2.290   1.064   2.814  0.00  0.00    +0.011 A 
ATOM     25  C   UNL     1      -3.345   1.853   3.228  0.00  0.00    -0.002 A 
ATOM     26  C   UNL     1      -3.179   3.224   3.354  0.00  0.00    +0.132 A 
ATOM     27  C   UNL     1      -1.938   3.804   3.060  0.00  0.00    +0.079 A 
ATOM     28  C   UNL     1      -0.878   2.994   2.647  0.00  0.00    +0.020 A 
BRANCH  23  30
ATOM     29  C   UNL     1       1.245   0.896   3.057  0.00  0.00    +0.012 C 
ATOM     30  C   UNL     1       0.082   0.761   2.072  0.00  0.00    +0.013 C 
ATOM     31  C   UNL     1       0.540   1.199   0.679  0.00  0.00    +0.012 C 
ENDBRANCH  23  30
BRANCH  25  32
ATOM     32  C   UNL     1      -4.677   1.224   3.542  0.00  0.00    +0.016 C 
ATOM     33  C   UNL     1      -5.212   0.513   2.297  0.00  0.00    +0.012 C 
ATOM     34  C   UNL     1      -4.508   0.209   4.675  0.00  0.00    +0.012 C 
ENDBRANCH  25  32
BRANCH  26  35
ATOM     35  O   UNL     1      -4.215   4.001   3.760  0.00  0.00    -0.506 OA
ATOM     36  H   UNL     1      -4.266   4.119   4.719  0.00  0.00    +0.292 HD
ENDBRANCH  26  35
ENDBRANCH   1  27
TORSDOF 6
