REMARK  Name = ZINC06779805
REMARK  7 active torsions:
REMARK  status: ('A' for Active; 'I' for Inactive)
REMARK    1  A    between atoms: C_1  and  C_2
REMARK    2  A    between atoms: C_2  and  O_3
REMARK    3  A    between atoms: O_3  and  C_4
REMARK    4  A    between atoms: C_7  and  C_10
REMARK    5  A    between atoms: C_25  and  C_35
REMARK    6  A    between atoms: C_30  and  C_34
REMARK    7  A    between atoms: C_31  and  O_33
REMARK                            x       y       z     vdW  Elec       q    Type
REMARK                         _______ _______ _______ _____ _____    ______ ____
ROOT
ATOM      1  C   UNL     1      -1.259  -4.948  -3.116  0.00  0.00    +0.009 C 
ATOM      2  C   UNL     1      -0.318  -4.032  -3.296  0.00  0.00    -0.040 C 
ATOM      3  C   UNL     1       1.105  -4.084  -2.762  0.00  0.00    +0.037 C 
ATOM      4  C   UNL     1       1.540  -2.589  -2.695  0.00  0.00    +0.005 C 
ATOM      5  C   UNL     1       0.867  -1.998  -1.453  0.00  0.00    -0.003 C 
ATOM      6  C   UNL     1       1.617  -2.473  -0.206  0.00  0.00    +0.004 C 
ATOM      7  C   UNL     1       0.943  -1.910   1.046  0.00  0.00    +0.004 C 
ATOM      8  C   UNL     1       0.967  -0.381   0.991  0.00  0.00    -0.005 C 
ATOM      9  C   UNL     1       0.303   0.188   2.246  0.00  0.00    +0.004 C 
ATOM     10  C   UNL     1      -1.145  -0.302   2.322  0.00  0.00    +0.000 C 
ATOM     11  C   UNL     1      -1.909   0.168   1.083  0.00  0.00    +0.001 C 
ATOM     12  C   UNL     1      -1.242  -0.403  -0.174  0.00  0.00    +0.007 C 
ATOM     13  C   UNL     1       0.204   0.091  -0.249  0.00  0.00    -0.026 C 
ATOM     14  C   UNL     1       0.871  -0.472  -1.506  0.00  0.00    -0.001 C 
ATOM     15  C   UNL     1       0.099  -0.007  -2.729  0.00  0.00    +0.005 C 
ATOM     16  C   UNL     1       0.816  -0.513  -3.980  0.00  0.00    +0.010 C 
ATOM     17  C   UNL     1       0.915  -2.021  -3.982  0.00  0.00    +0.001 C 
ATOM     18  C   UNL     1      -0.459  -2.734  -4.071  0.00  0.00    +0.147 C 
ATOM     19  C   UNL     1       1.771  -2.443  -5.177  0.00  0.00    +0.014 C 
ATOM     20  C   UNL     1       0.219   1.620  -0.305  0.00  0.00    +0.012 C 
ENDROOT
BRANCH   1  24
ATOM     21  C   UNL     1      -0.298  -8.648  -1.264  0.00  0.00    +0.121 A 
ATOM     22  C   UNL     1      -1.613  -8.204  -1.281  0.00  0.00    +0.046 A 
ATOM     23  C   UNL     1      -1.929  -7.003  -1.881  0.00  0.00    +0.011 A 
ATOM     24  C   UNL     1      -0.925  -6.235  -2.472  0.00  0.00    -0.025 A 
ATOM     25  C   UNL     1       0.395  -6.688  -2.457  0.00  0.00    +0.011 A 
ATOM     26  C   UNL     1       0.704  -7.886  -1.850  0.00  0.00    +0.046 A 
BRANCH  21  27
ATOM     27  O   UNL     1       0.009  -9.832  -0.671  0.00  0.00    -0.492 OA
BRANCH  27  29
ATOM     28  C   UNL     1       1.532 -11.577   0.019  0.00  0.00    +0.048 C 
ATOM     29  C   UNL     1       1.382 -10.229  -0.690  0.00  0.00    +0.225 C 
ENDBRANCH  27  29
ENDBRANCH  21  27
ENDBRANCH   1  24
BRANCH  18  30
ATOM     30  O   UNL     1      -1.472  -1.917  -3.482  0.00  0.00    -0.387 OA
ATOM     31  H   UNL     1      -2.351  -2.318  -3.483  0.00  0.00    +0.210 HD
ENDBRANCH  18  30
TORSDOF 4
