REMARK  Name = ZINC01816232
REMARK  5 active torsions:
REMARK  status: ('A' for Active; 'I' for Inactive)
REMARK    1  A    between atoms: C_1  and  C_2
REMARK    2  A    between atoms: C_5  and  N_8
REMARK    3  A    between atoms: C_18  and  S_19
REMARK    4  A    between atoms: S_19  and  C_20
REMARK    5  A    between atoms: C_20  and  C_21
REMARK                            x       y       z     vdW  Elec       q    Type
REMARK                         _______ _______ _______ _____ _____    ______ ____
ROOT
ATOM      1  C   UNL     1       0.440  -5.204   3.942  0.00  0.00    +0.151 C 
ENDROOT
BRANCH   1   2
ATOM      2  C   UNL     1       0.556  -4.542   5.290  0.00  0.00    +0.121 A 
ATOM      3  N   UNL     1       0.675  -5.313   6.390  0.00  0.00    -0.310 N 
ATOM      4  H   UNL     1       0.703  -6.279   6.301  0.00  0.00    +0.170 HD
ATOM      5  C   UNL     1       0.755  -4.749   7.615  0.00  0.00    +0.256 A 
ATOM      6  O   UNL     1       0.839  -5.440   8.617  0.00  0.00    -0.267 OA
ATOM      7  C   UNL     1       0.740  -3.348   7.706  0.00  0.00    +0.049 A 
ATOM      8  C   UNL     1       0.647  -2.609   6.541  0.00  0.00    +0.082 A 
ATOM      9  N   UNL     1       0.545  -3.239   5.360  0.00  0.00    -0.233 NA
ATOM     10  C   UNL     1       0.698  -1.132   6.618  0.00  0.00    +0.004 A 
ATOM     11  C   UNL     1       0.307  -0.350   5.534  0.00  0.00    +0.010 A 
ATOM     12  C   UNL     1       0.343   1.026   5.634  0.00  0.00    +0.001 A 
ATOM     13  C   UNL     1       0.766   1.626   6.808  0.00  0.00    +0.000 A 
ATOM     14  C   UNL     1       1.162   0.853   7.884  0.00  0.00    +0.004 A 
ATOM     15  C   UNL     1       1.139  -0.524   7.793  0.00  0.00    -0.037 A 
ATOM     16  C   UNL     1       1.615  -1.367   8.947  0.00  0.00    +0.047 C 
ATOM     17  C   UNL     1       0.807  -2.658   9.038  0.00  0.00    +0.007 C 
ATOM     18  C   UNL     1       1.448  -3.597  10.078  0.00  0.00    +0.012 C 
ATOM     19  C   UNL     1       0.658  -3.316  11.380  0.00  0.00    +0.001 C 
ATOM     20  C   UNL     1      -0.789  -3.112  10.866  0.00  0.00    +0.001 C 
ATOM     21  C   UNL     1      -0.614  -2.348   9.537  0.00  0.00    +0.012 C 
ENDBRANCH   1   2
BRANCH   1  22
ATOM     22  S   UNL     1       0.304  -3.933   2.654  0.00  0.00    -0.079 S 
BRANCH  22  33
ATOM     23  N   UNL     1       0.059  -4.171  -0.021  0.00  0.00    -0.255 N 
ATOM     24  C   UNL     1      -0.035  -4.838  -1.195  0.00  0.00    +0.267 A 
ATOM     25  O   UNL     1      -0.137  -4.242  -2.252  0.00  0.00    -0.267 OA
ATOM     26  C   UNL     1      -0.011  -6.305  -1.147  0.00  0.00    +0.065 A 
ATOM     27  C   UNL     1      -0.101  -7.081  -2.302  0.00  0.00    +0.015 A 
ATOM     28  C   UNL     1      -0.072  -8.445  -2.202  0.00  0.00    +0.001 A 
ATOM     29  C   UNL     1       0.046  -9.063  -0.963  0.00  0.00    +0.002 A 
ATOM     30  C   UNL     1       0.136  -8.327   0.184  0.00  0.00    +0.028 A 
ATOM     31  C   UNL     1       0.109  -6.931   0.115  0.00  0.00    +0.079 A 
ATOM     32  N   UNL     1       0.196  -6.163   1.226  0.00  0.00    -0.223 NA
ATOM     33  C   UNL     1       0.177  -4.855   1.158  0.00  0.00    +0.177 A 
BRANCH  23  38
ATOM     34  C   UNL     1      -0.016   1.503   0.012  0.00  0.00    +0.044 C 
ATOM     35  C   UNL     1       0.004  -0.004   0.003  0.00  0.00    -0.050 A 
ATOM     36  C   UNL     1      -1.181  -0.710   0.108  0.00  0.00    +0.005 A 
ATOM     37  C   UNL     1      -1.166  -2.091   0.100  0.00  0.00    +0.026 A 
ATOM     38  C   UNL     1       0.040  -2.771  -0.013  0.00  0.00    +0.052 A 
ATOM     39  C   UNL     1       1.228  -2.058  -0.118  0.00  0.00    +0.026 A 
ATOM     40  C   UNL     1       1.206  -0.677  -0.115  0.00  0.00    +0.005 A 
ENDBRANCH  23  38
ENDBRANCH  22  33
ENDBRANCH   1  22
TORSDOF 4
