REMARK  Name = ZINC22289537
REMARK  6 active torsions:
REMARK  status: ('A' for Active; 'I' for Inactive)
REMARK    1  A    between atoms: C_1  and  C_2
REMARK    2  A    between atoms: C_5  and  C_17
REMARK    3  A    between atoms: N_8  and  C_10
REMARK    4  A    between atoms: C_17  and  N_19
REMARK    5  A    between atoms: C_22  and  C_25
REMARK    6  A    between atoms: C_25  and  N_26
REMARK                            x       y       z     vdW  Elec       q    Type
REMARK                         _______ _______ _______ _____ _____    ______ ____
ROOT
ATOM      1  C   UNL     1       0.005  -1.883  -4.825  0.00  0.00    +0.276 C 
ATOM      2  O   UNL     1      -0.012  -0.862  -5.495  0.00  0.00    -0.267 OA
ENDROOT
BRANCH   1   7
ATOM      3  C   UNL     1      -0.018   1.503   0.010  0.00  0.00    +0.068 C 
ATOM      4  C   UNL     1       0.002  -0.004   0.002  0.00  0.00    +0.069 A 
ATOM      5  C   UNL     1       0.008  -0.828  -1.170  0.00  0.00    +0.031 A 
ATOM      6  C   UNL     1      -0.001  -0.689  -2.569  0.00  0.00    +0.032 A 
ATOM      7  C   UNL     1       0.011  -1.798  -3.357  0.00  0.00    +0.079 A 
ATOM      8  S   UNL     1       0.035  -3.125  -2.164  0.00  0.00    -0.064 S 
ATOM      9  C   UNL     1       0.029  -2.144  -0.686  0.00  0.00    +0.113 A 
ATOM     10  N   UNL     1       0.034  -2.107   0.663  0.00  0.00    -0.225 N 
ATOM     11  N   UNL     1       0.023  -0.763   1.057  0.00  0.00    -0.170 NA
BRANCH  10  12
ATOM     12  C   UNL     1       0.053  -3.217   1.518  0.00  0.00    +0.067 A 
ATOM     13  C   UNL     1      -0.617  -4.380   1.163  0.00  0.00    +0.030 A 
ATOM     14  C   UNL     1      -0.597  -5.473   2.007  0.00  0.00    +0.040 A 
ATOM     15  C   UNL     1       0.091  -5.410   3.207  0.00  0.00    +0.124 A 
ATOM     16  C   UNL     1       0.760  -4.250   3.563  0.00  0.00    +0.040 A 
ATOM     17  C   UNL     1       0.747  -3.158   2.719  0.00  0.00    +0.030 A 
ATOM     18  F   UNL     1       0.110  -6.480   4.031  0.00  0.00    -0.205 F 
ENDBRANCH  10  12
ENDBRANCH   1   7
BRANCH   1  19
ATOM     19  N   UNL     1       0.019  -3.078  -5.427  0.00  0.00    -0.152 NA
ATOM     20  C   UNL     1       0.014  -3.154  -6.755  0.00  0.00    +0.163 A 
ATOM     21  N   UNL     1       0.020  -4.268  -7.539  0.00  0.00    -0.341 N 
ATOM     22  C   UNL     1       0.012  -4.117  -8.891  0.00  0.00    +0.008 A 
ATOM     23  C   UNL     1      -0.001  -2.869  -9.369  0.00  0.00    +0.067 A 
ATOM     24  S   UNL     1      -0.010  -1.899  -7.873  0.00  0.00    -0.061 S 
ATOM     25  H   UNL     1       0.030  -5.152  -7.140  0.00  0.00    +0.167 HD
BRANCH  22  26
ATOM     26  C   UNL     1       0.019  -5.310  -9.812  0.00  0.00    -0.024 C 
BRANCH  26  27
ATOM     27  N   UNL     1       1.282  -6.044  -9.655  0.00  0.00    +0.383 N 
ATOM     28  C   UNL     1       2.396  -5.196 -10.095  0.00  0.00    -0.078 C 
ATOM     29  C   UNL     1       3.721  -5.925  -9.857  0.00  0.00    -0.019 C 
ATOM     30  C   UNL     1       3.727  -7.233 -10.652  0.00  0.00    -0.004 C 
ATOM     31  C   UNL     1       2.518  -8.077 -10.239  0.00  0.00    -0.019 C 
ATOM     32  C   UNL     1       1.238  -7.269 -10.462  0.00  0.00    -0.078 C 
ATOM     33  H   UNL     1       1.409  -6.287  -8.684  0.00  0.00    -0.081 HD
ENDBRANCH  26  27
ENDBRANCH  22  26
ENDBRANCH   1  19
TORSDOF 5
