REMARK  Name = ZINC36629504
REMARK  14 active torsions:
REMARK  status: ('A' for Active; 'I' for Inactive)
REMARK    1  A    between atoms: C_1  and  C_2
REMARK    2  A    between atoms: C_2  and  O_3
REMARK    3  A    between atoms: O_3  and  C_4
REMARK    4  A    between atoms: C_4  and  C_6
REMARK    5  A    between atoms: C_10  and  N_11
REMARK    6  A    between atoms: C_12  and  C_14
REMARK    7  A    between atoms: C_16  and  O_25
REMARK    8  A    between atoms: C_17  and  O_23
REMARK    9  A    between atoms: C_19  and  N_20
REMARK   10  A    between atoms: O_23  and  C_24
REMARK   11  A    between atoms: O_25  and  C_26
REMARK   12  A    between atoms: N_28  and  C_31
REMARK   13  A    between atoms: C_31  and  C_32
REMARK   14  A    between atoms: C_31  and  C_33
REMARK                            x       y       z     vdW  Elec       q    Type
REMARK                         _______ _______ _______ _____ _____    ______ ____
ROOT
ATOM      1  C   UNL     1      -4.203  -1.738  -0.368  0.00  0.00    +0.091 A 
ATOM      2  C   UNL     1      -5.040  -2.447  -1.316  0.00  0.00    -0.025 A 
ATOM      3  C   UNL     1      -6.256  -2.792  -0.836  0.00  0.00    -0.021 A 
ATOM      4  S   UNL     1      -6.269  -2.188   0.824  0.00  0.00    -0.079 S 
ATOM      5  C   UNL     1      -4.735  -1.508   0.894  0.00  0.00    +0.086 A 
ATOM      6  C   UNL     1      -7.326  -3.522  -1.585  0.00  0.00    -0.035 C 
ATOM      7  N   UNL     1      -7.004  -3.469  -3.023  0.00  0.00    +0.384 N 
ATOM      8  C   UNL     1      -5.614  -3.895  -3.233  0.00  0.00    -0.073 C 
ATOM      9  C   UNL     1      -4.649  -2.810  -2.742  0.00  0.00    +0.018 C 
ATOM     10  H   UNL     1      -7.121  -2.525  -3.359  0.00  0.00    -0.081 HD
ENDROOT
BRANCH   5  11
ATOM     11  N   UNL     1      -4.137  -0.864   1.965  0.00  0.00    -0.275 N 
ATOM     12  C   UNL     1      -4.804  -0.728   3.128  0.00  0.00    +0.251 C 
ATOM     13  O   UNL     1      -5.932  -1.171   3.237  0.00  0.00    -0.270 OA
ATOM     14  H   UNL     1      -3.238  -0.511   1.878  0.00  0.00    +0.156 HD
BRANCH  12  15
ATOM     15  C   UNL     1      -4.168  -0.042   4.268  0.00  0.00    +0.071 A 
ATOM     16  C   UNL     1      -2.963  -0.523   4.791  0.00  0.00    +0.064 A 
ATOM     17  C   UNL     1      -2.371   0.123   5.859  0.00  0.00    +0.162 A 
ATOM     18  C   UNL     1      -2.974   1.252   6.412  0.00  0.00    +0.164 A 
ATOM     19  C   UNL     1      -4.170   1.729   5.893  0.00  0.00    +0.082 A 
ATOM     20  C   UNL     1      -4.764   1.092   4.824  0.00  0.00    +0.142 A 
BRANCH  20  21
ATOM     21  N   UNL     1      -6.036   1.607   4.270  0.00  0.00    +0.057 N 
ATOM     22  O   UNL     1      -6.611   2.517   4.820  0.00  0.00    -0.126 OA
ATOM     23  O   UNL     1      -6.499   1.118   3.266  0.00  0.00    -0.126 OA
ENDBRANCH  20  21
BRANCH  18  24
ATOM     24  O   UNL     1      -2.391   1.886   7.462  0.00  0.00    -0.491 OA
ATOM     25  C   UNL     1      -3.063   3.036   7.980  0.00  0.00    +0.277 C 
ENDBRANCH  18  24
BRANCH  17  26
ATOM     26  O   UNL     1      -1.200  -0.342   6.370  0.00  0.00    -0.491 OA
ATOM     27  C   UNL     1      -0.638  -1.502   5.754  0.00  0.00    +0.277 C 
ENDBRANCH  17  26
ENDBRANCH  12  15
ENDBRANCH   5  11
BRANCH   7  28
ATOM     28  C   UNL     1      -7.906  -4.365  -3.759  0.00  0.00    -0.074 C 
ATOM     29  C   UNL     1      -9.357  -4.024  -3.413  0.00  0.00    -0.014 C 
ATOM     30  C   UNL     1      -7.685  -4.188  -5.263  0.00  0.00    -0.014 C 
ENDBRANCH   7  28
BRANCH   1  31
ATOM     31  C   UNL     1      -2.856  -1.290  -0.723  0.00  0.00    +0.342 C 
ATOM     32  O   UNL     1      -1.902  -2.022  -0.538  0.00  0.00    -0.245 OA
BRANCH  31  33
ATOM     33  O   UNL     1      -2.671  -0.065  -1.257  0.00  0.00    -0.461 OA
BRANCH  33  35
ATOM     34  C   UNL     1      -1.319   1.719  -2.169  0.00  0.00    +0.048 C 
ATOM     35  C   UNL     1      -1.330   0.307  -1.580  0.00  0.00    +0.229 C 
ENDBRANCH  33  35
ENDBRANCH  31  33
ENDBRANCH   1  31
TORSDOF 9
