REMARK  Name = ZINC01079809
REMARK  4 active torsions:
REMARK  status: ('A' for Active; 'I' for Inactive)
REMARK    1  A    between atoms: C_3  and  C_9
REMARK    2  A    between atoms: C_4  and  O_8
REMARK    3  A    between atoms: C_6  and  O_7
REMARK    4  A    between atoms: C_23  and  O_27
REMARK                            x       y       z     vdW  Elec       q    Type
REMARK                         _______ _______ _______ _____ _____    ______ ____
ROOT
ATOM      1  C   UNL     1       3.677   2.201  -0.022  0.00  0.00    +0.142 C 
ATOM      2  C   UNL     1       4.382   1.731   1.243  0.00  0.00    +0.053 C 
ATOM      3  C   UNL     1       5.702   1.084   0.784  0.00  0.00    +0.005 C 
ATOM      4  C   UNL     1       5.507   0.719  -0.698  0.00  0.00    +0.009 C 
ATOM      5  C   UNL     1       4.414   1.669  -1.240  0.00  0.00    +0.048 C 
ATOM      6  C   UNL     1       5.091   2.775  -2.050  0.00  0.00    +0.006 C 
ATOM      7  C   UNL     1       6.418   3.212  -1.407  0.00  0.00    +0.012 C 
ATOM      8  C   UNL     1       7.537   2.647  -2.312  0.00  0.00    +0.001 C 
ATOM      9  C   UNL     1       6.894   2.625  -3.719  0.00  0.00    +0.001 C 
ATOM     10  C   UNL     1       5.427   2.231  -3.450  0.00  0.00    +0.012 C 
ATOM     11  C   UNL     1       4.203   3.984  -2.178  0.00  0.00    +0.001 A 
ATOM     12  C   UNL     1       4.287   4.800  -3.289  0.00  0.00    +0.011 A 
ATOM     13  C   UNL     1       3.459   5.900  -3.409  0.00  0.00    +0.046 A 
ATOM     14  C   UNL     1       2.543   6.193  -2.409  0.00  0.00    +0.120 A 
ATOM     15  C   UNL     1       2.471   5.388  -1.284  0.00  0.00    +0.091 A 
ATOM     16  C   UNL     1       3.309   4.289  -1.163  0.00  0.00    +0.129 A 
ATOM     17  O   UNL     1       3.267   3.530  -0.046  0.00  0.00    -0.480 OA
ENDROOT
BRANCH   1  20
ATOM     18  C   UNL     1      -0.010   1.371  -0.185  0.00  0.00    +0.046 A 
ATOM     19  C   UNL     1       1.176   2.079  -0.193  0.00  0.00    +0.015 A 
ATOM     20  C   UNL     1       2.377   1.421  -0.013  0.00  0.00    +0.038 A 
ATOM     21  C   UNL     1       2.395   0.046   0.175  0.00  0.00    +0.127 A 
ATOM     22  C   UNL     1       1.206  -0.667   0.182  0.00  0.00    +0.091 A 
ATOM     23  C   UNL     1       0.002  -0.004   0.002  0.00  0.00    +0.120 A 
BRANCH  23  24
ATOM     24  O   UNL     1      -1.165  -0.700   0.009  0.00  0.00    -0.507 OA
ATOM     25  H   UNL     1      -1.438  -1.020  -0.862  0.00  0.00    +0.292 HD
ENDBRANCH  23  24
BRANCH  21  26
ATOM     26  O   UNL     1       3.577  -0.601   0.351  0.00  0.00    -0.506 OA
ATOM     27  H   UNL     1       3.854  -0.670   1.275  0.00  0.00    +0.292 HD
ENDBRANCH  21  26
ENDBRANCH   1  20
BRANCH  14  28
ATOM     28  O   UNL     1       1.716   7.264  -2.534  0.00  0.00    -0.507 OA
ATOM     29  H   UNL     1       0.877   7.064  -2.971  0.00  0.00    +0.292 HD
ENDBRANCH  14  28
TORSDOF 4
