REMARK  Name = ZINC53534023
REMARK  9 active torsions:
REMARK  status: ('A' for Active; 'I' for Inactive)
REMARK    1  A    between atoms: C_1  and  N_2
REMARK    2  A    between atoms: N_2  and  C_3
REMARK    3  A    between atoms: N_2  and  C_4
REMARK    4  A    between atoms: C_4  and  C_10
REMARK    5  A    between atoms: C_10  and  N_11
REMARK    6  A    between atoms: N_14  and  C_15
REMARK    7  A    between atoms: C_15  and  C_16
REMARK    8  A    between atoms: C_16  and  C_18
REMARK    9  A    between atoms: C_16  and  N_23
REMARK                            x       y       z     vdW  Elec       q    Type
REMARK                         _______ _______ _______ _____ _____    ______ ____
ROOT
ATOM      1  N   UNL     1       2.269   1.304   1.579  0.00  0.00    -0.301 N 
ATOM      2  C   UNL     1       3.465   1.923   1.618  0.00  0.00    +0.300 C 
ATOM      3  O   UNL     1       4.490   1.270   1.565  0.00  0.00    -0.253 OA
ATOM      4  N   UNL     1       3.526   3.266   1.715  0.00  0.00    -0.301 N 
ATOM      5  H   UNL     1       1.451   1.824   1.622  0.00  0.00    +0.150 HD
ATOM      6  H   UNL     1       2.708   3.787   1.758  0.00  0.00    +0.150 HD
ENDROOT
BRANCH   1   7
ATOM      7  C   UNL     1       2.203  -0.156   1.474  0.00  0.00    +0.094 C 
BRANCH   7   8
ATOM      8  C   UNL     1       0.745  -0.609   1.572  0.00  0.00    -0.050 C 
ATOM      9  C   UNL     1       0.680  -2.137   1.512  0.00  0.00    -0.010 C 
ATOM     10  C   UNL     1       1.277  -2.621   0.189  0.00  0.00    -0.001 C 
ATOM     11  C   UNL     1       0.480  -2.031  -0.976  0.00  0.00    -0.000 C 
ATOM     12  C   UNL     1       0.544  -0.503  -0.916  0.00  0.00    -0.001 C 
ATOM     13  C   UNL     1      -0.052  -0.019   0.407  0.00  0.00    -0.010 C 
BRANCH   8  15
ATOM     14  C   UNL     1      -1.234  -0.563   2.928  0.00  0.00    -0.096 C 
ATOM     15  N   UNL     1       0.172  -0.144   2.842  0.00  0.00    +0.381 N 
ATOM     16  C   UNL     1       0.925  -0.726   3.961  0.00  0.00    -0.096 C 
ATOM     17  H   UNL     1       0.227   0.862   2.887  0.00  0.00    -0.082 HD
ENDBRANCH   8  15
ENDBRANCH   7   8
ENDBRANCH   1   7
BRANCH   4  18
ATOM     18  C   UNL     1       4.826   3.939   1.757  0.00  0.00    +0.098 C 
BRANCH  18  19
ATOM     19  C   UNL     1       4.618   5.436   2.000  0.00  0.00    +0.016 C 
BRANCH  19  20
ATOM     20  N   UNL     1       5.914   6.125   1.945  0.00  0.00    +0.387 N 
ATOM     21  C   UNL     1       6.478   6.047   0.573  0.00  0.00    -0.078 C 
ATOM     22  C   UNL     1       7.474   7.233   0.531  0.00  0.00    -0.020 C 
ATOM     23  C   UNL     1       6.745   8.326   1.345  0.00  0.00    -0.020 C 
ATOM     24  C   UNL     1       5.737   7.567   2.226  0.00  0.00    -0.078 C 
ATOM     25  H   UNL     1       6.554   5.717   2.609  0.00  0.00    -0.081 HD
ENDBRANCH  19  20
BRANCH  19  26
ATOM     26  C   UNL     1       3.996   5.643   3.357  0.00  0.00    +0.093 A 
ATOM     27  C   UNL     1       2.692   5.868   3.598  0.00  0.00    +0.043 A 
ATOM     28  C   UNL     1       2.552   6.002   4.999  0.00  0.00    +0.041 A 
ATOM     29  C   UNL     1       3.779   5.851   5.529  0.00  0.00    +0.195 A 
ATOM     30  O   UNL     1       4.648   5.628   4.530  0.00  0.00    -0.469 OA
ENDBRANCH  19  26
ENDBRANCH  18  19
ENDBRANCH   4  18
TORSDOF 7
