REMARK  Name = ZINC09365853
REMARK  7 active torsions:
REMARK  status: ('A' for Active; 'I' for Inactive)
REMARK    1  A    between atoms: C_1  and  C_2
REMARK    2  A    between atoms: C_2  and  C_4
REMARK    3  A    between atoms: C_2  and  S_16
REMARK    4  A    between atoms: S_16  and  C_17
REMARK    5  A    between atoms: C_20  and  C_29
REMARK    6  A    between atoms: N_21  and  C_22
REMARK    7  A    between atoms: C_22  and  C_23
REMARK                            x       y       z     vdW  Elec       q    Type
REMARK                         _______ _______ _______ _____ _____    ______ ____
ROOT
ATOM      1  C   UNL     1      -0.701  -6.990  -0.905  0.00  0.00    +0.193 A 
ATOM      2  N   UNL     1       0.328  -7.650  -0.424  0.00  0.00    -0.122 NA
ATOM      3  N   UNL     1       0.112  -8.915  -0.490  0.00  0.00    -0.128 NA
ATOM      4  C   UNL     1      -1.065  -9.141  -1.025  0.00  0.00    +0.165 A 
ATOM      5  N   UNL     1      -1.622  -7.915  -1.308  0.00  0.00    -0.300 N 
ENDROOT
BRANCH   4   6
ATOM      6  C   UNL     1      -1.677 -10.463  -1.277  0.00  0.00    +0.019 A 
ATOM      7  C   UNL     1      -1.180 -11.599  -0.635  0.00  0.00    +0.013 A 
ATOM      8  C   UNL     1      -1.758 -12.829  -0.870  0.00  0.00    +0.021 A 
ATOM      9  C   UNL     1      -2.823 -12.940  -1.749  0.00  0.00    +0.041 A 
ATOM     10  C   UNL     1      -3.316 -11.818  -2.393  0.00  0.00    +0.021 A 
ATOM     11  C   UNL     1      -2.750 -10.582  -2.162  0.00  0.00    +0.013 A 
ATOM     12 CL   UNL     1      -3.541 -14.493  -2.045  0.00  0.00    -0.084 Cl
ENDBRANCH   4   6
BRANCH   1  13
ATOM     13  S   UNL     1      -0.861  -5.239  -1.018  0.00  0.00    -0.075 S 
BRANCH  13  15
ATOM     14  C   UNL     1       0.773  -5.149   1.170  0.00  0.00    +0.027 C 
ATOM     15  C   UNL     1       0.723  -4.733  -0.301  0.00  0.00    +0.117 C 
BRANCH  15  16
ATOM     16  C   UNL     1       0.865  -3.236  -0.406  0.00  0.00    +0.124 A 
ATOM     17  N   UNL     1      -0.264  -2.485  -0.480  0.00  0.00    -0.309 N 
ATOM     18  H   UNL     1      -1.132  -2.918  -0.466  0.00  0.00    +0.170 HD
ATOM     19  C   UNL     1      -0.190  -1.137  -0.575  0.00  0.00    +0.259 A 
ATOM     20  O   UNL     1      -1.194  -0.451  -0.642  0.00  0.00    -0.267 OA
ATOM     21  C   UNL     1       1.151  -0.532  -0.593  0.00  0.00    +0.065 A 
ATOM     22  C   UNL     1       1.337   0.845  -0.688  0.00  0.00    +0.015 A 
ATOM     23  C   UNL     1       2.615   1.358  -0.702  0.00  0.00    +0.001 A 
ATOM     24  C   UNL     1       3.716   0.514  -0.622  0.00  0.00    +0.002 A 
ATOM     25  C   UNL     1       3.553  -0.849  -0.527  0.00  0.00    +0.028 A 
ATOM     26  C   UNL     1       2.267  -1.393  -0.511  0.00  0.00    +0.078 A 
ATOM     27  N   UNL     1       2.061  -2.731  -0.420  0.00  0.00    -0.233 NA
ENDBRANCH  15  16
ENDBRANCH  13  15
ENDBRANCH   1  13
BRANCH   5  28
ATOM     28  C   UNL     1      -2.930  -7.656  -1.914  0.00  0.00    +0.157 C 
BRANCH  28  29
ATOM     29  C   UNL     1      -2.759  -7.424  -3.417  0.00  0.00    +0.138 C 
ATOM     30  C   UNL     1      -4.133  -7.145  -4.063  0.00  0.00    +0.035 C 
ATOM     31  C   UNL     1      -4.025  -7.910  -5.411  0.00  0.00    +0.031 C 
ATOM     32  C   UNL     1      -3.155  -9.122  -4.991  0.00  0.00    +0.160 C 
ATOM     33  O   UNL     1      -2.222  -8.601  -4.032  0.00  0.00    -0.375 OA
ENDBRANCH  28  29
ENDBRANCH   5  28
TORSDOF 6
