REMARK  Name = ZINC14994860
REMARK  8 active torsions:
REMARK  status: ('A' for Active; 'I' for Inactive)
REMARK    1  A    between atoms: C_1  and  N_2
REMARK    2  A    between atoms: N_2  and  C_3
REMARK    3  A    between atoms: C_3  and  C_4
REMARK    4  A    between atoms: C_9  and  C_11
REMARK    5  A    between atoms: C_15  and  C_20
REMARK    6  A    between atoms: C_20  and  O_34
REMARK    7  A    between atoms: C_25  and  C_26
REMARK    8  A    between atoms: C_25  and  N_60
REMARK                            x       y       z     vdW  Elec       q    Type
REMARK                         _______ _______ _______ _____ _____    ______ ____
ROOT
ATOM      1  C   UNL     1      -1.666   5.850  -0.455  0.00  0.00    +0.191 A 
ATOM      2  C   UNL     1      -2.288   4.660  -0.660  0.00  0.00    +0.063 A 
ATOM      3  C   UNL     1      -1.227   3.687  -0.915  0.00  0.00    +0.021 A 
ATOM      4  C   UNL     1      -1.208   2.319  -1.197  0.00  0.00    +0.018 A 
ATOM      5  C   UNL     1      -0.013   1.683  -1.387  0.00  0.00    -0.015 A 
ATOM      6  C   UNL     1       1.180   2.390  -1.312  0.00  0.00    +0.010 A 
ATOM      7  C   UNL     1       1.182   3.741  -1.040  0.00  0.00    +0.047 A 
ATOM      8  C   UNL     1      -0.021   4.408  -0.837  0.00  0.00    +0.136 A 
ATOM      9  O   UNL     1      -0.330   5.690  -0.562  0.00  0.00    -0.450 OA
ENDROOT
BRANCH   5  10
ATOM     10  C   UNL     1       0.010   0.207  -1.687  0.00  0.00    +0.088 C 
ATOM     11  C   UNL     1       0.101  -0.580  -0.377  0.00  0.00    +0.021 C 
ATOM     12  C   UNL     1       0.186  -2.076  -0.690  0.00  0.00    -0.075 C 
ATOM     13  C   UNL     1       1.279  -1.629  -2.807  0.00  0.00    -0.075 C 
ATOM     14  C   UNL     1       1.227  -0.120  -2.556  0.00  0.00    +0.021 C 
ATOM     15  N   UNL     1       1.392  -2.327  -1.508  0.00  0.00    +0.383 N 
ATOM     16  H   UNL     1       2.214  -1.970  -1.008  0.00  0.00    -0.081 HD
BRANCH  10  17
ATOM     17  O   UNL     1      -1.185  -0.158  -2.381  0.00  0.00    -0.384 OA
ATOM     18  H   UNL     1      -1.997   0.020  -1.887  0.00  0.00    +0.211 HD
ENDBRANCH  10  17
BRANCH  15  19
ATOM     19  C   UNL     1       1.558  -3.779  -1.729  0.00  0.00    -0.040 C 
BRANCH  19  20
ATOM     20  C   UNL     1       1.399  -4.499  -0.414  0.00  0.00    -0.026 A 
ATOM     21  C   UNL     1       0.248  -5.220  -0.156  0.00  0.00    +0.005 A 
ATOM     22  C   UNL     1       0.101  -5.881   1.049  0.00  0.00    +0.003 A 
ATOM     23  C   UNL     1       1.104  -5.822   1.998  0.00  0.00    +0.041 A 
ATOM     24  C   UNL     1       2.257  -5.102   1.743  0.00  0.00    +0.159 A 
ATOM     25  C   UNL     1       2.408  -4.443   0.531  0.00  0.00    +0.160 A 
ATOM     26  F   UNL     1       3.535  -3.743   0.277  0.00  0.00    -0.202 F 
ATOM     27  F   UNL     1       3.239  -5.044   2.670  0.00  0.00    -0.202 F 
ENDBRANCH  19  20
ENDBRANCH  15  19
ENDBRANCH   5  10
BRANCH   1  30
ATOM     28  C   UNL     1      -0.159   8.152   0.145  0.00  0.00    +0.133 C 
ATOM     29  N   UNL     1      -1.623   8.212   0.159  0.00  0.00    -0.292 N 
ATOM     30  C   UNL     1      -2.345   7.120  -0.161  0.00  0.00    +0.282 C 
ATOM     31  O   UNL     1      -3.559   7.185  -0.206  0.00  0.00    -0.267 OA
BRANCH  29  32
ATOM     32  C   UNL     1      -2.301   9.459   0.521  0.00  0.00    +0.163 C 
BRANCH  32  33
ATOM     33  C   UNL     1      -2.537   9.489   2.009  0.00  0.00    +0.066 A 
ATOM     34  C   UNL     1      -1.658  10.105   2.840  0.00  0.00    +0.071 A 
ATOM     35  S   UNL     1      -2.446   9.822   4.419  0.00  0.00    -0.084 S 
ATOM     36  C   UNL     1      -3.816   8.932   3.830  0.00  0.00    +0.156 A 
ATOM     37  N   UNL     1      -3.598   8.913   2.536  0.00  0.00    -0.251 NA
ENDBRANCH  32  33
ENDBRANCH  29  32
ENDBRANCH   1  30
TORSDOF 7
