REMARK  Name = ZINC40036893
REMARK  8 active torsions:
REMARK  status: ('A' for Active; 'I' for Inactive)
REMARK    1  A    between atoms: C_1  and  C_2
REMARK    2  A    between atoms: C_2  and  C_3
REMARK    3  A    between atoms: C_3  and  O_4
REMARK    4  A    between atoms: O_4  and  C_5
REMARK    5  A    between atoms: C_10  and  C_11
REMARK    6  A    between atoms: N_12  and  N_13
REMARK    7  A    between atoms: N_20  and  C_21
REMARK    8  A    between atoms: C_21  and  C_22
REMARK                            x       y       z     vdW  Elec       q    Type
REMARK                         _______ _______ _______ _____ _____    ______ ____
ROOT
ATOM      1  N   UNL     1      -0.552  -4.939   0.620  0.00  0.00    -0.206 N 
ATOM      2  C   UNL     1      -1.324  -4.354   1.590  0.00  0.00    +0.219 A 
ATOM      3  N   UNL     1      -1.703  -3.100   1.442  0.00  0.00    -0.214 NA
ATOM      4  C   UNL     1      -2.451  -2.494   2.369  0.00  0.00    +0.084 A 
ATOM      5  C   UNL     1      -2.870  -3.198   3.488  0.00  0.00    +0.050 A 
ATOM      6  C   UNL     1      -2.460  -4.529   3.641  0.00  0.00    +0.260 A 
ATOM      7  O   UNL     1      -2.799  -5.177   4.619  0.00  0.00    -0.267 OA
ATOM      8  N   UNL     1      -1.686  -5.082   2.682  0.00  0.00    -0.280 N 
ATOM      9  C   UNL     1      -3.771  -2.551   4.503  0.00  0.00    +0.007 C 
ATOM     10  C   UNL     1      -5.226  -2.676   4.044  0.00  0.00    +0.012 C 
ATOM     11  C   UNL     1      -6.146  -2.026   5.079  0.00  0.00    +0.001 C 
ATOM     12  C   UNL     1      -5.978  -2.731   6.426  0.00  0.00    +0.000 C 
ATOM     13  C   UNL     1      -4.524  -2.612   6.886  0.00  0.00    +0.001 C 
ATOM     14  C   UNL     1      -3.607  -3.264   5.850  0.00  0.00    +0.012 C 
ATOM     15  C   UNL     1      -3.417  -1.074   4.669  0.00  0.00    +0.047 C 
ATOM     16  C   UNL     1      -3.346  -0.391   3.330  0.00  0.00    -0.037 A 
ATOM     17  C   UNL     1      -2.862  -1.080   2.219  0.00  0.00    +0.004 A 
ATOM     18  C   UNL     1      -2.771  -0.439   0.986  0.00  0.00    +0.010 A 
ATOM     19  C   UNL     1      -3.176   0.875   0.867  0.00  0.00    +0.001 A 
ATOM     20  C   UNL     1      -3.670   1.551   1.968  0.00  0.00    +0.000 A 
ATOM     21  C   UNL     1      -3.754   0.921   3.196  0.00  0.00    +0.004 A 
ATOM     22  H   UNL     1      -0.342  -5.884   0.672  0.00  0.00    +0.177 HD
ENDROOT
BRANCH   1  24
ATOM     23  C   UNL     1       0.560  -4.747  -1.427  0.00  0.00    +0.142 C 
ATOM     24  N   UNL     1      -0.067  -4.172  -0.447  0.00  0.00    -0.187 NA
BRANCH  23  30
ATOM     25  C   UNL     1       1.259  -2.534  -2.338  0.00  0.00    +0.129 A 
ATOM     26  C   UNL     1       1.880  -1.775  -3.316  0.00  0.00    +0.046 A 
ATOM     27  C   UNL     1       2.446  -2.391  -4.416  0.00  0.00    +0.004 A 
ATOM     28  C   UNL     1       2.397  -3.768  -4.550  0.00  0.00    +0.001 A 
ATOM     29  C   UNL     1       1.783  -4.539  -3.585  0.00  0.00    +0.013 A 
ATOM     30  C   UNL     1       1.213  -3.929  -2.465  0.00  0.00    +0.036 A 
BRANCH  25  31
ATOM     31  O   UNL     1       0.703  -1.929  -1.256  0.00  0.00    -0.491 OA
BRANCH  31  32
ATOM     32  C   UNL     1       0.902  -0.520  -1.127  0.00  0.00    +0.229 C 
BRANCH  32  34
ATOM     33  C   UNL     1       0.440   1.478   0.301  0.00  0.00    +0.007 C 
ATOM     34  C   UNL     1       0.340  -0.047   0.215  0.00  0.00    +0.038 C 
ENDBRANCH  32  34
ENDBRANCH  31  32
ENDBRANCH  25  31
ENDBRANCH  23  30
ENDBRANCH   1  24
BRANCH   8  35
ATOM     35  C   UNL     1      -1.230  -6.467   2.820  0.00  0.00    +0.125 C 
ATOM     36  C   UNL     1       0.107  -6.493   3.563  0.00  0.00    +0.027 C 
ENDBRANCH   8  35
TORSDOF 6
