REMARK  Name = ZINC36586085
REMARK  20 active torsions:
REMARK  status: ('A' for Active; 'I' for Inactive)
REMARK    1  A    between atoms: C_1  and  C_2
REMARK    2  A    between atoms: C_2  and  C_3
REMARK    3  A    between atoms: C_2  and  C_4
REMARK    4  A    between atoms: C_2  and  C_5
REMARK    5  A    between atoms: C_5  and  C_6
REMARK    6  A    between atoms: C_6  and  C_7
REMARK    7  A    between atoms: C_6  and  C_8
REMARK    8  A    between atoms: C_6  and  N_9
REMARK    9  A    between atoms: C_10  and  C_12
REMARK   10  A    between atoms: C_12  and  C_14
REMARK   11  A    between atoms: C_12  and  N_23
REMARK   12  A    between atoms: C_15  and  O_22
REMARK   13  A    between atoms: C_17  and  O_21
REMARK   14  A    between atoms: C_19  and  O_20
REMARK   15  A    between atoms: N_23  and  C_34
REMARK   16  A    between atoms: C_24  and  C_26
REMARK   17  A    between atoms: C_27  and  C_28
REMARK   18  A    between atoms: C_34  and  C_35
REMARK   19  A    between atoms: C_34  and  C_36
REMARK   20  A    between atoms: C_34  and  C_37
REMARK                            x       y       z     vdW  Elec       q    Type
REMARK                         _______ _______ _______ _____ _____    ______ ____
ROOT
ATOM      1  C   UNL     1       2.632   0.793  -3.967  0.00  0.00    +0.201 C 
ENDROOT
BRANCH   1   2
ATOM      2  C   UNL     1       1.728  -0.379  -4.251  0.00  0.00    +0.065 A 
ATOM      3  C   UNL     1       2.240  -1.667  -4.240  0.00  0.00    +0.129 A 
ATOM      4  C   UNL     1       1.409  -2.746  -4.500  0.00  0.00    +0.091 A 
ATOM      5  C   UNL     1       0.065  -2.536  -4.771  0.00  0.00    +0.124 A 
ATOM      6  C   UNL     1      -0.447  -1.248  -4.781  0.00  0.00    +0.091 A 
ATOM      7  C   UNL     1       0.383  -0.169  -4.516  0.00  0.00    +0.129 A 
BRANCH   7   8
ATOM      8  O   UNL     1      -0.120   1.093  -4.522  0.00  0.00    -0.506 OA
ATOM      9  H   UNL     1      -0.084   1.527  -5.385  0.00  0.00    +0.292 HD
ENDBRANCH   7   8
BRANCH   5  10
ATOM     10  O   UNL     1      -0.750  -3.593  -5.028  0.00  0.00    -0.507 OA
ATOM     11  H   UNL     1      -1.170  -3.966  -4.240  0.00  0.00    +0.292 HD
ENDBRANCH   5  10
BRANCH   3  12
ATOM     12  O   UNL     1       3.557  -1.873  -3.974  0.00  0.00    -0.506 OA
ATOM     13  H   UNL     1       3.744  -2.081  -3.048  0.00  0.00    +0.292 HD
ENDBRANCH   3  12
ENDBRANCH   1   2
BRANCH   1  15
ATOM     14  N   UNL     1       3.743   0.159  -1.850  0.00  0.00    -0.308 N 
ATOM     15  C   UNL     1       3.832   0.325  -3.185  0.00  0.00    +0.239 C 
ATOM     16  O   UNL     1       4.877   0.098  -3.756  0.00  0.00    -0.273 OA
ATOM     17  H   UNL     1       2.907   0.341  -1.393  0.00  0.00    +0.149 HD
BRANCH  14  18
ATOM     18  C   UNL     1       4.910  -0.296  -1.090  0.00  0.00    +0.030 C 
ATOM     19  C   UNL     1       6.113   0.587  -1.426  0.00  0.00    +0.031 C 
ATOM     20  C   UNL     1       5.223  -1.748  -1.457  0.00  0.00    +0.031 C 
BRANCH  18  21
ATOM     21  C   UNL     1       4.610  -0.202   0.408  0.00  0.00    +0.031 C 
BRANCH  21  23
ATOM     22  C   UNL     1       2.334   0.827   0.450  0.00  0.00    +0.010 C 
ATOM     23  C   UNL     1       3.824   1.079   0.691  0.00  0.00    -0.036 C 
ATOM     24  C   UNL     1       4.309   2.192  -0.239  0.00  0.00    +0.010 C 
ATOM     25  C   UNL     1       4.041   1.500   2.146  0.00  0.00    +0.010 C 
ENDBRANCH  21  23
ENDBRANCH  18  21
ENDBRANCH  14  18
ENDBRANCH   1  15
BRANCH   1  26
ATOM     26  N   UNL     1       3.074   1.386  -5.232  0.00  0.00    -0.270 N 
ATOM     27  C   UNL     1       2.989   0.676  -6.375  0.00  0.00    +0.293 C 
ATOM     28  O   UNL     1       2.596  -0.475  -6.348  0.00  0.00    -0.260 OA
BRANCH  26  29
ATOM     29  C   UNL     1       3.609   2.749  -5.255  0.00  0.00    +0.031 C 
ATOM     30  C   UNL     1       3.392   3.405  -3.890  0.00  0.00    +0.031 C 
ATOM     31  C   UNL     1       5.107   2.704  -5.566  0.00  0.00    +0.031 C 
ATOM     32  C   UNL     1       2.888   3.562  -6.332  0.00  0.00    +0.031 C 
ENDBRANCH  26  29
BRANCH  27  33
ATOM     33  C   UNL     1       3.361   1.277  -7.620  0.00  0.00    -0.003 C 
ATOM     34  C   UNL     1       3.666   1.770  -8.641  0.00  0.00    -0.057 C 
BRANCH  34  35
ATOM     35  C   UNL     1       4.039   2.370  -9.887  0.00  0.00    +0.025 A 
ATOM     36  C   UNL     1       4.497   3.691  -9.921  0.00  0.00    +0.017 A 
ATOM     37  C   UNL     1       4.854   4.263 -11.124  0.00  0.00    +0.001 A 
ATOM     38  C   UNL     1       4.759   3.533 -12.296  0.00  0.00    +0.000 A 
ATOM     39  C   UNL     1       4.306   2.225 -12.270  0.00  0.00    +0.001 A 
ATOM     40  C   UNL     1       3.951   1.637 -11.074  0.00  0.00    +0.017 A 
ENDBRANCH  34  35
ENDBRANCH  27  33
ENDBRANCH   1  26
TORSDOF 12
