REMARK  Name = ZINC12659894
REMARK  12 active torsions:
REMARK  status: ('A' for Active; 'I' for Inactive)
REMARK    1  A    between atoms: C_1  and  C_2
REMARK    2  A    between atoms: C_6  and  C_8
REMARK    3  A    between atoms: C_8  and  C_10
REMARK    4  A    between atoms: C_8  and  C_11
REMARK    5  A    between atoms: C_13  and  O_40
REMARK    6  A    between atoms: C_18  and  C_39
REMARK    7  A    between atoms: C_28  and  C_38
REMARK    8  A    between atoms: C_31  and  O_34
REMARK    9  A    between atoms: O_34  and  C_35
REMARK   10  A    between atoms: C_35  and  C_37
REMARK   11  A    between atoms: O_40  and  C_41
REMARK   12  A    between atoms: C_41  and  C_43
REMARK                            x       y       z     vdW  Elec       q    Type
REMARK                         _______ _______ _______ _____ _____    ______ ____
ROOT
ATOM      1  C   UNL     1       3.120  -3.237  -2.975  0.00  0.00    +0.044 C 
ATOM      2  C   UNL     1       4.494  -3.061  -2.298  0.00  0.00    +0.181 C 
ATOM      3  C   UNL     1       4.778  -1.546  -2.316  0.00  0.00    +0.049 C 
ATOM      4  C   UNL     1       3.377  -0.879  -2.269  0.00  0.00    +0.003 C 
ATOM      5  C   UNL     1       2.459  -1.861  -3.002  0.00  0.00    -0.022 C 
ATOM      6  C   UNL     1       1.013  -1.827  -2.586  0.00  0.00    +0.007 C 
ATOM      7  C   UNL     1       0.790  -1.658  -1.087  0.00  0.00    +0.005 C 
ATOM      8  C   UNL     1       1.523  -0.391  -0.640  0.00  0.00    +0.003 C 
ATOM      9  C   UNL     1       3.020  -0.625  -0.812  0.00  0.00    +0.000 C 
ATOM     10  C   UNL     1       3.462  -1.775   0.089  0.00  0.00    +0.031 C 
ATOM     11  C   UNL     1       3.032  -1.497   1.502  0.00  0.00    -0.027 C 
ATOM     12  C   UNL     1       2.024  -0.734   1.804  0.00  0.00    -0.064 C 
ATOM     13  C   UNL     1       1.173  -0.025   0.791  0.00  0.00    -0.008 C 
ATOM     14  C   UNL     1      -0.302  -0.310   1.073  0.00  0.00    +0.015 C 
ATOM     15  C   UNL     1      -0.645  -0.019   2.533  0.00  0.00    +0.046 C 
ATOM     16  C   UNL     1       0.196  -0.901   3.456  0.00  0.00    +0.180 C 
ATOM     17  C   UNL     1       1.678  -0.555   3.273  0.00  0.00    +0.075 C 
ATOM     18  C   UNL     1       1.406   1.484   0.945  0.00  0.00    +0.016 C 
ATOM     19  C   UNL     1       2.469  -1.418  -4.493  0.00  0.00    +0.012 C 
ENDROOT
BRANCH   1  20
ATOM     20  C   UNL     1       2.298  -4.299  -2.256  0.00  0.00    +0.035 C 
ATOM     21  C   UNL     1       3.153  -5.550  -2.046  0.00  0.00    +0.014 C 
BRANCH  20  26
ATOM     22  C   UNL     1      -2.192  -5.659  -5.586  0.00  0.00    +0.009 C 
ATOM     23  C   UNL     1      -0.902  -5.601  -4.766  0.00  0.00    +0.005 C 
ATOM     24  C   UNL     1      -1.243  -5.474  -3.275  0.00  0.00    +0.011 C 
ATOM     25  C   UNL     1       0.066  -5.562  -2.481  0.00  0.00    +0.049 C 
ATOM     26  C   UNL     1       1.091  -4.649  -3.087  0.00  0.00    -0.008 C 
ATOM     27  C   UNL     1      -0.083  -4.377  -5.179  0.00  0.00    +0.115 C 
ATOM     28  N   UNL     1       1.095  -4.097  -4.275  0.00  0.00    -0.390 N 
ATOM     29  H   UNL     1       1.869  -3.496  -4.580  0.00  0.00    +0.159 HD
ENDBRANCH  20  26
ENDBRANCH   1  20
BRANCH  16  30
ATOM     30  O   UNL     1      -0.189  -0.668   4.836  0.00  0.00    -0.461 OA
BRANCH  30  31
ATOM     31  C   UNL     1      -0.055  -1.696   5.688  0.00  0.00    +0.304 C 
ATOM     32  O   UNL     1       0.372  -2.755   5.294  0.00  0.00    -0.251 OA
ATOM     33  C   UNL     1      -0.435  -1.528   7.137  0.00  0.00    +0.136 C 
ENDBRANCH  30  31
ENDBRANCH  16  30
BRANCH   2  34
ATOM     34  O   UNL     1       5.513  -3.767  -3.057  0.00  0.00    -0.461 OA
BRANCH  34  35
ATOM     35  C   UNL     1       6.561  -4.247  -2.370  0.00  0.00    +0.304 C 
ATOM     36  O   UNL     1       6.626  -4.083  -1.175  0.00  0.00    -0.251 OA
ATOM     37  C   UNL     1       7.658  -4.989  -3.089  0.00  0.00    +0.136 C 
ENDBRANCH  34  35
ENDBRANCH   2  34
TORSDOF 6
