REMARK  Name = ZINC36187357
REMARK  11 active torsions:
REMARK  status: ('A' for Active; 'I' for Inactive)
REMARK    1  A    between atoms: C_1  and  C_2
REMARK    2  A    between atoms: C_5  and  S_7
REMARK    3  A    between atoms: S_7  and  C_8
REMARK    4  A    between atoms: C_11  and  C_17
REMARK    5  A    between atoms: C_13  and  N_14
REMARK    6  A    between atoms: C_17  and  O_19
REMARK    7  A    between atoms: O_19  and  C_20
REMARK    8  A    between atoms: C_20  and  C_21
REMARK    9  A    between atoms: N_23  and  C_24
REMARK   10  A    between atoms: C_29  and  O_30
REMARK   11  A    between atoms: O_30  and  C_31
REMARK                            x       y       z     vdW  Elec       q    Type
REMARK                         _______ _______ _______ _____ _____    ______ ____
ROOT
ATOM      1  C   UNL     1       0.298  -8.746   0.384  0.00  0.00    +0.340 C 
ATOM      2  O   UNL     1       0.249  -9.685   1.153  0.00  0.00    -0.245 OA
ENDROOT
BRANCH   1   6
ATOM      3  C   UNL     1       0.195  -4.782   1.870  0.00  0.00    +0.045 A 
ATOM      4  C   UNL     1       0.286  -5.008   0.498  0.00  0.00    +0.018 A 
ATOM      5  C   UNL     1       0.319  -6.285   0.016  0.00  0.00    +0.016 A 
ATOM      6  C   UNL     1       0.263  -7.367   0.901  0.00  0.00    +0.061 A 
ATOM      7  C   UNL     1       0.172  -7.137   2.277  0.00  0.00    +0.048 A 
ATOM      8  C   UNL     1       0.144  -5.857   2.754  0.00  0.00    +0.141 A 
BRANCH   8   9
ATOM      9  N   UNL     1       0.055  -5.612   4.211  0.00  0.00    +0.058 N 
ATOM     10  O   UNL     1       0.011  -6.545   4.979  0.00  0.00    -0.126 OA
ATOM     11  O   UNL     1       0.025  -4.480   4.633  0.00  0.00    -0.126 OA
ENDBRANCH   8   9
BRANCH   3  12
ATOM     12  S   UNL     1       0.151  -3.132   2.488  0.00  0.00    -0.061 S 
BRANCH  12  17
ATOM     13  C   UNL     1      -4.015  -0.630   4.463  0.00  0.00    +0.066 C 
ATOM     14  C   UNL     1      -3.379  -1.814   3.782  0.00  0.00    +0.047 A 
ATOM     15  C   UNL     1      -4.110  -2.893   3.409  0.00  0.00    +0.070 A 
ATOM     16  S   UNL     1      -2.843  -3.920   2.683  0.00  0.00    -0.069 S 
ATOM     17  C   UNL     1      -1.538  -2.885   2.925  0.00  0.00    +0.139 A 
ATOM     18  N   UNL     1      -2.086  -1.844   3.516  0.00  0.00    -0.238 NA
ENDBRANCH  12  17
ENDBRANCH   3  12
ENDBRANCH   1   6
BRANCH   1  19
ATOM     19  O   UNL     1       0.385  -8.967  -0.943  0.00  0.00    -0.452 OA
BRANCH  19  20
ATOM     20  C   UNL     1       0.415 -10.329  -1.374  0.00  0.00    +0.328 C 
BRANCH  20  21
ATOM     21  C   UNL     1       0.513 -10.378  -2.877  0.00  0.00    +0.255 C 
ATOM     22  O   UNL     1       0.553  -9.348  -3.517  0.00  0.00    -0.272 OA
ATOM     23  N   UNL     1       0.556 -11.567  -3.511  0.00  0.00    -0.280 N 
ATOM     24  H   UNL     1       0.446 -12.389  -3.008  0.00  0.00    +0.155 HD
BRANCH  23  25
ATOM     25  C   UNL     1       0.759 -11.615  -4.897  0.00  0.00    +0.076 A 
ATOM     26  C   UNL     1       1.401 -10.568  -5.542  0.00  0.00    +0.027 A 
ATOM     27  C   UNL     1       1.601 -10.618  -6.909  0.00  0.00    +0.002 A 
ATOM     28  C   UNL     1       1.162 -11.710  -7.636  0.00  0.00    +0.004 A 
ATOM     29  C   UNL     1       0.521 -12.756  -6.999  0.00  0.00    +0.048 A 
ATOM     30  C   UNL     1       0.322 -12.716  -5.629  0.00  0.00    +0.148 A 
BRANCH  30  31
ATOM     31  O   UNL     1      -0.303 -13.748  -5.001  0.00  0.00    -0.432 OA
BRANCH  31  32
ATOM     32  C   UNL     1      -0.724 -14.844  -5.815  0.00  0.00    +0.541 C 
ATOM     33  F   UNL     1      -1.629 -14.388  -6.780  0.00  0.00    -0.166 F 
ATOM     34  F   UNL     1       0.388 -15.409  -6.448  0.00  0.00    -0.166 F 
ENDBRANCH  31  32
ENDBRANCH  30  31
ENDBRANCH  23  25
ENDBRANCH  20  21
ENDBRANCH  19  20
ENDBRANCH   1  19
TORSDOF 10
