REMARK  Name = ZINC60365269
REMARK  7 active torsions:
REMARK  status: ('A' for Active; 'I' for Inactive)
REMARK    1  A    between atoms: C_1  and  C_2
REMARK    2  A    between atoms: C_6  and  N_12
REMARK    3  A    between atoms: C_7  and  C_8
REMARK    4  A    between atoms: N_10  and  C_11
REMARK    5  A    between atoms: C_13  and  C_15
REMARK    6  A    between atoms: C_16  and  C_25
REMARK    7  A    between atoms: C_21  and  C_24
REMARK                            x       y       z     vdW  Elec       q    Type
REMARK                         _______ _______ _______ _____ _____    ______ ____
ROOT
ATOM      1  N   UNL     1       0.051  -2.828   2.382  0.00  0.00    -0.278 N 
ATOM      2  C   UNL     1      -0.033  -4.173   2.363  0.00  0.00    +0.284 C 
ATOM      3  O   UNL     1      -0.030  -4.768   1.302  0.00  0.00    -0.266 OA
ATOM      4  H   UNL     1       0.115  -2.358   3.228  0.00  0.00    +0.155 HD
ENDROOT
BRANCH   2   5
ATOM      5  C   UNL     1      -0.128  -4.921   3.624  0.00  0.00    +0.194 A 
ATOM      6  C   UNL     1      -0.212  -6.273   3.727  0.00  0.00    +0.008 A 
ATOM      7  C   UNL     1      -0.286  -6.566   5.158  0.00  0.00    +0.024 A 
ATOM      8  C   UNL     1      -0.386  -7.742   5.907  0.00  0.00    +0.012 A 
ATOM      9  C   UNL     1      -0.438  -7.673   7.270  0.00  0.00    +0.001 A 
ATOM     10  C   UNL     1      -0.392  -6.444   7.915  0.00  0.00    +0.007 A 
ATOM     11  C   UNL     1      -0.293  -5.274   7.195  0.00  0.00    -0.008 A 
ATOM     12  C   UNL     1      -0.239  -5.318   5.806  0.00  0.00    +0.139 A 
ATOM     13  O   UNL     1      -0.140  -4.369   4.856  0.00  0.00    -0.450 OA
ATOM     14  C   UNL     1      -0.245  -3.949   7.910  0.00  0.00    +0.047 C 
ATOM     15  C   UNL     1      -0.226  -7.268   2.596  0.00  0.00    +0.048 C 
ENDBRANCH   2   5
BRANCH   1  21
ATOM     16  C   UNL     1      -1.232   1.202  -0.167  0.00  0.00    +0.044 C 
ATOM     17  C   UNL     1      -0.571  -0.149  -0.084  0.00  0.00    -0.037 A 
ATOM     18  C   UNL     1       0.037  -0.690  -1.196  0.00  0.00    +0.004 A 
ATOM     19  C   UNL     1       0.647  -1.931  -1.127  0.00  0.00    +0.002 A 
ATOM     20  C   UNL     1       0.654  -2.642   0.057  0.00  0.00    +0.024 A 
ATOM     21  C   UNL     1       0.046  -2.113   1.188  0.00  0.00    +0.046 A 
ATOM     22  C   UNL     1      -0.568  -0.853   1.123  0.00  0.00    +0.061 A 
BRANCH  22  23
ATOM     23  C   UNL     1      -1.210  -0.278   2.319  0.00  0.00    +0.246 C 
ATOM     24  O   UNL     1      -2.384  -0.501   2.546  0.00  0.00    -0.270 OA
ATOM     25  N   UNL     1      -0.497   0.496   3.161  0.00  0.00    -0.314 N 
ATOM     26  C   UNL     1      -1.136   1.067   4.349  0.00  0.00    +0.128 C 
ATOM     27  H   UNL     1       0.439   0.674   2.981  0.00  0.00    +0.149 HD
ENDBRANCH  22  23
ENDBRANCH   1  21
TORSDOF 3
