REMARK  Name = ZINC38889365
REMARK  12 active torsions:
REMARK  status: ('A' for Active; 'I' for Inactive)
REMARK    1  A    between atoms: C_1  and  C_2
REMARK    2  A    between atoms: C_2  and  O_3
REMARK    3  A    between atoms: O_3  and  C_4
REMARK    4  A    between atoms: C_7  and  N_10
REMARK    5  A    between atoms: N_10  and  C_11
REMARK    6  A    between atoms: C_11  and  C_12
REMARK    7  A    between atoms: C_17  and  C_24
REMARK    8  A    between atoms: C_25  and  C_27
REMARK    9  A    between atoms: C_30  and  C_33
REMARK   10  A    between atoms: C_33  and  C_34
REMARK   11  A    between atoms: C_33  and  C_35
REMARK   12  A    between atoms: C_33  and  C_36
REMARK                            x       y       z     vdW  Elec       q    Type
REMARK                         _______ _______ _______ _____ _____    ______ ____
ROOT
ATOM      1  N   UNL     1       0.477  -5.882  -2.041  0.00  0.00    -0.266 N 
ATOM      2  C   UNL     1       0.390  -6.664  -0.946  0.00  0.00    +0.251 C 
ATOM      3  O   UNL     1       0.395  -6.162   0.161  0.00  0.00    -0.270 OA
ENDROOT
BRANCH   1   7
ATOM      4  C   UNL     1       0.657  -1.737  -1.633  0.00  0.00    +0.121 A 
ATOM      5  C   UNL     1       0.906  -2.553  -0.538  0.00  0.00    +0.047 A 
ATOM      6  C   UNL     1       0.847  -3.926  -0.673  0.00  0.00    +0.027 A 
ATOM      7  C   UNL     1       0.537  -4.490  -1.903  0.00  0.00    +0.037 A 
ATOM      8  C   UNL     1       0.288  -3.673  -2.998  0.00  0.00    +0.027 A 
ATOM      9  C   UNL     1       0.342  -2.300  -2.861  0.00  0.00    +0.047 A 
BRANCH   4  10
ATOM     10  O   UNL     1       0.716  -0.385  -1.500  0.00  0.00    -0.492 OA
BRANCH  10  12
ATOM     11  C   UNL     1       1.064   1.655  -0.252  0.00  0.00    +0.048 C 
ATOM     12  C   UNL     1       1.046   0.126  -0.206  0.00  0.00    +0.225 C 
ENDBRANCH  10  12
ENDBRANCH   4  10
ENDBRANCH   1   7
BRANCH   2  13
ATOM     13  C   UNL     1       0.287  -8.131  -1.092  0.00  0.00    +0.037 A 
ATOM     14  C   UNL     1       0.853  -8.767  -2.199  0.00  0.00    +0.013 A 
ATOM     15  C   UNL     1       0.753 -10.137  -2.330  0.00  0.00    +0.005 A 
ATOM     16  C   UNL     1       0.095 -10.880  -1.367  0.00  0.00    -0.042 A 
ATOM     17  C   UNL     1      -0.468 -10.257  -0.267  0.00  0.00    +0.005 A 
ATOM     18  C   UNL     1      -0.370  -8.888  -0.121  0.00  0.00    +0.013 A 
BRANCH  16  19
ATOM     19  C   UNL     1      -0.011 -12.376  -1.516  0.00  0.00    -0.013 C 
ATOM     20  C   UNL     1       1.392 -12.985  -1.560  0.00  0.00    +0.015 C 
ATOM     21  C   UNL     1      -0.780 -12.955  -0.327  0.00  0.00    +0.015 C 
ATOM     22  C   UNL     1      -0.752 -12.708  -2.813  0.00  0.00    +0.015 C 
ENDBRANCH  16  19
ENDBRANCH   2  13
BRANCH   1  23
ATOM     23  C   UNL     1       0.510  -6.489  -3.374  0.00  0.00    +0.131 C 
BRANCH  23  24
ATOM     24  C   UNL     1       1.953  -6.532  -3.880  0.00  0.00    +0.116 C 
ATOM     25  C   UNL     1       1.976  -7.357  -5.151  0.00  0.00    -0.003 C 
ATOM     26  C   UNL     1       2.449  -6.754  -6.279  0.00  0.00    -0.007 A 
ATOM     27  C   UNL     1       2.507  -7.478  -7.549  0.00  0.00    +0.012 A 
ATOM     28  C   UNL     1       2.986  -6.838  -8.647  0.00  0.00    -0.050 A 
ATOM     29  C   UNL     1       3.421  -5.514  -8.583  0.00  0.00    +0.005 A 
ATOM     30  C   UNL     1       3.394  -4.788  -7.435  0.00  0.00    +0.024 A 
ATOM     31  C   UNL     1       2.915  -5.357  -6.241  0.00  0.00    +0.040 A 
ATOM     32  N   UNL     1       2.892  -4.635  -5.121  0.00  0.00    -0.284 N 
ATOM     33  C   UNL     1       2.456  -5.109  -3.966  0.00  0.00    +0.226 C 
ATOM     34  O   UNL     1       2.460  -4.401  -2.977  0.00  0.00    -0.275 OA
ATOM     35  C   UNL     1       3.051  -7.573  -9.961  0.00  0.00    +0.044 C 
ATOM     36  H   UNL     1       3.211  -3.720  -5.155  0.00  0.00    +0.155 HD
ENDBRANCH  23  24
ENDBRANCH   1  23
TORSDOF 7
