REMARK  Name = ZINC14014295
REMARK  9 active torsions:
REMARK  status: ('A' for Active; 'I' for Inactive)
REMARK    1  A    between atoms: C_1  and  C_2
REMARK    2  A    between atoms: C_5  and  N_9
REMARK    3  A    between atoms: C_6  and  C_8
REMARK    4  A    between atoms: C_21  and  C_23
REMARK    5  A    between atoms: C_23  and  C_24
REMARK    6  A    between atoms: N_26  and  C_27
REMARK    7  A    between atoms: C_32  and  C_33
REMARK    8  A    between atoms: C_33  and  O_35
REMARK    9  A    between atoms: O_35  and  C_36
REMARK                            x       y       z     vdW  Elec       q    Type
REMARK                         _______ _______ _______ _____ _____    ______ ____
ROOT
ATOM      1  N   UNL     1      -1.094  -0.405   0.230  0.00  0.00    -0.214 N 
ATOM      2  C   UNL     1      -2.375   0.054   0.276  0.00  0.00    +0.171 A 
ATOM      3  C   UNL     1      -3.211  -1.074   0.243  0.00  0.00    +0.103 A 
ATOM      4  C   UNL     1      -2.372  -2.207   0.175  0.00  0.00    +0.150 A 
ATOM      5  N   UNL     1      -1.132  -1.803   0.162  0.00  0.00    -0.172 NA
ATOM      6  C   UNL     1      -4.609  -0.886   0.279  0.00  0.00    +0.266 A 
ATOM      7  O   UNL     1      -5.355  -1.849   0.251  0.00  0.00    -0.267 OA
ATOM      8  N   UNL     1      -5.127   0.383   0.346  0.00  0.00    -0.283 N 
ATOM      9  C   UNL     1      -4.240   1.421   0.374  0.00  0.00    +0.174 A 
ATOM     10  N   UNL     1      -2.936   1.266   0.342  0.00  0.00    -0.203 NA
ATOM     11  S   UNL     1      -5.204   2.916   0.460  0.00  0.00    -0.085 S 
ATOM     12  C   UNL     1      -6.883   2.188   0.461  0.00  0.00    +0.103 C 
ATOM     13  C   UNL     1      -6.556   0.690   0.389  0.00  0.00    +0.112 C 
ENDROOT
BRANCH   1  18
ATOM     14  C   UNL     1       3.592   2.795   0.277  0.00  0.00    +0.044 C 
ATOM     15  C   UNL     1       2.348   1.946   0.265  0.00  0.00    -0.050 A 
ATOM     16  C   UNL     1       1.321   2.239  -0.614  0.00  0.00    +0.005 A 
ATOM     17  C   UNL     1       0.179   1.462  -0.628  0.00  0.00    +0.028 A 
ATOM     18  C   UNL     1       0.063   0.385   0.242  0.00  0.00    +0.071 A 
ATOM     19  C   UNL     1       1.095   0.094   1.123  0.00  0.00    -0.025 A 
ATOM     20  C   UNL     1       2.235   0.875   1.132  0.00  0.00    +0.008 A 
ATOM     21  C   UNL     1       0.973  -1.073   2.069  0.00  0.00    +0.046 C 
ENDBRANCH   1  18
BRANCH  13  22
ATOM     22  C   UNL     1      -7.165   0.000   1.611  0.00  0.00    +0.122 C 
BRANCH  22  23
ATOM     23  C   UNL     1      -8.661   0.177   1.595  0.00  0.00    +0.219 C 
ATOM     24  O   UNL     1      -9.198   0.711   0.648  0.00  0.00    -0.275 OA
ATOM     25  N   UNL     1      -9.402  -0.258   2.633  0.00  0.00    -0.285 N 
ATOM     26  H   UNL     1      -8.984  -0.754   3.353  0.00  0.00    +0.155 HD
BRANCH  25  27
ATOM     27  C   UNL     1     -10.769   0.005   2.671  0.00  0.00    +0.047 A 
ATOM     28  C   UNL     1     -11.288   1.101   1.996  0.00  0.00    +0.024 A 
ATOM     29  C   UNL     1     -12.643   1.360   2.035  0.00  0.00    +0.002 A 
ATOM     30  C   UNL     1     -13.496   0.530   2.746  0.00  0.00    +0.001 A 
ATOM     31  C   UNL     1     -12.999  -0.562   3.422  0.00  0.00    +0.017 A 
ATOM     32  C   UNL     1     -11.630  -0.841   3.387  0.00  0.00    +0.080 A 
BRANCH  32  33
ATOM     33  C   UNL     1     -11.093  -2.012   4.103  0.00  0.00    +0.341 C 
ATOM     34  O   UNL     1      -9.893  -2.199   4.148  0.00  0.00    -0.245 OA
BRANCH  33  35
ATOM     35  O   UNL     1     -11.933  -2.875   4.708  0.00  0.00    -0.464 OA
ATOM     36  C   UNL     1     -11.334  -4.006   5.394  0.00  0.00    +0.280 C 
ENDBRANCH  33  35
ENDBRANCH  32  33
ENDBRANCH  25  27
ENDBRANCH  22  23
ENDBRANCH  13  22
TORSDOF 6
