REMARK  Name = ZINC33921362
REMARK  6 active torsions:
REMARK  status: ('A' for Active; 'I' for Inactive)
REMARK    1  A    between atoms: C_1  and  C_2
REMARK    2  A    between atoms: C_10  and  O_38
REMARK    3  A    between atoms: N_22  and  N_23
REMARK    4  A    between atoms: C_24  and  C_26
REMARK    5  A    between atoms: C_28  and  N_35
REMARK    6  A    between atoms: C_30  and  N_32
REMARK                            x       y       z     vdW  Elec       q    Type
REMARK                         _______ _______ _______ _____ _____    ______ ____
ROOT
ATOM      1  C   UNL     1      -0.019   1.523   0.010  0.00  0.00    +0.018 C 
ATOM      2  C   UNL     1       0.002  -0.004   0.002  0.00  0.00    +0.011 C 
ATOM      3  C   UNL     1      -1.403  -0.556   0.060  0.00  0.00    +0.013 C 
ATOM      4  C   UNL     1      -2.012  -0.222   1.428  0.00  0.00    +0.009 C 
ATOM      5  C   UNL     1      -1.182  -0.802   2.569  0.00  0.00    +0.023 C 
ATOM      6  C   UNL     1      -1.805  -0.431   3.890  0.00  0.00    -0.041 A 
ATOM      7  C   UNL     1      -3.026  -1.018   4.206  0.00  0.00    +0.008 A 
ATOM      8  C   UNL     1      -3.654  -0.735   5.400  0.00  0.00    +0.046 A 
ATOM      9  C   UNL     1      -3.064   0.146   6.295  0.00  0.00    +0.117 A 
ATOM     10  C   UNL     1      -1.850   0.732   5.981  0.00  0.00    +0.049 A 
ATOM     11  C   UNL     1      -1.219   0.442   4.779  0.00  0.00    -0.040 A 
ATOM     12  C   UNL     1       0.102   1.114   4.500  0.00  0.00    +0.036 C 
ATOM     13  C   UNL     1       0.364   1.112   2.987  0.00  0.00    +0.009 C 
ATOM     14  C   UNL     1       0.274  -0.330   2.509  0.00  0.00    +0.001 C 
ATOM     15  C   UNL     1       0.835  -0.604   1.152  0.00  0.00    +0.005 C 
ATOM     16  C   UNL     1       2.240  -0.097   0.809  0.00  0.00    +0.010 C 
ATOM     17  C   UNL     1       2.276  -0.261  -0.738  0.00  0.00    +0.053 C 
ATOM     18  C   UNL     1       0.830  -0.434  -1.193  0.00  0.00    +0.043 C 
ATOM     19  N   UNL     1       0.400  -0.848  -2.318  0.00  0.00    -0.188 NA
ENDROOT
BRANCH  19  20
ATOM     20  N   UNL     1       1.305  -1.209  -3.324  0.00  0.00    -0.203 N 
ATOM     21  C   UNL     1       0.850  -1.646  -4.515  0.00  0.00    +0.263 C 
ATOM     22  O   UNL     1      -0.347  -1.727  -4.716  0.00  0.00    -0.268 OA
ATOM     23  H   UNL     1       2.259  -1.144  -3.164  0.00  0.00    +0.178 HD
BRANCH  21  24
ATOM     24  C   UNL     1       1.805  -2.027  -5.576  0.00  0.00    +0.043 A 
ATOM     25  C   UNL     1       3.179  -1.940  -5.347  0.00  0.00    +0.046 A 
ATOM     26  C   UNL     1       4.065  -2.298  -6.342  0.00  0.00    +0.129 A 
ATOM     27  C   UNL     1       3.594  -2.742  -7.565  0.00  0.00    +0.065 A 
ATOM     28  C   UNL     1       2.233  -2.829  -7.799  0.00  0.00    +0.129 A 
ATOM     29  C   UNL     1       1.337  -2.480  -6.811  0.00  0.00    +0.046 A 
BRANCH  28  30
ATOM     30  N   UNL     1       1.739  -3.304  -9.111  0.00  0.00    +0.057 N 
ATOM     31  O   UNL     1       2.524  -3.614  -9.977  0.00  0.00    -0.126 OA
ATOM     32  O   UNL     1       0.550  -3.381  -9.317  0.00  0.00    -0.126 OA
ENDBRANCH  28  30
BRANCH  26  33
ATOM     33  N   UNL     1       5.523  -2.207  -6.101  0.00  0.00    +0.057 N 
ATOM     34  O   UNL     1       5.935  -1.819  -5.033  0.00  0.00    -0.126 OA
ATOM     35  O   UNL     1       6.300  -2.520  -6.972  0.00  0.00    -0.126 OA
ENDBRANCH  26  33
ENDBRANCH  21  24
ENDBRANCH  19  20
BRANCH   9  36
ATOM     36  O   UNL     1      -3.675   0.431   7.475  0.00  0.00    -0.507 OA
ATOM     37  H   UNL     1      -3.428  -0.160   8.199  0.00  0.00    +0.292 HD
ENDBRANCH   9  36
TORSDOF 5
