REMARK  Name = ZINC13940476
REMARK  12 active torsions:
REMARK  status: ('A' for Active; 'I' for Inactive)
REMARK    1  A    between atoms: C_1  and  C_2
REMARK    2  A    between atoms: C_2  and  C_3
REMARK    3  A    between atoms: C_3  and  C_29
REMARK    4  A    between atoms: N_4  and  N_5
REMARK    5  A    between atoms: C_6  and  C_8
REMARK    6  A    between atoms: C_8  and  S_9
REMARK    7  A    between atoms: S_9  and  C_10
REMARK    8  A    between atoms: C_13  and  C_22
REMARK    9  A    between atoms: N_14  and  C_15
REMARK   10  A    between atoms: C_18  and  C_21
REMARK   11  A    between atoms: C_25  and  C_28
REMARK   12  A    between atoms: C_32  and  O_35
REMARK                            x       y       z     vdW  Elec       q    Type
REMARK                         _______ _______ _______ _____ _____    ______ ____
ROOT
ATOM      1  C   UNL     1      -4.622   0.491   0.070  0.00  0.00    +0.197 A 
ATOM      2  N   UNL     1      -3.890  -0.589   0.227  0.00  0.00    -0.122 NA
ATOM      3  N   UNL     1      -2.643  -0.299   0.109  0.00  0.00    -0.128 NA
ATOM      4  C   UNL     1      -2.501   0.983  -0.131  0.00  0.00    +0.169 A 
ATOM      5  N   UNL     1      -3.764   1.532  -0.158  0.00  0.00    -0.270 N 
ENDROOT
BRANCH   5   6
ATOM      6  C   UNL     1      -4.100   2.875  -0.377  0.00  0.00    +0.051 A 
ATOM      7  C   UNL     1      -3.775   3.837   0.571  0.00  0.00    +0.026 A 
ATOM      8  C   UNL     1      -4.103   5.160   0.350  0.00  0.00    +0.005 A 
ATOM      9  C   UNL     1      -4.764   5.527  -0.808  0.00  0.00    -0.050 A 
ATOM     10  C   UNL     1      -5.094   4.571  -1.751  0.00  0.00    +0.005 A 
ATOM     11  C   UNL     1      -4.764   3.246  -1.538  0.00  0.00    +0.026 A 
ATOM     12  C   UNL     1      -5.125   6.971  -1.043  0.00  0.00    +0.044 C 
ENDBRANCH   5   6
BRANCH   4  13
ATOM     13  C   UNL     1      -1.225   1.704  -0.329  0.00  0.00    +0.020 A 
ATOM     14  C   UNL     1      -1.218   2.963  -0.932  0.00  0.00    +0.012 A 
ATOM     15  C   UNL     1      -0.024   3.632  -1.109  0.00  0.00    +0.004 A 
ATOM     16  C   UNL     1       1.164   3.055  -0.695  0.00  0.00    -0.050 A 
ATOM     17  C   UNL     1       1.163   1.806  -0.101  0.00  0.00    +0.004 A 
ATOM     18  C   UNL     1      -0.023   1.126   0.082  0.00  0.00    +0.012 A 
ATOM     19  C   UNL     1       2.463   3.792  -0.892  0.00  0.00    +0.044 C 
ENDBRANCH   4  13
BRANCH   1  20
ATOM     20  S   UNL     1      -6.380   0.583   0.146  0.00  0.00    -0.076 S 
BRANCH  20  21
ATOM     21  C   UNL     1      -6.771  -1.152   0.482  0.00  0.00    +0.174 C 
BRANCH  21  23
ATOM     22  N   UNL     1      -8.791  -2.534   0.840  0.00  0.00    -0.206 N 
ATOM     23  C   UNL     1      -8.265  -1.319   0.592  0.00  0.00    +0.242 C 
ATOM     24  O   UNL     1      -8.993  -0.358   0.456  0.00  0.00    -0.273 OA
ATOM     25  H   UNL     1      -8.208  -3.302   0.948  0.00  0.00    +0.177 HD
BRANCH  22  27
ATOM     26  C   UNL     1     -10.686  -3.860   1.181  0.00  0.00    +0.066 C 
ATOM     27  N   UNL     1     -10.180  -2.689   0.942  0.00  0.00    -0.184 NA
BRANCH  26  28
ATOM     28  C   UNL     1     -12.148  -4.022   1.288  0.00  0.00    -0.002 A 
ATOM     29  C   UNL     1     -12.696  -5.283   1.540  0.00  0.00    +0.013 A 
ATOM     30  C   UNL     1     -14.062  -5.429   1.646  0.00  0.00    +0.046 A 
ATOM     31  C   UNL     1     -14.895  -4.328   1.490  0.00  0.00    +0.117 A 
ATOM     32  C   UNL     1     -14.354  -3.075   1.234  0.00  0.00    +0.046 A 
ATOM     33  C   UNL     1     -12.989  -2.918   1.133  0.00  0.00    +0.013 A 
BRANCH  31  34
ATOM     34  O   UNL     1     -16.241  -4.478   1.589  0.00  0.00    -0.507 OA
ATOM     35  H   UNL     1     -16.677  -4.679   0.749  0.00  0.00    +0.292 HD
ENDBRANCH  31  34
ENDBRANCH  26  28
BRANCH  26  37
ATOM     36  C   UNL     1      -9.399  -5.199   2.824  0.00  0.00    +0.010 C 
ATOM     37  C   UNL     1      -9.781  -5.053   1.349  0.00  0.00    +0.054 C 
ENDBRANCH  26  37
ENDBRANCH  22  27
ENDBRANCH  21  23
ENDBRANCH  20  21
ENDBRANCH   1  20
TORSDOF 9
