REMARK  Name = ZINC20611120
REMARK  3 active torsions:
REMARK  status: ('A' for Active; 'I' for Inactive)
REMARK    1  A    between atoms: C_7  and  C_11
REMARK    2  A    between atoms: C_11  and  C_12
REMARK    3  A    between atoms: N_20  and  C_23
REMARK                            x       y       z     vdW  Elec       q    Type
REMARK                         _______ _______ _______ _____ _____    ______ ____
ROOT
ATOM      1  C   UNL     1       0.180  -3.577  -1.415  0.00  0.00    +0.072 C 
ATOM      2  C   UNL     1      -0.821  -4.750  -1.470  0.00  0.00    +0.108 C 
ATOM      3  C   UNL     1      -0.408  -5.569  -2.724  0.00  0.00    +0.123 C 
ATOM      4  C   UNL     1       0.048  -6.889  -2.143  0.00  0.00    +0.233 C 
ATOM      5  O   UNL     1       0.455  -7.833  -2.784  0.00  0.00    -0.274 OA
ATOM      6  N   UNL     1      -0.067  -6.851  -0.810  0.00  0.00    -0.210 N 
ATOM      7  C   UNL     1      -0.553  -5.690  -0.316  0.00  0.00    +0.232 C 
ATOM      8  O   UNL     1      -0.743  -5.435   0.854  0.00  0.00    -0.274 OA
ATOM      9  C   UNL     1       0.787  -4.805  -3.306  0.00  0.00    +0.136 C 
ATOM     10  N   UNL     1       1.369  -4.050  -2.171  0.00  0.00    -0.295 NA
ATOM     11  C   UNL     1       0.368  -3.906  -4.434  0.00  0.00    +0.003 A 
ATOM     12  C   UNL     1      -0.515  -2.854  -4.530  0.00  0.00    +0.008 A 
ATOM     13  C   UNL     1      -0.692  -2.205  -5.739  0.00  0.00    +0.000 A 
ATOM     14  C   UNL     1       0.022  -2.616  -6.850  0.00  0.00    +0.002 A 
ATOM     15  C   UNL     1       0.909  -3.669  -6.759  0.00  0.00    +0.023 A 
ATOM     16  C   UNL     1       1.093  -4.327  -5.545  0.00  0.00    +0.039 A 
ATOM     17  N   UNL     1       1.920  -5.399  -5.205  0.00  0.00    -0.283 N 
ATOM     18  C   UNL     1       1.800  -5.741  -3.907  0.00  0.00    +0.243 C 
ATOM     19  O   UNL     1       2.394  -6.630  -3.334  0.00  0.00    -0.273 OA
ATOM     20  H   UNL     1       1.920  -3.272  -2.503  0.00  0.00    +0.124 HD
ATOM     21  H   UNL     1       2.511  -5.847  -5.830  0.00  0.00    +0.155 HD
ENDROOT
BRANCH   6  22
ATOM     22  C   UNL     1       0.283  -7.933   0.011  0.00  0.00    +0.044 A 
ATOM     23  C   UNL     1       1.364  -7.828   0.876  0.00  0.00    +0.025 A 
ATOM     24  C   UNL     1       1.706  -8.894   1.684  0.00  0.00    +0.022 A 
ATOM     25  C   UNL     1       0.972 -10.066   1.633  0.00  0.00    +0.041 A 
ATOM     26  C   UNL     1      -0.106 -10.173   0.772  0.00  0.00    +0.022 A 
ATOM     27  C   UNL     1      -0.456  -9.107  -0.034  0.00  0.00    +0.025 A 
ATOM     28 CL   UNL     1       1.405 -11.405   2.650  0.00  0.00    -0.084 Cl
ENDBRANCH   6  22
BRANCH   1  29
ATOM     29  C   UNL     1       0.559  -3.268   0.035  0.00  0.00    +0.056 C 
BRANCH  29  36
ATOM     30  C   UNL     1      -0.232   1.352   0.088  0.00  0.00    +0.001 A 
ATOM     31  C   UNL     1       0.937   2.101   0.124  0.00  0.00    +0.002 A 
ATOM     32  C   UNL     1       2.167   1.482   0.139  0.00  0.00    +0.026 A 
ATOM     33  C   UNL     1       2.242   0.093   0.120  0.00  0.00    +0.047 A 
ATOM     34  C   UNL     1       1.055  -0.661   0.084  0.00  0.00    +0.003 A 
ATOM     35  C   UNL     1      -0.182  -0.013   0.069  0.00  0.00    +0.010 A 
ATOM     36  C   UNL     1       1.468  -2.067   0.071  0.00  0.00    -0.021 A 
ATOM     37  C   UNL     1       2.810  -2.081   0.098  0.00  0.00    +0.087 A 
ATOM     38  N   UNL     1       3.290  -0.800   0.127  0.00  0.00    -0.360 N 
ATOM     39  H   UNL     1       4.229  -0.557   0.150  0.00  0.00    +0.165 HD
ENDBRANCH  29  36
ENDBRANCH   1  29
TORSDOF 3
