REMARK  Name = ZINC36207980
REMARK  14 active torsions:
REMARK  status: ('A' for Active; 'I' for Inactive)
REMARK    1  A    between atoms: C_1  and  C_2
REMARK    2  A    between atoms: C_5  and  C_37
REMARK    3  A    between atoms: C_6  and  C_8
REMARK    4  A    between atoms: C_17  and  C_19
REMARK    5  A    between atoms: C_19  and  N_20
REMARK    6  A    between atoms: N_20  and  C_21
REMARK    7  A    between atoms: N_20  and  C_29
REMARK    8  A    between atoms: C_21  and  C_22
REMARK    9  A    between atoms: C_22  and  N_23
REMARK   10  A    between atoms: C_29  and  C_30
REMARK   11  A    between atoms: C_30  and  C_32
REMARK   12  A    between atoms: C_30  and  O_36
REMARK   13  A    between atoms: C_32  and  C_33
REMARK   14  A    between atoms: C_33  and  C_34
REMARK                            x       y       z     vdW  Elec       q    Type
REMARK                         _______ _______ _______ _____ _____    ______ ____
ROOT
ATOM      1  C   UNL     1      -1.325  -5.881   2.057  0.00  0.00    +0.004 A 
ATOM      2  C   UNL     1      -2.294  -5.984   2.998  0.00  0.00    +0.056 A 
ATOM      3  S   UNL     1      -1.387  -6.377   4.482  0.00  0.00    -0.076 S 
ATOM      4  C   UNL     1       0.255  -6.392   3.810  0.00  0.00    +0.116 A 
ATOM      5  C   UNL     1       0.062  -6.098   2.451  0.00  0.00    +0.080 A 
ATOM      6  C   UNL     1       1.249  -6.050   1.652  0.00  0.00    +0.260 A 
ATOM      7  O   UNL     1       1.183  -5.798   0.461  0.00  0.00    -0.267 OA
ATOM      8  N   UNL     1       2.438  -6.287   2.236  0.00  0.00    -0.312 N 
ATOM      9  H   UNL     1       3.245  -6.256   1.699  0.00  0.00    +0.170 HD
ATOM     10  C   UNL     1       2.529  -6.569   3.561  0.00  0.00    +0.094 A 
ATOM     11  N   UNL     1       1.466  -6.610   4.317  0.00  0.00    -0.229 NA
ENDROOT
BRANCH   1  17
ATOM     12  C   UNL     1      -3.136  -2.683  -1.323  0.00  0.00    +0.044 C 
ATOM     13  C   UNL     1      -2.540  -4.023  -0.977  0.00  0.00    -0.050 A 
ATOM     14  C   UNL     1      -2.313  -4.956  -1.973  0.00  0.00    +0.003 A 
ATOM     15  C   UNL     1      -1.766  -6.188  -1.664  0.00  0.00    +0.004 A 
ATOM     16  C   UNL     1      -1.443  -6.494  -0.357  0.00  0.00    -0.043 A 
ATOM     17  C   UNL     1      -1.669  -5.558   0.651  0.00  0.00    -0.013 A 
ATOM     18  C   UNL     1      -2.216  -4.315   0.332  0.00  0.00    +0.012 A 
ATOM     19  C   UNL     1      -0.848  -7.837  -0.021  0.00  0.00    +0.044 C 
ENDBRANCH   1  17
BRANCH  10  20
ATOM     20  C   UNL     1       3.883  -6.827   4.171  0.00  0.00    -0.003 C 
BRANCH  20  21
ATOM     21  N   UNL     1       3.747  -6.952   5.628  0.00  0.00    +0.387 N 
ATOM     22  H   UNL     1       3.042  -7.642   5.843  0.00  0.00    -0.081 HD
BRANCH  21  23
ATOM     23  C   UNL     1       3.352  -5.656   6.196  0.00  0.00    -0.063 C 
BRANCH  23  24
ATOM     24  C   UNL     1       4.462  -4.632   5.948  0.00  0.00    +0.066 C 
BRANCH  24  25
ATOM     25  N   UNL     1       4.113  -3.364   6.603  0.00  0.00    -0.300 NA
ATOM     26  C   UNL     1       2.934  -2.752   5.971  0.00  0.00    +0.112 C 
ATOM     27  C   UNL     1       2.570  -1.467   6.720  0.00  0.00    +0.175 C 
ATOM     28  O   UNL     1       3.698  -0.589   6.725  0.00  0.00    -0.377 OA
ATOM     29  C   UNL     1       4.864  -1.152   7.333  0.00  0.00    +0.175 C 
ATOM     30  C   UNL     1       5.251  -2.434   6.591  0.00  0.00    +0.112 C 
ENDBRANCH  24  25
ENDBRANCH  23  24
ENDBRANCH  21  23
BRANCH  21  31
ATOM     31  C   UNL     1       5.032  -7.369   6.206  0.00  0.00    -0.047 C 
BRANCH  31  32
ATOM     32  C   UNL     1       4.850  -7.660   7.697  0.00  0.00    +0.098 C 
BRANCH  32  33
ATOM     33  O   UNL     1       4.562  -6.443   8.388  0.00  0.00    -0.394 OA
ATOM     34  H   UNL     1       5.255  -5.773   8.311  0.00  0.00    +0.210 HD
ENDBRANCH  32  33
BRANCH  32  35
ATOM     35  C   UNL     1       6.135  -8.273   8.257  0.00  0.00    +0.033 C 
BRANCH  35  36
ATOM     36  C   UNL     1       5.913  -8.678   9.716  0.00  0.00    +0.029 C 
BRANCH  36  37
ATOM     37  C   UNL     1       7.179  -9.282  10.268  0.00  0.00    -0.034 C 
ATOM     38  C   UNL     1       7.716  -8.794  11.358  0.00  0.00    +0.004 C 
ENDBRANCH  36  37
ENDBRANCH  35  36
ENDBRANCH  32  35
ENDBRANCH  31  32
ENDBRANCH  21  31
ENDBRANCH  20  21
ENDBRANCH  10  20
TORSDOF 12
