REMARK  Name = ZINC35938773
REMARK  9 active torsions:
REMARK  status: ('A' for Active; 'I' for Inactive)
REMARK    1  A    between atoms: C_1  and  C_2
REMARK    2  A    between atoms: C_2  and  C_3
REMARK    3  A    between atoms: C_3  and  C_5
REMARK    4  A    between atoms: C_3  and  C_11
REMARK    5  A    between atoms: C_19  and  C_21
REMARK    6  A    between atoms: C_21  and  C_23
REMARK    7  A    between atoms: C_21  and  N_24
REMARK    8  A    between atoms: C_32  and  C_34
REMARK    9  A    between atoms: C_39  and  C_40
REMARK                            x       y       z     vdW  Elec       q    Type
REMARK                         _______ _______ _______ _____ _____    ______ ____
ROOT
ATOM      1  C   UNL     1      -0.482  -0.280   2.627  0.00  0.00    +0.223 C 
ATOM      2  O   UNL     1      -1.002  -0.365   1.534  0.00  0.00    -0.275 OA
ATOM      3  N   UNL     1      -0.196  -1.397   3.326  0.00  0.00    -0.298 N 
ATOM      4  C   UNL     1       0.318  -1.308   4.700  0.00  0.00    +0.127 C 
ATOM      5  C   UNL     1      -0.596  -2.128   5.619  0.00  0.00    +0.126 C 
ATOM      6  N   UNL     1      -0.793  -3.456   5.021  0.00  0.00    -0.300 N 
ATOM      7  C   UNL     1      -1.307  -3.545   3.647  0.00  0.00    +0.126 C 
ATOM      8  C   UNL     1      -0.399  -2.725   2.730  0.00  0.00    +0.127 C 
ATOM      9  C   UNL     1      -0.507  -4.572   5.720  0.00  0.00    +0.202 C 
ATOM     10  O   UNL     1       0.006  -4.487   6.815  0.00  0.00    -0.277 OA
ENDROOT
BRANCH   9  11
ATOM     11  C   UNL     1      -0.825  -5.927   5.140  0.00  0.00    +0.018 C 
ATOM     12  C   UNL     1       0.349  -6.403   4.283  0.00  0.00    -0.004 C 
BRANCH  11  13
ATOM     13  N   UNL     1      -1.056  -6.884   6.230  0.00  0.00    +0.395 N 
ATOM     14  C   UNL     1       0.155  -6.976   7.057  0.00  0.00    -0.071 C 
ATOM     15  C   UNL     1       0.035  -8.201   7.980  0.00  0.00    +0.024 C 
ATOM     16  C   UNL     1      -1.321  -8.163   8.604  0.00  0.00    -0.010 A 
ATOM     17  C   UNL     1      -2.368  -7.381   8.218  0.00  0.00    -0.047 A 
ATOM     18  C   UNL     1      -3.544  -7.508   8.953  0.00  0.00    +0.010 A 
ATOM     19  C   UNL     1      -3.603  -8.378   9.989  0.00  0.00    +0.045 A 
ATOM     20  S   UNL     1      -1.959  -9.079   9.978  0.00  0.00    -0.101 S 
ATOM     21  C   UNL     1      -2.202  -6.437   7.031  0.00  0.00    -0.005 C 
ATOM     22  H   UNL     1      -1.259  -7.791   5.838  0.00  0.00    -0.079 HD
BRANCH  21  23
ATOM     23  C   UNL     1      -3.449  -6.462   6.186  0.00  0.00    -0.054 A 
ATOM     24  C   UNL     1      -3.569  -7.377   5.157  0.00  0.00    +0.002 A 
ATOM     25  C   UNL     1      -4.713  -7.400   4.382  0.00  0.00    +0.000 A 
ATOM     26  C   UNL     1      -5.739  -6.508   4.637  0.00  0.00    +0.000 A 
ATOM     27  C   UNL     1      -5.619  -5.594   5.667  0.00  0.00    +0.003 A 
ATOM     28  C   UNL     1      -4.476  -5.574   6.444  0.00  0.00    -0.049 A 
ATOM     29  C   UNL     1      -4.348  -4.580   7.570  0.00  0.00    +0.044 C 
ENDBRANCH  21  23
ENDBRANCH  11  13
ENDBRANCH   9  11
BRANCH   1  30
ATOM     30  C   UNL     1      -0.155   1.074   3.203  0.00  0.00    +0.105 C 
BRANCH  30  31
ATOM     31  C   UNL     1      -1.314   1.558   4.036  0.00  0.00    -0.036 A 
ATOM     32  C   UNL     1      -2.558   1.727   3.458  0.00  0.00    +0.004 A 
ATOM     33  C   UNL     1      -3.621   2.171   4.223  0.00  0.00    +0.000 A 
ATOM     34  C   UNL     1      -3.439   2.446   5.565  0.00  0.00    +0.000 A 
ATOM     35  C   UNL     1      -2.195   2.276   6.143  0.00  0.00    +0.000 A 
ATOM     36  C   UNL     1      -1.133   1.827   5.380  0.00  0.00    +0.004 A 
ENDBRANCH  30  31
BRANCH  30  38
ATOM     37  C   UNL     1       0.488   3.423   2.649  0.00  0.00    +0.005 C 
ATOM     38  C   UNL     1       0.103   2.063   2.064  0.00  0.00    +0.014 C 
ENDBRANCH  30  38
ENDBRANCH   1  30
TORSDOF 6
