REMARK  Name = ZINC36525747
REMARK  13 active torsions:
REMARK  status: ('A' for Active; 'I' for Inactive)
REMARK    1  A    between atoms: C_1  and  C_2
REMARK    2  A    between atoms: C_5  and  C_8
REMARK    3  A    between atoms: C_8  and  C_10
REMARK    4  A    between atoms: C_8  and  N_24
REMARK    5  A    between atoms: N_12  and  C_13
REMARK    6  A    between atoms: C_13  and  S_14
REMARK    7  A    between atoms: S_14  and  C_17
REMARK    8  A    between atoms: C_20  and  C_23
REMARK    9  A    between atoms: N_24  and  C_25
REMARK   10  A    between atoms: C_26  and  C_28
REMARK   11  A    between atoms: C_36  and  C_38
REMARK   12  A    between atoms: C_39  and  C_40
REMARK   13  A    between atoms: C_39  and  C_41
REMARK                            x       y       z     vdW  Elec       q    Type
REMARK                         _______ _______ _______ _____ _____    ______ ____
ROOT
ATOM      1  C   UNL     1       0.041  -4.253  -0.061  0.00  0.00    +0.192 C 
ENDROOT
BRANCH   1   6
ATOM      2  C   UNL     1       0.232   1.483  -0.735  0.00  0.00    +0.044 C 
ATOM      3  C   UNL     1       0.182  -0.013  -0.559  0.00  0.00    -0.050 A 
ATOM      4  C   UNL     1      -0.088  -0.827  -1.643  0.00  0.00    +0.004 A 
ATOM      5  C   UNL     1      -0.133  -2.200  -1.482  0.00  0.00    +0.006 A 
ATOM      6  C   UNL     1       0.092  -2.757  -0.237  0.00  0.00    -0.018 A 
ATOM      7  C   UNL     1       0.362  -1.943   0.846  0.00  0.00    +0.006 A 
ATOM      8  C   UNL     1       0.412  -0.571   0.684  0.00  0.00    +0.004 A 
ENDBRANCH   1   6
BRANCH   1   9
ATOM      9  C   UNL     1       1.417  -4.766   0.276  0.00  0.00    +0.239 C 
ATOM     10  O   UNL     1       1.606  -5.352   1.321  0.00  0.00    -0.273 OA
ATOM     11  N   UNL     1       2.438  -4.573  -0.583  0.00  0.00    -0.294 N 
ATOM     12  H   UNL     1       2.286  -4.105  -1.418  0.00  0.00    +0.150 HD
BRANCH  11  13
ATOM     13  C   UNL     1       3.776  -5.072  -0.254  0.00  0.00    +0.278 C 
BRANCH  13  14
ATOM     14  S   UNL     1       4.016  -6.703  -1.012  0.00  0.00    +0.013 S 
ATOM     15  O   UNL     1       5.332  -7.173  -0.755  0.00  0.00    -0.168 OA
ATOM     16  O   UNL     1       2.889  -7.531  -0.758  0.00  0.00    -0.168 OA
BRANCH  14  17
ATOM     17  C   UNL     1       3.975  -6.406  -2.748  0.00  0.00    +0.090 A 
ATOM     18  C   UNL     1       2.773  -6.458  -3.430  0.00  0.00    +0.027 A 
ATOM     19  C   UNL     1       2.741  -6.226  -4.792  0.00  0.00    +0.005 A 
ATOM     20  C   UNL     1       3.910  -5.941  -5.472  0.00  0.00    -0.050 A 
ATOM     21  C   UNL     1       5.111  -5.888  -4.790  0.00  0.00    +0.005 A 
ATOM     22  C   UNL     1       5.143  -6.116  -3.427  0.00  0.00    +0.027 A 
ATOM     23  C   UNL     1       3.875  -5.688  -6.958  0.00  0.00    +0.044 C 
ENDBRANCH  14  17
ENDBRANCH  13  14
ENDBRANCH  11  13
ENDBRANCH   1   9
BRANCH   1  24
ATOM     24  N   UNL     1      -0.884  -4.586   1.024  0.00  0.00    -0.289 N 
ATOM     25  C   UNL     1      -0.639  -4.080   2.377  0.00  0.00    +0.133 C 
ATOM     26  C   UNL     1      -1.962  -5.358   0.779  0.00  0.00    +0.220 C 
ATOM     27  O   UNL     1      -2.695  -5.682   1.688  0.00  0.00    -0.275 OA
BRANCH  26  28
ATOM     28  C   UNL     1      -2.257  -5.821  -0.637  0.00  0.00    +0.079 C 
ATOM     29  C   UNL     1      -2.591  -4.601  -1.490  0.00  0.00    +0.017 C 
ATOM     30  C   UNL     1      -3.683  -4.883  -2.521  0.00  0.00    -0.004 C 
ATOM     31  C   UNL     1      -4.989  -5.343  -1.837  0.00  0.00    +0.008 C 
ATOM     32  C   UNL     1      -4.305  -6.734  -1.817  0.00  0.00    -0.001 C 
ATOM     33  C   UNL     1      -3.395  -6.833  -0.594  0.00  0.00    +0.001 C 
ATOM     34  C   UNL     1      -2.848  -8.255  -0.439  0.00  0.00    +0.008 C 
ATOM     35  C   UNL     1      -3.630  -6.295  -3.118  0.00  0.00    -0.029 C 
ATOM     36  C   UNL     1      -2.234  -6.843  -3.396  0.00  0.00    +0.011 C 
ATOM     37  C   UNL     1      -4.537  -6.458  -4.355  0.00  0.00    +0.011 C 
ENDBRANCH  26  28
ENDBRANCH   1  24
TORSDOF 7
