REMARK  Name = ZINC35746999
REMARK  12 active torsions:
REMARK  status: ('A' for Active; 'I' for Inactive)
REMARK    1  A    between atoms: C_1  and  O_2
REMARK    2  A    between atoms: O_2  and  C_3
REMARK    3  A    between atoms: C_8  and  C_9
REMARK    4  A    between atoms: C_18  and  C_20
REMARK    5  A    between atoms: C_20  and  N_21
REMARK    6  A    between atoms: N_21  and  C_22
REMARK    7  A    between atoms: N_21  and  C_35
REMARK    8  A    between atoms: C_22  and  C_23
REMARK    9  A    between atoms: C_23  and  C_25
REMARK   10  A    between atoms: C_23  and  O_34
REMARK   11  A    between atoms: C_25  and  O_26
REMARK   12  A    between atoms: O_26  and  C_27
REMARK                            x       y       z     vdW  Elec       q    Type
REMARK                         _______ _______ _______ _____ _____    ______ ____
ROOT
ATOM      1  C   UNL     1       6.309   2.158   4.058  0.00  0.00    +0.007 A 
ATOM      2  C   UNL     1       7.610   2.140   3.678  0.00  0.00    +0.056 A 
ATOM      3  S   UNL     1       7.901   0.426   3.286  0.00  0.00    -0.076 S 
ATOM      4  C   UNL     1       6.286  -0.220   3.638  0.00  0.00    +0.116 A 
ATOM      5  C   UNL     1       5.561   0.907   4.057  0.00  0.00    +0.080 A 
ATOM      6  C   UNL     1       4.196   0.668   4.416  0.00  0.00    +0.260 A 
ATOM      7  O   UNL     1       3.484   1.585   4.788  0.00  0.00    -0.267 OA
ATOM      8  N   UNL     1       3.711  -0.585   4.337  0.00  0.00    -0.312 N 
ATOM      9  H   UNL     1       2.787  -0.753   4.579  0.00  0.00    +0.170 HD
ATOM     10  C   UNL     1       4.489  -1.618   3.924  0.00  0.00    +0.094 A 
ATOM     11  N   UNL     1       5.735  -1.429   3.580  0.00  0.00    -0.229 NA
ENDROOT
BRANCH   1  17
ATOM     12  C   UNL     1       5.223   3.591   5.791  0.00  0.00    +0.128 A 
ATOM     13  C   UNL     1       4.624   4.781   6.171  0.00  0.00    +0.046 A 
ATOM     14  C   UNL     1       4.456   5.798   5.250  0.00  0.00    +0.004 A 
ATOM     15  C   UNL     1       4.884   5.635   3.944  0.00  0.00    +0.001 A 
ATOM     16  C   UNL     1       5.482   4.455   3.551  0.00  0.00    +0.012 A 
ATOM     17  C   UNL     1       5.662   3.425   4.473  0.00  0.00    +0.025 A 
BRANCH  12  19
ATOM     18  C   UNL     1       4.917   2.832   8.023  0.00  0.00    +0.277 C 
ATOM     19  O   UNL     1       5.389   2.591   6.696  0.00  0.00    -0.495 OA
ENDBRANCH  12  19
ENDBRANCH   1  17
BRANCH  10  20
ATOM     20  C   UNL     1       3.902  -3.004   3.851  0.00  0.00    -0.003 C 
BRANCH  20  21
ATOM     21  N   UNL     1       4.959  -3.966   3.511  0.00  0.00    +0.388 N 
ATOM     22  H   UNL     1       5.434  -3.663   2.675  0.00  0.00    -0.081 HD
BRANCH  21  23
ATOM     23  C   UNL     1       4.362  -5.289   3.284  0.00  0.00    -0.068 C 
ATOM     24  C   UNL     1       4.626  -5.960   1.934  0.00  0.00    -0.017 C 
ATOM     25  C   UNL     1       3.241  -5.389   2.247  0.00  0.00    -0.017 C 
ENDBRANCH  21  23
BRANCH  21  26
ATOM     26  C   UNL     1       5.921  -4.047   4.619  0.00  0.00    -0.043 C 
BRANCH  26  27
ATOM     27  C   UNL     1       7.087  -4.953   4.216  0.00  0.00    +0.135 C 
BRANCH  27  28
ATOM     28  O   UNL     1       6.593  -6.260   3.918  0.00  0.00    -0.390 OA
ATOM     29  H   UNL     1       6.141  -6.688   4.658  0.00  0.00    +0.210 HD
ENDBRANCH  27  28
BRANCH  27  30
ATOM     30  C   UNL     1       8.089  -5.037   5.369  0.00  0.00    +0.258 C 
BRANCH  30  31
ATOM     31  O   UNL     1       9.232  -5.787   4.953  0.00  0.00    -0.489 OA
BRANCH  31  32
ATOM     32  C   UNL     1      10.225  -5.957   5.866  0.00  0.00    +0.121 A 
ATOM     33  C   UNL     1      10.098  -5.417   7.138  0.00  0.00    +0.047 A 
ATOM     34  C   UNL     1      11.108  -5.591   8.064  0.00  0.00    +0.023 A 
ATOM     35  C   UNL     1      12.245  -6.302   7.724  0.00  0.00    +0.041 A 
ATOM     36  C   UNL     1      12.373  -6.840   6.456  0.00  0.00    +0.023 A 
ATOM     37  C   UNL     1      11.363  -6.674   5.529  0.00  0.00    +0.047 A 
ATOM     38 CL   UNL     1      13.513  -6.518   8.890  0.00  0.00    -0.084 Cl
ENDBRANCH  31  32
ENDBRANCH  30  31
ENDBRANCH  27  30
ENDBRANCH  26  27
ENDBRANCH  21  26
ENDBRANCH  20  21
ENDBRANCH  10  20
TORSDOF 11
