REMARK  Name = ZINC20730784
REMARK  8 active torsions:
REMARK  status: ('A' for Active; 'I' for Inactive)
REMARK    1  A    between atoms: C_1  and  C_2
REMARK    2  A    between atoms: C_2  and  C_3
REMARK    3  A    between atoms: C_2  and  C_4
REMARK    4  A    between atoms: C_4  and  C_6
REMARK    5  A    between atoms: C_4  and  N_10
REMARK    6  A    between atoms: C_6  and  O_8
REMARK    7  A    between atoms: O_8  and  C_9
REMARK    8  A    between atoms: C_22  and  C_24
REMARK                            x       y       z     vdW  Elec       q    Type
REMARK                         _______ _______ _______ _____ _____    ______ ____
ROOT
ATOM      1  N   UNL     1       1.300   2.118  -2.345  0.00  0.00    -0.286 N 
ATOM      2  C   UNL     1       0.372   1.296  -2.873  0.00  0.00    +0.304 C 
ATOM      3  O   UNL     1       0.231   0.173  -2.429  0.00  0.00    -0.253 OA
ATOM      4  N   UNL     1      -0.402   1.720  -3.892  0.00  0.00    -0.273 N 
ATOM      5  C   UNL     1      -1.492   0.879  -4.410  0.00  0.00    +0.116 C 
ATOM      6  C   UNL     1      -1.180   0.492  -5.861  0.00  0.00    +0.074 C 
ATOM      7  C   UNL     1      -0.704   1.716  -6.599  0.00  0.00    +0.040 A 
ATOM      8  C   UNL     1      -0.254   2.845  -6.011  0.00  0.00    +0.062 A 
ATOM      9  N   UNL     1       0.083   3.708  -6.971  0.00  0.00    -0.348 N 
ATOM     10  C   UNL     1      -0.144   3.161  -8.137  0.00  0.00    +0.171 A 
ATOM     11  N   UNL     1      -0.638   1.916  -7.945  0.00  0.00    -0.349 N 
ATOM     12  H   UNL     1      -0.895   1.285  -8.635  0.00  0.00    +0.166 HD
ATOM     13  C   UNL     1      -0.179   3.039  -4.511  0.00  0.00    +0.159 C 
ATOM     14  H   UNL     1       1.455   2.991  -2.738  0.00  0.00    +0.151 HD
ATOM     15  H   UNL     1       0.439   4.599  -6.828  0.00  0.00    +0.167 HD
ENDROOT
BRANCH  13  16
ATOM     16  C   UNL     1      -1.246   4.003  -4.061  0.00  0.00    +0.015 A 
ATOM     17  C   UNL     1      -2.281   4.336  -4.913  0.00  0.00    +0.028 A 
ATOM     18  C   UNL     1      -3.261   5.221  -4.500  0.00  0.00    +0.041 A 
ATOM     19  C   UNL     1      -3.205   5.773  -3.233  0.00  0.00    +0.023 A 
ATOM     20  C   UNL     1      -2.170   5.442  -2.379  0.00  0.00    +0.040 A 
ATOM     21  C   UNL     1      -1.192   4.552  -2.791  0.00  0.00    +0.129 A 
ATOM     22  F   UNL     1      -0.183   4.223  -1.955  0.00  0.00    -0.205 F 
ATOM     23 CL   UNL     1      -4.561   5.639  -5.572  0.00  0.00    -0.084 Cl
ENDBRANCH  13  16
BRANCH   1  24
ATOM     24  C   UNL     1       2.076   1.693  -1.177  0.00  0.00    +0.186 C 
BRANCH  24  26
ATOM     25  C   UNL     1       2.791  -0.364  -2.401  0.00  0.00    +0.009 C 
ATOM     26  C   UNL     1       3.279   0.868  -1.636  0.00  0.00    +0.014 C 
ATOM     27  C   UNL     1       4.161   1.719  -2.552  0.00  0.00    +0.009 C 
ENDBRANCH  24  26
BRANCH  24  28
ATOM     28  C   UNL     1       2.557   2.907  -0.424  0.00  0.00    +0.328 C 
ATOM     29  O   UNL     1       2.280   4.014  -0.822  0.00  0.00    -0.249 OA
BRANCH  28  30
ATOM     30  O   UNL     1       3.292   2.759   0.689  0.00  0.00    -0.467 OA
ATOM     31  C   UNL     1       3.714   3.952   1.352  0.00  0.00    +0.280 C 
ENDBRANCH  28  30
ENDBRANCH  24  28
ENDBRANCH   1  24
TORSDOF 5
