REMARK  Name = ZINC09292073
REMARK  4 active torsions:
REMARK  status: ('A' for Active; 'I' for Inactive)
REMARK    1  A    between atoms: C_1  and  C_2
REMARK    2  A    between atoms: C_9  and  C_26
REMARK    3  A    between atoms: C_26  and  C_28
REMARK    4  A    between atoms: C_32  and  N_34
REMARK                            x       y       z     vdW  Elec       q    Type
REMARK                         _______ _______ _______ _____ _____    ______ ____
ROOT
ATOM      1  C   UNL     1       2.214   5.724   2.691  0.00  0.00    +0.044 C 
ATOM      2  C   UNL     1       1.314   5.923   1.499  0.00  0.00    -0.050 A 
ATOM      3  C   UNL     1       0.878   7.191   1.163  0.00  0.00    +0.005 A 
ATOM      4  C   UNL     1       0.054   7.380   0.073  0.00  0.00    +0.024 A 
ATOM      5  C   UNL     1      -0.346   6.291  -0.698  0.00  0.00    +0.036 A 
ATOM      6  C   UNL     1       0.098   5.019  -0.350  0.00  0.00    -0.027 A 
ATOM      7  C   UNL     1       0.920   4.836   0.738  0.00  0.00    +0.008 A 
ATOM      8  C   UNL     1      -0.500   4.078  -1.362  0.00  0.00    +0.052 C 
ATOM      9  C   UNL     1       0.603   3.353  -2.146  0.00  0.00    +0.080 C 
ATOM     10  C   UNL     1       0.078   1.896  -2.292  0.00  0.00    +0.071 C 
ATOM     11  C   UNL     1       1.187   0.883  -2.268  0.00  0.00    -0.012 A 
ATOM     12  C   UNL     1       2.165   0.568  -1.351  0.00  0.00    +0.006 A 
ATOM     13  C   UNL     1       3.068  -0.444  -1.621  0.00  0.00    +0.000 A 
ATOM     14  C   UNL     1       2.985  -1.140  -2.814  0.00  0.00    +0.002 A 
ATOM     15  C   UNL     1       2.006  -0.830  -3.735  0.00  0.00    +0.023 A 
ATOM     16  C   UNL     1       1.093   0.189  -3.471  0.00  0.00    +0.038 A 
ATOM     17  N   UNL     1       0.029   0.680  -4.231  0.00  0.00    -0.285 N 
ATOM     18  C   UNL     1      -0.619   1.684  -3.608  0.00  0.00    +0.227 C 
ATOM     19  O   UNL     1      -1.578   2.296  -4.027  0.00  0.00    -0.275 OA
ATOM     20  C   UNL     1      -0.878   1.720  -1.110  0.00  0.00    -0.046 C 
ATOM     21  C   UNL     1      -1.317   3.186   0.743  0.00  0.00    -0.076 C 
ATOM     22  C   UNL     1      -0.857   1.820   1.302  0.00  0.00    -0.020 C 
ATOM     23  C   UNL     1      -0.076   1.207   0.111  0.00  0.00    -0.016 C 
ATOM     24  C   UNL     1      -1.304   4.965  -2.280  0.00  0.00    +0.212 C 
ATOM     25  O   UNL     1      -1.953   4.611  -3.241  0.00  0.00    -0.277 OA
ATOM     26  N   UNL     1      -1.163   6.224  -1.829  0.00  0.00    -0.286 N 
ATOM     27  H   UNL     1      -0.215   0.338  -5.105  0.00  0.00    +0.155 HD
ATOM     28  H   UNL     1      -1.580   6.997  -2.241  0.00  0.00    +0.155 HD
ATOM     29  N   UNL     1      -1.355   3.059  -0.733  0.00  0.00    +0.395 N 
ATOM     30  H   UNL     1      -2.321   3.183  -1.058  0.00  0.00    -0.079 HD
ENDROOT
BRANCH   9  31
ATOM     31  C   UNL     1       1.899   3.375  -1.377  0.00  0.00    +0.167 C 
ATOM     32  O   UNL     1       1.950   2.899  -0.263  0.00  0.00    -0.292 OA
BRANCH  31  33
ATOM     33  C   UNL     1       3.102   3.974  -1.977  0.00  0.00    +0.020 A 
ATOM     34  C   UNL     1       3.048   4.519  -3.264  0.00  0.00    +0.011 A 
ATOM     35  C   UNL     1       4.178   5.083  -3.818  0.00  0.00    +0.003 A 
ATOM     36  C   UNL     1       5.365   5.101  -3.108  0.00  0.00    +0.033 A 
ATOM     37  C   UNL     1       5.428   4.559  -1.836  0.00  0.00    +0.127 A 
ATOM     38  C   UNL     1       4.306   3.996  -1.266  0.00  0.00    +0.044 A 
BRANCH  37  39
ATOM     39  N   UNL     1       6.704   4.584  -1.085  0.00  0.00    +0.056 N 
ATOM     40  O   UNL     1       6.761   4.107   0.034  0.00  0.00    -0.126 OA
ATOM     41  O   UNL     1       7.696   5.081  -1.587  0.00  0.00    -0.126 OA
ENDBRANCH  37  39
ENDBRANCH  31  33
ENDBRANCH   9  31
TORSDOF 3
