REMARK  Name = ZINC28535097
REMARK  8 active torsions:
REMARK  status: ('A' for Active; 'I' for Inactive)
REMARK    1  A    between atoms: C_1  and  C_2
REMARK    2  A    between atoms: C_6  and  C_8
REMARK    3  A    between atoms: C_8  and  S_9
REMARK    4  A    between atoms: S_9  and  C_10
REMARK    5  A    between atoms: N_16  and  N_17
REMARK    6  A    between atoms: N_22  and  C_23
REMARK    7  A    between atoms: C_26  and  C_30
REMARK    8  A    between atoms: C_28  and  C_29
REMARK                            x       y       z     vdW  Elec       q    Type
REMARK                         _______ _______ _______ _____ _____    ______ ____
ROOT
ATOM      1  C   UNL     1       0.127   7.726  -1.467  0.00  0.00    +0.213 A 
ATOM      2  N   UNL     1       0.342   8.123  -0.228  0.00  0.00    -0.120 NA
ATOM      3  N   UNL     1       0.299   9.362   0.111  0.00  0.00    -0.126 NA
ATOM      4  C   UNL     1       0.026  10.304  -0.766  0.00  0.00    +0.212 A 
ATOM      5  C   UNL     1      -0.222   9.943  -2.117  0.00  0.00    +0.314 A 
ATOM      6  O   UNL     1      -0.478  10.790  -2.956  0.00  0.00    -0.262 OA
ATOM      7  N   UNL     1      -0.164   8.632  -2.446  0.00  0.00    -0.184 N 
ATOM      8  N   UNL     1      -0.021  11.642  -0.373  0.00  0.00    -0.293 N 
ATOM      9  H   UNL     1      -0.156  12.432  -1.127  0.00  0.00    +0.154 HD
ENDROOT
BRANCH   8  10
ATOM     10  C   UNL     1       0.102  11.978   0.977  0.00  0.00    +0.036 A 
ATOM     11  C   UNL     1      -0.339  11.097   1.957  0.00  0.00    +0.024 A 
ATOM     12  C   UNL     1      -0.215  11.432   3.291  0.00  0.00    +0.005 A 
ATOM     13  C   UNL     1       0.347  12.643   3.652  0.00  0.00    -0.050 A 
ATOM     14  C   UNL     1       0.787  13.522   2.679  0.00  0.00    +0.008 A 
ATOM     15  C   UNL     1       0.671  13.191   1.343  0.00  0.00    -0.029 A 
ATOM     16  C   UNL     1       1.155  14.148   0.284  0.00  0.00    +0.045 C 
ATOM     17  C   UNL     1       0.481  13.006   5.108  0.00  0.00    +0.044 C 
ENDBRANCH   8  10
BRANCH   7  18
ATOM     18  N   UNL     1      -0.398   8.213  -3.762  0.00  0.00    -0.258 N 
ATOM     19  C   UNL     1      -1.594   8.273  -4.414  0.00  0.00    +0.111 A 
ATOM     20  C   UNL     1      -1.421   7.782  -5.658  0.00  0.00    +0.021 A 
ATOM     21  C   UNL     1      -0.071   7.396  -5.776  0.00  0.00    +0.021 A 
ATOM     22  C   UNL     1       0.531   7.672  -4.601  0.00  0.00    +0.111 A 
ENDBRANCH   7  18
BRANCH   1  23
ATOM     23  S   UNL     1       0.209   6.011  -1.860  0.00  0.00    -0.080 S 
BRANCH  23  24
ATOM     24  C   UNL     1       0.614   5.333  -0.231  0.00  0.00    +0.112 C 
BRANCH  24  30
ATOM     25  C   UNL     1      -1.472   0.790  -0.009  0.00  0.00    +0.044 C 
ATOM     26  C   UNL     1      -0.261   1.661  -0.221  0.00  0.00    -0.050 A 
ATOM     27  C   UNL     1       0.964   1.085  -0.503  0.00  0.00    +0.003 A 
ATOM     28  C   UNL     1       2.074   1.884  -0.703  0.00  0.00    +0.001 A 
ATOM     29  C   UNL     1       1.961   3.259  -0.614  0.00  0.00    +0.004 A 
ATOM     30  C   UNL     1       0.738   3.835  -0.327  0.00  0.00    -0.037 A 
ATOM     31  C   UNL     1      -0.373   3.035  -0.127  0.00  0.00    +0.007 A 
ENDBRANCH  24  30
ENDBRANCH  23  24
ENDBRANCH   1  23
TORSDOF 5
