REMARK  Name = ZINC30978951
REMARK  11 active torsions:
REMARK  status: ('A' for Active; 'I' for Inactive)
REMARK    1  A    between atoms: C_1  and  C_2
REMARK    2  A    between atoms: C_5  and  C_9
REMARK    3  A    between atoms: C_6  and  C_8
REMARK    4  A    between atoms: C_9  and  C_11
REMARK    5  A    between atoms: C_9  and  N_14
REMARK    6  A    between atoms: C_11  and  C_12
REMARK    7  A    between atoms: C_11  and  C_13
REMARK    8  A    between atoms: C_15  and  C_17
REMARK    9  A    between atoms: N_20  and  C_23
REMARK   10  A    between atoms: C_23  and  C_24
REMARK   11  A    between atoms: C_26  and  C_29
REMARK                            x       y       z     vdW  Elec       q    Type
REMARK                         _______ _______ _______ _____ _____    ______ ____
ROOT
ATOM      1  C   UNL     1      -2.983   7.074   2.087  0.00  0.00    +0.071 C 
ATOM      2  C   UNL     1      -1.856   6.901   3.110  0.00  0.00    -0.006 C 
ATOM      3  C   UNL     1      -1.634   8.225   3.846  0.00  0.00    -0.077 C 
ATOM      4  N   UNL     1      -2.875   8.624   4.521  0.00  0.00    +0.386 N 
ATOM      5  C   UNL     1      -3.959   8.842   3.555  0.00  0.00    -0.077 C 
ATOM      6  C   UNL     1      -4.250   7.537   2.810  0.00  0.00    -0.006 C 
ATOM      7  H   UNL     1      -3.177   7.800   5.183  0.00  0.00    -0.081 HD
ENDROOT
BRANCH   1   9
ATOM      8  N   UNL     1      -2.267   5.157   0.698  0.00  0.00    -0.308 N 
ATOM      9  C   UNL     1      -3.247   5.759   1.401  0.00  0.00    +0.216 C 
ATOM     10  O   UNL     1      -4.340   5.241   1.482  0.00  0.00    -0.276 OA
ATOM     11  H   UNL     1      -1.274   5.626   0.625  0.00  0.00    +0.149 HD
BRANCH   8  12
ATOM     12  C   UNL     1      -2.523   3.878   0.031  0.00  0.00    +0.106 C 
BRANCH  12  17
ATOM     13  C   UNL     1       1.889   0.277   1.012  0.00  0.00    +0.044 C 
ATOM     14  C   UNL     1       0.738   1.216   0.756  0.00  0.00    -0.050 A 
ATOM     15  C   UNL     1       0.622   1.849  -0.467  0.00  0.00    +0.004 A 
ATOM     16  C   UNL     1      -0.433   2.711  -0.702  0.00  0.00    +0.006 A 
ATOM     17  C   UNL     1      -1.373   2.939   0.287  0.00  0.00    -0.024 A 
ATOM     18  C   UNL     1      -1.260   2.301   1.508  0.00  0.00    -0.045 A 
ATOM     19  C   UNL     1      -0.201   1.444   1.744  0.00  0.00    +0.007 A 
ATOM     20  C   UNL     1      -2.287   2.545   2.583  0.00  0.00    +0.044 C 
ENDBRANCH  12  17
BRANCH  12  21
ATOM     21  C   UNL     1      -2.669   4.108  -1.475  0.00  0.00    +0.008 C 
ATOM     22  C   UNL     1      -3.061   2.796  -2.156  0.00  0.00    +0.009 C 
ATOM     23  C   UNL     1      -3.753   5.158  -1.728  0.00  0.00    +0.009 C 
ENDBRANCH  12  21
ENDBRANCH   8  12
ENDBRANCH   1   9
BRANCH   4  24
ATOM     24  C   UNL     1      -2.662   9.818   5.351  0.00  0.00    +0.022 C 
BRANCH  24  25
ATOM     25  C   UNL     1      -1.724   9.482   6.482  0.00  0.00    +0.211 A 
ATOM     26  N   UNL     1      -0.418   9.580   6.464  0.00  0.00    -0.193 NA
ATOM     27  C   UNL     1      -0.007   9.175   7.687  0.00  0.00    +0.202 A 
ATOM     28  N   UNL     1      -1.077   8.858   8.369  0.00  0.00    -0.056 NA
ATOM     29  O   UNL     1      -2.068   9.034   7.693  0.00  0.00    -0.340 OA
BRANCH  27  30
ATOM     30  C   UNL     1       1.396   9.104   8.166  0.00  0.00    +0.023 A 
ATOM     31  C   UNL     1       1.672   8.665   9.460  0.00  0.00    +0.012 A 
ATOM     32  C   UNL     1       2.978   8.600   9.901  0.00  0.00    +0.002 A 
ATOM     33  C   UNL     1       4.013   8.970   9.061  0.00  0.00    +0.015 A 
ATOM     34  C   UNL     1       3.746   9.407   7.776  0.00  0.00    +0.019 A 
ATOM     35  C   UNL     1       2.442   9.471   7.323  0.00  0.00    +0.027 A 
ATOM     36 BR   UNL     1       5.167   9.911   6.635  0.00  0.00    -0.050 Br
ENDBRANCH  27  30
ENDBRANCH  24  25
ENDBRANCH   4  24
TORSDOF 7
