REMARK  Name = ZINC20704133
REMARK  3 active torsions:
REMARK  status: ('A' for Active; 'I' for Inactive)
REMARK    1  A    between atoms: C_1  and  C_2
REMARK    2  A    between atoms: C_9  and  C_18
REMARK    3  A    between atoms: C_22  and  N_24
REMARK                            x       y       z     vdW  Elec       q    Type
REMARK                         _______ _______ _______ _____ _____    ______ ____
ROOT
ATOM      1  C   UNL     1       2.273  -0.480  -0.269  0.00  0.00    +0.047 C 
ATOM      2  C   UNL     1       1.294   0.664  -0.326  0.00  0.00    -0.011 A 
ATOM      3  C   UNL     1      -0.053   0.402  -0.453  0.00  0.00    +0.046 A 
ATOM      4  C   UNL     1      -0.963   1.442  -0.512  0.00  0.00    +0.020 A 
ATOM      5  C   UNL     1      -0.514   2.747  -0.434  0.00  0.00    +0.007 A 
ATOM      6  C   UNL     1       0.830   3.018  -0.297  0.00  0.00    -0.019 A 
ATOM      7  C   UNL     1       1.762   1.977  -0.250  0.00  0.00    +0.036 A 
ATOM      8  N   UNL     1       3.139   2.164  -0.146  0.00  0.00    -0.336 N 
ATOM      9  C   UNL     1       3.607   3.549   0.030  0.00  0.00    +0.105 C 
ATOM     10  C   UNL     1       2.742   4.427  -0.850  0.00  0.00    +0.029 C 
ATOM     11  C   UNL     1       1.337   4.402  -0.172  0.00  0.00    +0.049 C 
ATOM     12  C   UNL     1       0.647   5.563  -0.787  0.00  0.00    -0.023 C 
ATOM     13  C   UNL     1       1.561   6.465  -1.129  0.00  0.00    -0.030 C 
ATOM     14  C   UNL     1       2.979   5.941  -0.813  0.00  0.00    +0.033 C 
ATOM     15 CL   UNL     1      -0.611  -1.240  -0.541  0.00  0.00    -0.083 Cl
ATOM     16  H   UNL     1       3.865   1.340  -0.189  0.00  0.00    +0.147 HD
ENDROOT
BRANCH   9  17
ATOM     17  C   UNL     1       3.458   3.962   1.472  0.00  0.00    -0.025 A 
ATOM     18  C   UNL     1       2.528   3.332   2.279  0.00  0.00    +0.007 A 
ATOM     19  C   UNL     1       2.391   3.710   3.601  0.00  0.00    +0.022 A 
ATOM     20  C   UNL     1       3.184   4.719   4.117  0.00  0.00    +0.071 A 
ATOM     21  C   UNL     1       4.114   5.349   3.310  0.00  0.00    +0.145 A 
ATOM     22  C   UNL     1       4.254   4.966   1.989  0.00  0.00    +0.039 A 
ATOM     23 CL   UNL     1       3.012   5.195   5.778  0.00  0.00    -0.081 Cl
BRANCH  21  24
ATOM     24  N   UNL     1       4.963   6.429   3.861  0.00  0.00    +0.058 N 
ATOM     25  O   UNL     1       5.781   6.984   3.150  0.00  0.00    -0.126 OA
ATOM     26  O   UNL     1       4.842   6.763   5.026  0.00  0.00    -0.126 OA
ENDBRANCH  21  24
ENDBRANCH   9  17
TORSDOF 2
