REMARK  Name = ZINC32927027
REMARK  9 active torsions:
REMARK  status: ('A' for Active; 'I' for Inactive)
REMARK    1  A    between atoms: C_1  and  N_2
REMARK    2  A    between atoms: N_2  and  C_3
REMARK    3  A    between atoms: C_3  and  C_4
REMARK    4  A    between atoms: C_4  and  C_5
REMARK    5  A    between atoms: C_5  and  N_6
REMARK    6  A    between atoms: N_6  and  C_7
REMARK    7  A    between atoms: C_10  and  S_16
REMARK    8  A    between atoms: C_12  and  N_13
REMARK    9  A    between atoms: S_16  and  C_19
REMARK                            x       y       z     vdW  Elec       q    Type
REMARK                         _______ _______ _______ _____ _____    ______ ____
ROOT
ATOM      1  C   UNL     1      -0.171  -3.942   3.103  0.00  0.00    +0.058 A 
ATOM      2  C   UNL     1      -0.273  -4.840   2.048  0.00  0.00    +0.027 A 
ATOM      3  C   UNL     1       0.003  -6.178   2.253  0.00  0.00    +0.029 A 
ATOM      4  C   UNL     1       0.380  -6.624   3.506  0.00  0.00    +0.100 A 
ATOM      5  C   UNL     1       0.483  -5.733   4.559  0.00  0.00    +0.062 A 
ATOM      6  C   UNL     1       0.214  -4.393   4.359  0.00  0.00    +0.149 A 
ENDROOT
BRANCH   6   7
ATOM      7  N   UNL     1       0.329  -3.439   5.485  0.00  0.00    +0.058 N 
ATOM      8  O   UNL     1       0.766  -2.318   5.291  0.00  0.00    -0.126 OA
ATOM      9  O   UNL     1      -0.012  -3.774   6.605  0.00  0.00    -0.126 OA
ENDBRANCH   6   7
BRANCH   4  10
ATOM     10  S   UNL     1       0.731  -8.332   3.763  0.00  0.00    +0.091 S 
ATOM     11  O   UNL     1       0.472  -8.551   5.143  0.00  0.00    -0.161 OA
ATOM     12  O   UNL     1      -0.023  -9.010   2.768  0.00  0.00    -0.161 OA
BRANCH  10  13
ATOM     13  C   UNL     1       2.505  -8.499   3.426  0.00  0.00    +0.526 C 
ATOM     14  F   UNL     1       3.226  -7.684   4.306  0.00  0.00    -0.150 F 
ATOM     15  F   UNL     1       2.890  -9.832   3.603  0.00  0.00    -0.150 F 
ATOM     16  F   UNL     1       2.769  -8.109   2.108  0.00  0.00    -0.150 F 
ENDBRANCH  10  13
ENDBRANCH   4  10
BRANCH   1  17
ATOM     17  N   UNL     1      -0.450  -2.589   2.900  0.00  0.00    -0.342 N 
ATOM     18  H   UNL     1      -0.463  -1.896   3.754  0.00  0.00    +0.146 HD
BRANCH  17  19
ATOM     19  C   UNL     1      -0.724  -2.092   1.549  0.00  0.00    +0.103 C 
BRANCH  19  20
ATOM     20  C   UNL     1      -0.995  -0.588   1.604  0.00  0.00    +0.037 C 
BRANCH  20  21
ATOM     21  C   UNL     1      -1.281  -0.069   0.193  0.00  0.00    +0.107 C 
BRANCH  21  23
ATOM     22  C   UNL     1      -0.435   2.321   0.106  0.00  0.00    +0.130 C 
ATOM     23  N   UNL     1      -1.542   1.371   0.246  0.00  0.00    -0.320 N 
ATOM     24  C   UNL     1      -2.839   1.837   0.423  0.00  0.00    +0.098 A 
ATOM     25  C   UNL     1      -3.871   0.933   0.654  0.00  0.00    +0.042 A 
ATOM     26  C   UNL     1      -5.157   1.411   0.829  0.00  0.00    +0.005 A 
ATOM     27  C   UNL     1      -5.369   2.782   0.767  0.00  0.00    +0.018 A 
ATOM     28  C   UNL     1      -4.299   3.622   0.534  0.00  0.00    +0.084 A 
ATOM     29  N   UNL     1      -3.081   3.138   0.376  0.00  0.00    -0.350 N 
ATOM     30  H   UNL     1      -2.256   3.845   0.202  0.00  0.00    +0.166 HD
ENDBRANCH  21  23
ENDBRANCH  20  21
ENDBRANCH  19  20
ENDBRANCH  17  19
ENDBRANCH   1  17
TORSDOF 8
