REMARK  Name = ZINC33555279
REMARK  11 active torsions:
REMARK  status: ('A' for Active; 'I' for Inactive)
REMARK    1  A    between atoms: C_1  and  C_2
REMARK    2  A    between atoms: C_2  and  O_3
REMARK    3  A    between atoms: O_3  and  C_4
REMARK    4  A    between atoms: C_6  and  C_14
REMARK    5  A    between atoms: C_9  and  O_10
REMARK    6  A    between atoms: O_10  and  C_11
REMARK    7  A    between atoms: C_11  and  C_12
REMARK    8  A    between atoms: C_16  and  C_28
REMARK    9  A    between atoms: C_24  and  C_26
REMARK   10  A    between atoms: C_28  and  C_30
REMARK   11  A    between atoms: C_33  and  C_35
REMARK                            x       y       z     vdW  Elec       q    Type
REMARK                         _______ _______ _______ _____ _____    ______ ____
ROOT
ATOM      1  C   UNL     1      -2.818   1.156   0.177  0.00  0.00    +0.152 C 
ATOM      2  C   UNL     1      -2.472  -0.315   0.164  0.00  0.00    +0.080 C 
ATOM      3  C   UNL     1      -3.639  -0.991   0.282  0.00  0.00    +0.250 C 
ATOM      4  C   UNL     1      -4.753  -0.026   0.368  0.00  0.00    +0.293 C 
ATOM      5  O   UNL     1      -5.926  -0.323   0.480  0.00  0.00    -0.266 OA
ATOM      6  N   UNL     1      -4.278   1.231   0.303  0.00  0.00    -0.230 N 
ATOM      7  C   UNL     1      -5.035   2.394   0.354  0.00  0.00    +0.191 A 
ATOM      8  N   UNL     1      -4.654   3.664   0.304  0.00  0.00    -0.125 NA
ATOM      9  N   UNL     1      -5.485   4.611   0.359  0.00  0.00    -0.145 NA
ATOM     10  C   UNL     1      -6.781   4.401   0.481  0.00  0.00    +0.101 A 
ATOM     11  S   UNL     1      -6.806   2.611   0.513  0.00  0.00    -0.035 S 
ATOM     12  C   UNL     1      -7.918   5.386   0.569  0.00  0.00    +0.075 C 
ATOM     13  O   UNL     1      -3.765  -2.338   0.316  0.00  0.00    -0.282 OA
ENDROOT
BRANCH   1  16
ATOM     14  C   UNL     1      -1.750   1.967   3.709  0.00  0.00    +0.162 A 
ATOM     15  C   UNL     1      -2.360   1.349   2.630  0.00  0.00    +0.055 A 
ATOM     16  C   UNL     1      -2.157   1.833   1.351  0.00  0.00    -0.018 A 
ATOM     17  C   UNL     1      -1.355   2.940   1.147  0.00  0.00    +0.009 A 
ATOM     18  C   UNL     1      -0.748   3.565   2.220  0.00  0.00    +0.050 A 
ATOM     19  C   UNL     1      -0.942   3.081   3.504  0.00  0.00    +0.162 A 
BRANCH  14  20
ATOM     20  O   UNL     1      -1.943   1.488   4.968  0.00  0.00    -0.489 OA
BRANCH  20  22
ATOM     21  C   UNL     1      -3.053   0.099   6.604  0.00  0.00    +0.048 C 
ATOM     22  C   UNL     1      -2.879   0.419   5.118  0.00  0.00    +0.226 C 
ENDBRANCH  20  22
ENDBRANCH  14  20
BRANCH  19  23
ATOM     23  O   UNL     1      -0.344   3.694   4.561  0.00  0.00    -0.484 OA
BRANCH  23  24
ATOM     24  C   UNL     1       0.471   4.832   4.274  0.00  0.00    +0.256 C 
BRANCH  24  25
ATOM     25  C   UNL     1       1.045   5.374   5.558  0.00  0.00    +0.006 C 
ATOM     26  C   UNL     1       2.311   5.707   5.620  0.00  0.00    +0.007 C 
ENDBRANCH  24  25
ENDBRANCH  23  24
ENDBRANCH  19  23
ENDBRANCH   1  16
BRANCH   2  27
ATOM     27  C   UNL     1      -1.131  -0.898   0.052  0.00  0.00    +0.230 C 
ATOM     28  O   UNL     1      -0.975  -2.099   0.190  0.00  0.00    -0.283 OA
BRANCH  27  29
ATOM     29  C   UNL     1       0.022  -0.036  -0.227  0.00  0.00    +0.175 A 
ATOM     30  C   UNL     1       1.345  -0.423  -0.222  0.00  0.00    +0.053 A 
ATOM     31  C   UNL     1       2.096   0.717  -0.540  0.00  0.00    +0.045 A 
ATOM     32  C   UNL     1       1.222   1.733  -0.723  0.00  0.00    +0.103 A 
ATOM     33  O   UNL     1      -0.023   1.276  -0.534  0.00  0.00    -0.457 OA
ATOM     34  C   UNL     1       1.589   3.150  -1.082  0.00  0.00    +0.086 C 
ENDBRANCH  27  29
ENDBRANCH   2  27
TORSDOF 8
