REMARK  Name = ZINC05058823
REMARK  5 active torsions:
REMARK  status: ('A' for Active; 'I' for Inactive)
REMARK    1  A    between atoms: C_1  and  C_2
REMARK    2  A    between atoms: C_7  and  N_12
REMARK    3  A    between atoms: C_9  and  C_11
REMARK    4  A    between atoms: C_13  and  C_15
REMARK    5  A    between atoms: C_16  and  C_26
REMARK                            x       y       z     vdW  Elec       q    Type
REMARK                         _______ _______ _______ _____ _____    ______ ____
ROOT
ATOM      1  N   UNL     1      -0.612  -2.548   1.244  0.00  0.00    -0.308 N 
ATOM      2  C   UNL     1      -0.873  -3.776   1.733  0.00  0.00    +0.245 C 
ATOM      3  O   UNL     1       0.031  -4.463   2.165  0.00  0.00    -0.270 OA
ATOM      4  H   UNL     1      -1.333  -2.000   0.898  0.00  0.00    +0.149 HD
ENDROOT
BRANCH   2   5
ATOM      5  C   UNL     1      -2.259  -4.287   1.743  0.00  0.00    +0.067 C 
ATOM      6  C   UNL     1      -2.670  -5.482   2.202  0.00  0.00    +0.045 C 
ATOM      7  C   UNL     1      -4.128  -5.580   2.021  0.00  0.00    +0.336 C 
ATOM      8  O   UNL     1      -4.809  -6.535   2.334  0.00  0.00    -0.245 OA
ATOM      9  O   UNL     1      -4.593  -4.450   1.456  0.00  0.00    -0.450 OA
ATOM     10  C   UNL     1      -3.489  -3.568   1.247  0.00  0.00    +0.144 C 
ATOM     11  C   UNL     1      -3.346  -3.255  -0.242  0.00  0.00    +0.053 C 
ATOM     12  C   UNL     1      -4.606  -2.542  -0.736  0.00  0.00    +0.004 C 
ATOM     13  C   UNL     1      -4.798  -1.243   0.049  0.00  0.00    +0.000 C 
ATOM     14  C   UNL     1      -4.950  -1.563   1.538  0.00  0.00    +0.004 C 
ATOM     15  C   UNL     1      -3.690  -2.275   2.037  0.00  0.00    +0.053 C 
ATOM     16  C   UNL     1      -1.786  -6.545   2.801  0.00  0.00    +0.052 C 
ENDBRANCH   2   5
BRANCH   1  22
ATOM     17  C   UNL     1      -0.019   1.526   0.010  0.00  0.00    +0.008 C 
ATOM     18  C   UNL     1       0.002  -0.004   0.002  0.00  0.00    -0.009 C 
ATOM     19  C   UNL     1       0.718  -0.497  -1.257  0.00  0.00    +0.003 C 
ATOM     20  C   UNL     1       0.739  -2.027  -1.265  0.00  0.00    +0.002 C 
ATOM     21  C   UNL     1       1.479  -2.534  -0.026  0.00  0.00    +0.022 C 
ATOM     22  C   UNL     1       0.763  -2.041   1.233  0.00  0.00    +0.076 C 
ATOM     23  C   UNL     1       0.742  -0.511   1.242  0.00  0.00    +0.009 C 
ATOM     24  C   UNL     1       0.026  -0.018   2.500  0.00  0.00    +0.009 C 
ENDBRANCH   1  22
TORSDOF 2
