REMARK  Name = ZINC39487054
REMARK  10 active torsions:
REMARK  status: ('A' for Active; 'I' for Inactive)
REMARK    1  A    between atoms: C_1  and  C_2
REMARK    2  A    between atoms: C_2  and  C_3
REMARK    3  A    between atoms: C_3  and  C_36
REMARK    4  A    between atoms: N_5  and  C_29
REMARK    5  A    between atoms: N_8  and  C_9
REMARK    6  A    between atoms: C_9  and  C_10
REMARK    7  A    between atoms: C_10  and  C_23
REMARK    8  A    between atoms: N_13  and  C_16
REMARK    9  A    between atoms: C_16  and  C_17
REMARK   10  A    between atoms: C_34  and  O_35
REMARK                            x       y       z     vdW  Elec       q    Type
REMARK                         _______ _______ _______ _____ _____    ______ ____
ROOT
ATOM      1  C   UNL     1      -1.383  -3.049   1.882  0.00  0.00    -0.014 C 
ATOM      2  C   UNL     1      -2.515  -3.644   1.040  0.00  0.00    -0.010 C 
ATOM      3  C   UNL     1      -2.941  -2.629  -0.023  0.00  0.00    -0.078 C 
ATOM      4  N   UNL     1      -3.408  -1.399   0.629  0.00  0.00    +0.382 N 
ATOM      5  C   UNL     1      -2.306  -0.785   1.380  0.00  0.00    -0.078 C 
ATOM      6  C   UNL     1      -1.856  -1.729   2.497  0.00  0.00    -0.010 C 
ATOM      7  H   UNL     1      -4.162  -1.621   1.261  0.00  0.00    -0.081 HD
ENDROOT
BRANCH   1   8
ATOM      8  C   UNL     1      -1.004  -4.026   2.997  0.00  0.00    -0.003 C 
ATOM      9  C   UNL     1      -0.712  -5.401   2.392  0.00  0.00    +0.004 C 
ATOM     10  C   UNL     1      -0.333  -6.378   3.507  0.00  0.00    +0.000 C 
ATOM     11  C   UNL     1      -1.492  -6.493   4.500  0.00  0.00    +0.000 C 
ATOM     12  C   UNL     1      -1.784  -5.119   5.104  0.00  0.00    +0.000 C 
ATOM     13  C   UNL     1      -2.163  -4.141   3.989  0.00  0.00    +0.004 C 
ENDBRANCH   1   8
BRANCH   1  14
ATOM     14  C   UNL     1      -0.165  -2.792   0.992  0.00  0.00    +0.117 C 
BRANCH  14  20
ATOM     15  C   UNL     1       2.135  -2.785   2.224  0.00  0.00    +0.052 C 
ATOM     16  C   UNL     1       2.864  -1.672   3.001  0.00  0.00    +0.141 C 
ATOM     17  N   UNL     1       1.950  -0.523   2.913  0.00  0.00    -0.250 N 
ATOM     18  C   UNL     1       0.866  -0.876   2.210  0.00  0.00    +0.310 C 
ATOM     19  O   UNL     1      -0.054  -0.115   1.984  0.00  0.00    -0.252 OA
ATOM     20  N   UNL     1       0.887  -2.145   1.780  0.00  0.00    -0.278 N 
ATOM     21  C   UNL     1       1.832  -3.973   3.138  0.00  0.00    +0.033 C 
BRANCH  17  22
ATOM     22  C   UNL     1       2.178   0.741   3.474  0.00  0.00    +0.079 A 
ATOM     23  C   UNL     1       2.736   1.753   2.707  0.00  0.00    +0.027 A 
ATOM     24  C   UNL     1       2.959   2.998   3.263  0.00  0.00    +0.002 A 
ATOM     25  C   UNL     1       2.628   3.239   4.584  0.00  0.00    +0.004 A 
ATOM     26  C   UNL     1       2.072   2.235   5.355  0.00  0.00    +0.047 A 
ATOM     27  C   UNL     1       1.840   0.986   4.803  0.00  0.00    +0.138 A 
BRANCH  27  28
ATOM     28  O   UNL     1       1.287  -0.001   5.559  0.00  0.00    -0.505 OA
ATOM     29  H   UNL     1       1.927  -0.495   6.089  0.00  0.00    +0.292 HD
ENDBRANCH  27  28
ENDBRANCH  17  22
BRANCH  15  31
ATOM     30  C   UNL     1       4.256  -3.894   1.510  0.00  0.00    +0.006 C 
ATOM     31  C   UNL     1       2.966  -3.233   1.020  0.00  0.00    +0.024 C 
ENDBRANCH  15  31
ENDBRANCH  14  20
ENDBRANCH   1  14
BRANCH   4  32
ATOM     32  C   UNL     1      -3.888  -0.458  -0.392  0.00  0.00    -0.043 C 
BRANCH  32  33
ATOM     33  C   UNL     1      -4.495   0.746   0.281  0.00  0.00    -0.064 A 
ATOM     34  C   UNL     1      -5.841   0.754   0.598  0.00  0.00    +0.002 A 
ATOM     35  C   UNL     1      -6.399   1.858   1.216  0.00  0.00    +0.000 A 
ATOM     36  C   UNL     1      -5.611   2.953   1.517  0.00  0.00    +0.000 A 
ATOM     37  C   UNL     1      -4.265   2.944   1.201  0.00  0.00    +0.000 A 
ATOM     38  C   UNL     1      -3.707   1.839   0.587  0.00  0.00    +0.002 A 
ENDBRANCH  32  33
ENDBRANCH   4  32
TORSDOF 8
