REMARK  Name = ZINC19020330
REMARK  10 active torsions:
REMARK  status: ('A' for Active; 'I' for Inactive)
REMARK    1  A    between atoms: C_1  and  C_2
REMARK    2  A    between atoms: C_2  and  C_3
REMARK    3  A    between atoms: C_2  and  N_4
REMARK    4  A    between atoms: N_4  and  C_5
REMARK    5  A    between atoms: C_11  and  C_13
REMARK    6  A    between atoms: C_13  and  S_14
REMARK    7  A    between atoms: S_14  and  C_15
REMARK    8  A    between atoms: C_18  and  C_27
REMARK    9  A    between atoms: N_19  and  C_20
REMARK   10  A    between atoms: C_27  and  N_28
REMARK                            x       y       z     vdW  Elec       q    Type
REMARK                         _______ _______ _______ _____ _____    ______ ____
ROOT
ATOM      1  C   UNL     1       4.900   5.360  -0.192  0.00  0.00    +0.197 A 
ATOM      2  N   UNL     1       5.802   4.423  -0.368  0.00  0.00    -0.122 NA
ATOM      3  N   UNL     1       6.971   4.950  -0.455  0.00  0.00    -0.135 NA
ATOM      4  C   UNL     1       6.889   6.245  -0.332  0.00  0.00    +0.122 A 
ATOM      5  N   UNL     1       5.566   6.554  -0.159  0.00  0.00    -0.276 N 
ENDROOT
BRANCH   5   6
ATOM      6  C   UNL     1       5.009   7.831   0.016  0.00  0.00    +0.050 A 
ATOM      7  C   UNL     1       5.083   8.767  -1.006  0.00  0.00    +0.029 A 
ATOM      8  C   UNL     1       4.530  10.021  -0.835  0.00  0.00    +0.040 A 
ATOM      9  C   UNL     1       3.912  10.348   0.360  0.00  0.00    +0.124 A 
ATOM     10  C   UNL     1       3.842   9.417   1.383  0.00  0.00    +0.040 A 
ATOM     11  C   UNL     1       4.389   8.161   1.213  0.00  0.00    +0.029 A 
ATOM     12  F   UNL     1       3.376  11.577   0.528  0.00  0.00    -0.205 F 
ENDBRANCH   5   6
BRANCH   1  13
ATOM     13  S   UNL     1       3.163   5.124  -0.022  0.00  0.00    -0.076 S 
BRANCH  13  14
ATOM     14  C   UNL     1       3.074   3.322  -0.172  0.00  0.00    +0.173 C 
BRANCH  14  16
ATOM     15  N   UNL     1       1.340   1.564  -0.036  0.00  0.00    -0.295 N 
ATOM     16  C   UNL     1       1.639   2.878  -0.054  0.00  0.00    +0.226 C 
ATOM     17  O   UNL     1       0.753   3.703   0.026  0.00  0.00    -0.275 OA
BRANCH  15  18
ATOM     18  C   UNL     1      -0.060   1.131  -0.029  0.00  0.00    +0.076 C 
ATOM     19  C   UNL     1      -0.759   1.686   1.214  0.00  0.00    +0.022 C 
ATOM     20  C   UNL     1      -2.221   1.235   1.221  0.00  0.00    +0.002 C 
ATOM     21  C   UNL     1      -2.922   1.757  -0.034  0.00  0.00    +0.000 C 
ATOM     22  C   UNL     1      -2.224   1.202  -1.277  0.00  0.00    +0.002 C 
ATOM     23  C   UNL     1      -0.762   1.654  -1.284  0.00  0.00    +0.022 C 
ENDBRANCH  15  18
BRANCH  15  25
ATOM     24  C   UNL     1       2.373  -0.211   1.292  0.00  0.00    +0.028 C 
ATOM     25  C   UNL     1       2.414   0.568  -0.025  0.00  0.00    +0.070 C 
ATOM     26  C   UNL     1       2.225  -0.400  -1.195  0.00  0.00    +0.028 C 
ENDBRANCH  15  25
ENDBRANCH  14  16
ENDBRANCH  13  14
ENDBRANCH   1  13
BRANCH   4  27
ATOM     27  C   UNL     1       8.037   7.221  -0.371  0.00  0.00    -0.001 C 
BRANCH  27  28
ATOM     28  N   UNL     1       8.560   7.416   0.988  0.00  0.00    +0.384 N 
ATOM     29  C   UNL     1       7.566   8.072   1.846  0.00  0.00    -0.078 C 
ATOM     30  C   UNL     1       8.087   8.128   3.284  0.00  0.00    -0.019 C 
ATOM     31  C   UNL     1       9.406   8.904   3.313  0.00  0.00    -0.004 C 
ATOM     32  C   UNL     1      10.409   8.227   2.375  0.00  0.00    -0.019 C 
ATOM     33  C   UNL     1       9.820   8.169   0.963  0.00  0.00    -0.078 C 
ATOM     34  H   UNL     1       8.770   6.425   1.417  0.00  0.00    -0.081 HD
ENDBRANCH  27  28
ENDBRANCH   4  27
TORSDOF 8
