REMARK  Name = ZINC40433699
REMARK  4 active torsions:
REMARK  status: ('A' for Active; 'I' for Inactive)
REMARK    1  A    between atoms: C_5  and  S_7
REMARK    2  A    between atoms: S_7  and  N_10
REMARK    3  A    between atoms: N_10  and  C_11
REMARK    4  A    between atoms: C_16  and  N_18
REMARK                            x       y       z     vdW  Elec       q    Type
REMARK                         _______ _______ _______ _____ _____    ______ ____
ROOT
ATOM      1  N   UNL     1       1.969  -3.162  -1.142  0.00  0.00    -0.185 NA
ATOM      2  H   UNL     1       1.141  -2.840  -1.532  0.00  0.00    +0.148 HD
ENDROOT
BRANCH   1   3
ATOM      3  C   UNL     1       3.255  -2.732  -1.697  0.00  0.00    +0.099 C 
ATOM      4  C   UNL     1       3.154  -1.275  -2.196  0.00  0.00    +0.022 C 
ATOM      5  C   UNL     1       4.024  -1.252  -3.477  0.00  0.00    +0.004 C 
ATOM      6  C   UNL     1       3.721  -2.628  -4.121  0.00  0.00    +0.027 C 
ATOM      7  C   UNL     1       3.615  -3.593  -2.920  0.00  0.00    +0.107 C 
BRANCH   7   8
ATOM      8  N   UNL     1       2.565  -4.584  -3.163  0.00  0.00    -0.332 N 
ATOM      9  C   UNL     1       2.683  -5.941  -3.031  0.00  0.00    +0.107 A 
ATOM     10  C   UNL     1       1.486  -6.470  -3.350  0.00  0.00    +0.130 A 
ATOM     11  N   UNL     1       0.659  -5.462  -3.668  0.00  0.00    -0.244 NA
ATOM     12  C   UNL     1       1.297  -4.330  -3.553  0.00  0.00    +0.199 A 
ENDBRANCH   7   8
ENDBRANCH   1   3
BRANCH   1  13
ATOM     13  S   UNL     1       1.929  -4.196   0.151  0.00  0.00    +0.060 S 
ATOM     14  O   UNL     1       2.801  -5.272  -0.163  0.00  0.00    -0.153 OA
ATOM     15  O   UNL     1       0.558  -4.394   0.470  0.00  0.00    -0.153 OA
BRANCH  13  20
ATOM     16  C   UNL     1       4.386  -3.147   3.152  0.00  0.00    +0.002 A 
ATOM     17  C   UNL     1       3.774  -2.018   3.665  0.00  0.00    +0.001 A 
ATOM     18  C   UNL     1       2.599  -1.554   3.106  0.00  0.00    +0.017 A 
ATOM     19  C   UNL     1       2.034  -2.219   2.031  0.00  0.00    +0.044 A 
ATOM     20  C   UNL     1       2.647  -3.348   1.518  0.00  0.00    +0.119 A 
ATOM     21  C   UNL     1       3.822  -3.811   2.079  0.00  0.00    +0.029 A 
ATOM     22 BR   UNL     1       0.426  -1.585   1.265  0.00  0.00    -0.048 Br
ENDBRANCH  13  20
ENDBRANCH   1  13
TORSDOF 4
