REMARK  Name = ZINC09159975
REMARK  6 active torsions:
REMARK  status: ('A' for Active; 'I' for Inactive)
REMARK    1  A    between atoms: C_1  and  O_2
REMARK    2  A    between atoms: O_2  and  C_3
REMARK    3  A    between atoms: C_6  and  C_9
REMARK    4  A    between atoms: C_10  and  C_27
REMARK    5  A    between atoms: C_10  and  C_31
REMARK    6  A    between atoms: N_18  and  C_21
REMARK                            x       y       z     vdW  Elec       q    Type
REMARK                         _______ _______ _______ _____ _____    ______ ____
ROOT
ATOM      1  C   UNL     1      -0.388  -0.978   1.984  0.00  0.00    +0.106 C 
ATOM      2  C   UNL     1       0.563  -2.944   0.940  0.00  0.00    +0.264 C 
ATOM      3  C   UNL     1      -0.428  -2.697  -0.162  0.00  0.00    +0.098 A 
ATOM      4  C   UNL     1      -0.362  -3.439  -1.354  0.00  0.00    +0.262 A 
ATOM      5  O   UNL     1       0.504  -4.283  -1.506  0.00  0.00    -0.267 OA
ATOM      6  N   UNL     1      -1.266  -3.211  -2.327  0.00  0.00    -0.274 N 
ATOM      7  H   UNL     1      -1.222  -3.737  -3.177  0.00  0.00    +0.173 HD
ATOM      8  C   UNL     1      -2.227  -2.283  -2.168  0.00  0.00    +0.335 A 
ATOM      9  O   UNL     1      -3.034  -2.097  -3.059  0.00  0.00    -0.246 OA
ATOM     10  N   UNL     1      -2.308  -1.557  -1.037  0.00  0.00    -0.250 N 
ATOM     11  C   UNL     1      -1.405  -1.757  -0.022  0.00  0.00    +0.124 A 
ATOM     12  N   UNL     1      -1.476  -1.017   1.135  0.00  0.00    -0.286 N 
ATOM     13  H   UNL     1      -2.284  -0.527   1.353  0.00  0.00    +0.155 HD
ATOM     14  N   UNL     1       0.636  -1.839   1.960  0.00  0.00    -0.348 N 
ATOM     15  H   UNL     1       1.431  -1.751   2.605  0.00  0.00    +0.162 HD
ENDROOT
BRANCH   1  19
ATOM     16  C   UNL     1      -0.155   2.084   4.921  0.00  0.00    +0.120 A 
ATOM     17  C   UNL     1       0.858   1.139   4.824  0.00  0.00    +0.046 A 
ATOM     18  C   UNL     1       0.786   0.144   3.873  0.00  0.00    +0.015 A 
ATOM     19  C   UNL     1      -0.307   0.088   3.006  0.00  0.00    +0.013 A 
ATOM     20  C   UNL     1      -1.320   1.043   3.103  0.00  0.00    +0.015 A 
ATOM     21  C   UNL     1      -1.244   2.032   4.059  0.00  0.00    +0.046 A 
BRANCH  16  23
ATOM     22  C   UNL     1      -1.157   4.002   5.904  0.00  0.00    +0.277 C 
ATOM     23  O   UNL     1      -0.081   3.063   5.859  0.00  0.00    -0.495 OA
ENDBRANCH  16  23
ENDBRANCH   1  19
BRANCH  10  24
ATOM     24  C   UNL     1      -3.318  -0.596  -0.895  0.00  0.00    +0.053 A 
ATOM     25  C   UNL     1      -3.090   0.716  -1.288  0.00  0.00    +0.026 A 
ATOM     26  C   UNL     1      -4.088   1.661  -1.151  0.00  0.00    +0.002 A 
ATOM     27  C   UNL     1      -5.311   1.303  -0.614  0.00  0.00    +0.000 A 
ATOM     28  C   UNL     1      -5.540  -0.002  -0.216  0.00  0.00    +0.002 A 
ATOM     29  C   UNL     1      -4.547  -0.952  -0.355  0.00  0.00    +0.026 A 
ENDBRANCH  10  24
BRANCH   2  30
ATOM     30  C   UNL     1       0.200  -4.246   1.657  0.00  0.00    +0.426 C 
ATOM     31  F   UNL     1       0.237  -5.306   0.746  0.00  0.00    -0.167 F 
ATOM     32  F   UNL     1       1.119  -4.482   2.686  0.00  0.00    -0.167 F 
ATOM     33  F   UNL     1      -1.086  -4.139   2.196  0.00  0.00    -0.167 F 
ENDBRANCH   2  30
BRANCH   2  34
ATOM     34  C   UNL     1       1.962  -3.078   0.336  0.00  0.00    +0.426 C 
ATOM     35  F   UNL     1       2.155  -2.075  -0.620  0.00  0.00    -0.167 F 
ATOM     36  F   UNL     1       2.921  -2.949   1.346  0.00  0.00    -0.167 F 
ATOM     37  F   UNL     1       2.089  -4.331  -0.272  0.00  0.00    -0.167 F 
ENDBRANCH   2  34
TORSDOF 5
