REMARK  Name = ZINC39928846
REMARK  14 active torsions:
REMARK  status: ('A' for Active; 'I' for Inactive)
REMARK    1  A    between atoms: C_1  and  C_2
REMARK    2  A    between atoms: C_5  and  N_9
REMARK    3  A    between atoms: C_6  and  C_8
REMARK    4  A    between atoms: N_9  and  C_10
REMARK    5  A    between atoms: C_10  and  C_11
REMARK    6  A    between atoms: C_17  and  O_23
REMARK    7  A    between atoms: O_23  and  C_24
REMARK    8  A    between atoms: C_25  and  C_27
REMARK    9  A    between atoms: C_29  and  O_37
REMARK   10  A    between atoms: C_30  and  O_35
REMARK   11  A    between atoms: C_31  and  O_33
REMARK   12  A    between atoms: O_33  and  C_34
REMARK   13  A    between atoms: O_35  and  C_36
REMARK   14  A    between atoms: O_37  and  C_38
REMARK                            x       y       z     vdW  Elec       q    Type
REMARK                         _______ _______ _______ _____ _____    ______ ____
ROOT
ATOM      1  N   UNL     1      -0.391  -3.913  -0.053  0.00  0.00    -0.266 N 
ATOM      2  C   UNL     1      -1.584  -4.498   0.171  0.00  0.00    +0.251 C 
ATOM      3  O   UNL     1      -1.655  -5.706   0.299  0.00  0.00    -0.270 OA
ENDROOT
BRANCH   1   8
ATOM      4  C   UNL     1      -0.093   1.687  -0.905  0.00  0.00    +0.044 C 
ATOM      5  C   UNL     1      -0.172   0.199  -0.679  0.00  0.00    -0.050 A 
ATOM      6  C   UNL     1       0.194  -0.333   0.544  0.00  0.00    +0.005 A 
ATOM      7  C   UNL     1       0.123  -1.696   0.754  0.00  0.00    +0.024 A 
ATOM      8  C   UNL     1      -0.318  -2.532  -0.263  0.00  0.00    +0.040 A 
ATOM      9  C   UNL     1      -0.686  -1.994  -1.490  0.00  0.00    -0.029 A 
ATOM     10  C   UNL     1      -0.617  -0.630  -1.692  0.00  0.00    +0.008 A 
ATOM     11  C   UNL     1      -1.164  -2.898  -2.597  0.00  0.00    +0.045 C 
ENDBRANCH   1   8
BRANCH   2  12
ATOM     12  C   UNL     1      -2.805  -3.675   0.260  0.00  0.00    +0.044 A 
ATOM     13  C   UNL     1      -3.993  -4.118  -0.326  0.00  0.00    +0.062 A 
ATOM     14  C   UNL     1      -5.136  -3.344  -0.241  0.00  0.00    +0.166 A 
ATOM     15  C   UNL     1      -5.103  -2.124   0.429  0.00  0.00    +0.204 A 
ATOM     16  C   UNL     1      -3.920  -1.680   1.014  0.00  0.00    +0.166 A 
ATOM     17  C   UNL     1      -2.776  -2.452   0.936  0.00  0.00    +0.062 A 
BRANCH  16  18
ATOM     18  O   UNL     1      -3.891  -0.487   1.667  0.00  0.00    -0.491 OA
ATOM     19  C   UNL     1      -2.644  -0.093   2.243  0.00  0.00    +0.277 C 
ENDBRANCH  16  18
BRANCH  15  20
ATOM     20  O   UNL     1      -6.227  -1.365   0.511  0.00  0.00    -0.488 OA
ATOM     21  C   UNL     1      -7.080  -1.589   1.635  0.00  0.00    +0.277 C 
ENDBRANCH  15  20
BRANCH  14  22
ATOM     22  O   UNL     1      -6.292  -3.775  -0.812  0.00  0.00    -0.491 OA
ATOM     23  C   UNL     1      -6.284  -5.084  -1.386  0.00  0.00    +0.277 C 
ENDBRANCH  14  22
ENDBRANCH   2  12
BRANCH   1  24
ATOM     24  C   UNL     1       0.830  -4.723  -0.077  0.00  0.00    +0.131 C 
BRANCH  24  25
ATOM     25  C   UNL     1       1.478  -4.709   1.308  0.00  0.00    +0.116 C 
ATOM     26  C   UNL     1       2.890  -5.243   1.166  0.00  0.00    -0.003 C 
ATOM     27  C   UNL     1       3.223  -6.335   1.906  0.00  0.00    -0.007 A 
ATOM     28  C   UNL     1       4.567  -6.911   1.826  0.00  0.00    +0.013 A 
ATOM     29  C   UNL     1       4.863  -7.999   2.578  0.00  0.00    +0.046 A 
ATOM     30  C   UNL     1       3.909  -8.579   3.426  0.00  0.00    +0.122 A 
ATOM     31  C   UNL     1       2.629  -8.082   3.544  0.00  0.00    +0.069 A 
ATOM     32  C   UNL     1       2.234  -6.960   2.804  0.00  0.00    +0.044 A 
ATOM     33  N   UNL     1       0.991  -6.487   2.926  0.00  0.00    -0.284 N 
ATOM     34  C   UNL     1       0.553  -5.434   2.260  0.00  0.00    +0.226 C 
ATOM     35  O   UNL     1      -0.591  -5.048   2.413  0.00  0.00    -0.275 OA
ATOM     36  H   UNL     1       0.382  -6.938   3.531  0.00  0.00    +0.155 HD
BRANCH  30  37
ATOM     37  O   UNL     1       4.258  -9.666   4.156  0.00  0.00    -0.495 OA
ATOM     38  C   UNL     1       5.594 -10.148   4.003  0.00  0.00    +0.277 C 
ENDBRANCH  30  37
ENDBRANCH  24  25
ENDBRANCH   1  24
TORSDOF 8
