REMARK  Name = ZINC33476102
REMARK  12 active torsions:
REMARK  status: ('A' for Active; 'I' for Inactive)
REMARK    1  A    between atoms: C_1  and  C_2
REMARK    2  A    between atoms: C_2  and  C_3
REMARK    3  A    between atoms: C_2  and  C_4
REMARK    4  A    between atoms: C_4  and  N_5
REMARK    5  A    between atoms: N_5  and  C_6
REMARK    6  A    between atoms: C_6  and  C_7
REMARK    7  A    between atoms: N_9  and  C_10
REMARK    8  A    between atoms: N_9  and  C_20
REMARK    9  A    between atoms: C_10  and  C_11
REMARK   10  A    between atoms: C_20  and  C_21
REMARK   11  A    between atoms: N_28  and  C_29
REMARK   12  A    between atoms: C_32  and  C_35
REMARK                            x       y       z     vdW  Elec       q    Type
REMARK                         _______ _______ _______ _____ _____    ______ ____
ROOT
ATOM      1  C   UNL     1       3.899   2.280   1.516  0.00  0.00    +0.234 C 
ATOM      2  O   UNL     1       3.202   1.904   2.435  0.00  0.00    -0.274 OA
ATOM      3  N   UNL     1       4.994   3.026   1.763  0.00  0.00    -0.291 N 
ENDROOT
BRANCH   1   4
ATOM      4  C   UNL     1       3.540   1.915   0.099  0.00  0.00    +0.205 C 
BRANCH   4   5
ATOM      5  N   UNL     1       2.317   1.108   0.098  0.00  0.00    -0.276 N 
ATOM      6  C   UNL     1       1.114   1.708   0.009  0.00  0.00    +0.307 C 
ATOM      7  O   UNL     1       1.043   2.919  -0.070  0.00  0.00    -0.252 OA
ATOM      8  N   UNL     1      -0.011   0.966   0.007  0.00  0.00    -0.269 N 
ATOM      9  H   UNL     1       0.054  -0.132   0.010  0.00  0.00    +0.156 HD
BRANCH   8  10
ATOM     10  C   UNL     1      -1.259   1.590   0.003  0.00  0.00    +0.035 A 
ATOM     11  C   UNL     1      -1.435   2.784  -0.689  0.00  0.00    +0.024 A 
ATOM     12  C   UNL     1      -2.667   3.400  -0.700  0.00  0.00    +0.020 A 
ATOM     13  C   UNL     1      -3.737   2.830  -0.005  0.00  0.00    +0.052 A 
ATOM     14  C   UNL     1      -3.555   1.633   0.694  0.00  0.00    +0.020 A 
ATOM     15  C   UNL     1      -2.322   1.020   0.696  0.00  0.00    +0.024 A 
BRANCH  13  16
ATOM     16  C   UNL     1      -5.018   3.470  -0.010  0.00  0.00    +0.099 C 
ATOM     17  N   UNL     1      -6.035   3.978  -0.014  0.00  0.00    -0.191 NA
ENDBRANCH  13  16
ENDBRANCH   8  10
BRANCH   5  18
ATOM     18  C   UNL     1       2.402  -0.352   0.193  0.00  0.00    +0.113 C 
BRANCH  18  20
ATOM     19  C   UNL     1       2.708  -2.462  -1.109  0.00  0.00    +0.009 C 
ATOM     20  C   UNL     1       2.494  -0.950  -1.212  0.00  0.00    +0.000 C 
ATOM     21  C   UNL     1       1.195  -0.669  -1.971  0.00  0.00    +0.009 C 
ENDBRANCH  18  20
ENDBRANCH   5  18
ENDBRANCH   4   5
ENDBRANCH   1   4
BRANCH   3  22
ATOM     22  C   UNL     1       5.343   3.381   3.141  0.00  0.00    +0.143 C 
BRANCH  22  23
ATOM     23  C   UNL     1       6.243   2.321   3.721  0.00  0.00    -0.026 A 
ATOM     24  C   UNL     1       5.695   1.241   4.389  0.00  0.00    +0.009 A 
ATOM     25  C   UNL     1       6.516   0.263   4.918  0.00  0.00    +0.050 A 
ATOM     26  C   UNL     1       7.892   0.368   4.790  0.00  0.00    +0.166 A 
ATOM     27  C   UNL     1       8.444   1.459   4.122  0.00  0.00    +0.167 A 
ATOM     28  C   UNL     1       7.614   2.432   3.590  0.00  0.00    +0.054 A 
ATOM     29  O   UNL     1       9.803   1.333   4.131  0.00  0.00    -0.453 OA
ATOM     30  C   UNL     1      10.093   0.371   5.162  0.00  0.00    +0.466 C 
ATOM     31  O   UNL     1       8.905  -0.440   5.218  0.00  0.00    -0.453 OA
ENDBRANCH  22  23
ENDBRANCH   3  22
BRANCH   3  32
ATOM     32  C   UNL     1       5.836   3.480   0.654  0.00  0.00    +0.150 C 
BRANCH  32  33
ATOM     33  C   UNL     1       5.345   4.819   0.166  0.00  0.00    +0.007 A 
ATOM     34  C   UNL     1       5.701   6.060   0.576  0.00  0.00    +0.013 A 
ATOM     35  C   UNL     1       5.115   7.159  -0.024  0.00  0.00    +0.008 A 
ATOM     36  C   UNL     1       4.193   6.962  -0.998  0.00  0.00    +0.045 A 
ATOM     37  S   UNL     1       4.136   5.180  -1.097  0.00  0.00    -0.100 S 
ENDBRANCH  32  33
ENDBRANCH   3  32
TORSDOF 10
