REMARK  Name = ZINC65181729
REMARK  8 active torsions:
REMARK  status: ('A' for Active; 'I' for Inactive)
REMARK    1  A    between atoms: C_1  and  N_2
REMARK    2  A    between atoms: N_2  and  C_3
REMARK    3  A    between atoms: C_3  and  C_4
REMARK    4  A    between atoms: C_4  and  C_5
REMARK    5  A    between atoms: C_8  and  C_11
REMARK    6  A    between atoms: C_17  and  O_21
REMARK    7  A    between atoms: O_21  and  C_22
REMARK    8  A    between atoms: C_23  and  C_25
REMARK                            x       y       z     vdW  Elec       q    Type
REMARK                         _______ _______ _______ _____ _____    ______ ____
ROOT
ATOM      1  C   UNL     1      -1.070  -1.794   3.140  0.00  0.00    +0.139 C 
ATOM      2  N   UNL     1       0.059  -2.126   3.651  0.00  0.00    -0.072 NA
ATOM      3  O   UNL     1      -0.120  -2.828   4.867  0.00  0.00    -0.367 OA
ATOM      4  C   UNL     1      -1.538  -2.909   5.080  0.00  0.00    +0.318 C 
ATOM      5  N   UNL     1      -2.121  -2.212   3.923  0.00  0.00    -0.291 N 
ATOM      6  H   UNL     1      -3.065  -2.075   3.746  0.00  0.00    +0.151 HD
ENDROOT
BRANCH   4   7
ATOM      7  C   UNL     1      -1.991  -4.371   5.117  0.00  0.00    +0.165 C 
ATOM      8  C   UNL     1      -3.480  -4.449   5.365  0.00  0.00    +0.012 C 
ATOM      9  C   UNL     1      -3.633  -5.129   6.522  0.00  0.00    -0.004 A 
ATOM     10  C   UNL     1      -4.820  -5.529   7.290  0.00  0.00    +0.013 A 
ATOM     11  C   UNL     1      -4.657  -6.218   8.439  0.00  0.00    +0.046 A 
ATOM     12  C   UNL     1      -3.379  -6.563   8.919  0.00  0.00    +0.122 A 
ATOM     13  C   UNL     1      -2.239  -6.227   8.263  0.00  0.00    +0.071 A 
ATOM     14  C   UNL     1      -2.300  -5.503   7.046  0.00  0.00    +0.046 A 
ATOM     15  N   UNL     1      -1.356  -5.069   6.240  0.00  0.00    -0.373 N 
ATOM     16  H   UNL     1      -0.402  -5.189   6.366  0.00  0.00    +0.160 HD
BRANCH  12  17
ATOM     17  O   UNL     1      -3.284  -7.256  10.080  0.00  0.00    -0.495 OA
ATOM     18  C   UNL     1      -4.507  -7.590  10.739  0.00  0.00    +0.277 C 
ENDBRANCH  12  17
ENDBRANCH   4   7
BRANCH   1  19
ATOM     19  C   UNL     1      -1.226  -1.035   1.847  0.00  0.00    +0.094 C 
BRANCH  19  20
ATOM     20  C   UNL     1       0.155  -0.742   1.259  0.00  0.00    +0.115 C 
BRANCH  20  22
ATOM     21  C   UNL     1      -0.032   1.460   0.012  0.00  0.00    +0.132 C 
ATOM     22  N   UNL     1       0.004  -0.004   0.002  0.00  0.00    -0.300 N 
ATOM     23  C   UNL     1      -0.102  -0.673  -1.163  0.00  0.00    +0.246 C 
ATOM     24  O   UNL     1      -0.179  -1.886  -1.163  0.00  0.00    -0.270 OA
BRANCH  23  25
ATOM     25  C   UNL     1      -0.124   0.069  -2.442  0.00  0.00    +0.038 A 
ATOM     26  C   UNL     1       0.639   1.228  -2.594  0.00  0.00    +0.013 A 
ATOM     27  C   UNL     1       0.615   1.915  -3.789  0.00  0.00    +0.002 A 
ATOM     28  C   UNL     1      -0.164   1.459  -4.838  0.00  0.00    +0.020 A 
ATOM     29  C   UNL     1      -0.924   0.310  -4.695  0.00  0.00    +0.042 A 
ATOM     30  C   UNL     1      -0.904  -0.390  -3.505  0.00  0.00    +0.033 A 
ATOM     31 CL   UNL     1      -1.898  -0.254  -6.016  0.00  0.00    -0.084 Cl
ENDBRANCH  23  25
ENDBRANCH  20  22
ENDBRANCH  19  20
ENDBRANCH   1  19
TORSDOF 6
