REMARK  Name = ZINC01971858
REMARK  6 active torsions:
REMARK  status: ('A' for Active; 'I' for Inactive)
REMARK    1  A    between atoms: C_1  and  C_2
REMARK    2  A    between atoms: C_7  and  N_12
REMARK    3  A    between atoms: N_12  and  N_13
REMARK    4  A    between atoms: C_14  and  C_16
REMARK    5  A    between atoms: C_17  and  C_29
REMARK    6  A    between atoms: C_18  and  C_23
REMARK                            x       y       z     vdW  Elec       q    Type
REMARK                         _______ _______ _______ _____ _____    ______ ____
ROOT
ATOM      1  C   UNL     1      -0.346  -7.175   1.434  0.00  0.00    +0.115 A 
ATOM      2  C   UNL     1       0.876  -7.705   0.971  0.00  0.00    +0.027 A 
ATOM      3  C   UNL     1       0.825  -8.875   0.190  0.00  0.00    +0.102 A 
ATOM      4  N   UNL     1      -0.347  -9.433  -0.081  0.00  0.00    -0.145 NA
ATOM      5  N   UNL     1      -1.457  -8.949   0.340  0.00  0.00    -0.105 NA
ATOM      6  C   UNL     1      -1.523  -7.856   1.087  0.00  0.00    +0.301 A 
ATOM      7  O   UNL     1      -2.725  -7.395   1.509  0.00  0.00    -0.263 OA
ENDROOT
BRANCH   3   8
ATOM      8  C   UNL     1       2.074  -9.481  -0.327  0.00  0.00    +0.003 A 
ATOM      9  C   UNL     1       3.181  -9.624   0.510  0.00  0.00    +0.010 A 
ATOM     10  C   UNL     1       4.342 -10.189   0.023  0.00  0.00    +0.001 A 
ATOM     11  C   UNL     1       4.409 -10.614  -1.291  0.00  0.00    +0.000 A 
ATOM     12  C   UNL     1       3.315 -10.475  -2.126  0.00  0.00    +0.001 A 
ATOM     13  C   UNL     1       2.147  -9.916  -1.649  0.00  0.00    +0.010 A 
ENDBRANCH   3   8
BRANCH   2  14
ATOM     14  C   UNL     1       2.166  -7.055   1.294  0.00  0.00    -0.015 A 
ATOM     15  C   UNL     1       2.913  -6.442   0.287  0.00  0.00    +0.008 A 
ATOM     16  C   UNL     1       4.115  -5.837   0.594  0.00  0.00    +0.001 A 
ATOM     17  C   UNL     1       4.579  -5.837   1.898  0.00  0.00    +0.000 A 
ATOM     18  C   UNL     1       3.843  -6.443   2.901  0.00  0.00    +0.001 A 
ATOM     19  C   UNL     1       2.637  -7.046   2.607  0.00  0.00    +0.008 A 
ENDBRANCH   2  14
BRANCH   1  21
ATOM     20  N   UNL     1      -0.493  -4.744   1.668  0.00  0.00    -0.232 N 
ATOM     21  C   UNL     1      -0.385  -5.951   2.258  0.00  0.00    +0.266 C 
ATOM     22  O   UNL     1      -0.320  -6.032   3.469  0.00  0.00    -0.268 OA
ATOM     23  H   UNL     1      -0.545  -4.680   0.702  0.00  0.00    +0.173 HD
BRANCH  20  24
ATOM     24  N   UNL     1      -0.531  -3.583   2.450  0.00  0.00    -0.259 N 
ATOM     25  H   UNL     1      -0.566  -3.650   3.417  0.00  0.00    +0.170 HD
BRANCH  24  32
ATOM     26  C   UNL     1      -0.329   1.374  -1.080  0.00  0.00    +0.045 C 
ATOM     27  C   UNL     1      -0.265  -0.122  -0.911  0.00  0.00    -0.029 A 
ATOM     28  C   UNL     1      -0.063  -0.935  -2.014  0.00  0.00    +0.005 A 
ATOM     29  C   UNL     1      -0.001  -2.313  -1.881  0.00  0.00    +0.001 A 
ATOM     30  C   UNL     1      -0.140  -2.900  -0.639  0.00  0.00    +0.012 A 
ATOM     31  C   UNL     1      -0.343  -2.096   0.489  0.00  0.00    +0.024 A 
ATOM     32  C   UNL     1      -0.518  -2.383   1.865  0.00  0.00    +0.116 C 
ATOM     33  C   UNL     1      -0.689  -1.040   2.524  0.00  0.00    +0.264 C 
ATOM     34  O   UNL     1      -0.866  -0.839   3.711  0.00  0.00    -0.268 OA
ATOM     35  N   UNL     1      -0.611  -0.120   1.579  0.00  0.00    -0.280 N 
ATOM     36  C   UNL     1      -0.402  -0.685   0.356  0.00  0.00    +0.046 A 
ATOM     37  H   UNL     1      -0.689   0.834   1.737  0.00  0.00    +0.155 HD
ENDBRANCH  24  32
ENDBRANCH  20  24
ENDBRANCH   1  21
TORSDOF 5
