REMARK  Name = ZINC35743061
REMARK  10 active torsions:
REMARK  status: ('A' for Active; 'I' for Inactive)
REMARK    1  A    between atoms: C_4  and  C_7
REMARK    2  A    between atoms: C_7  and  C_8
REMARK    3  A    between atoms: C_8  and  C_10
REMARK    4  A    between atoms: C_8  and  O_34
REMARK    5  A    between atoms: C_10  and  N_11
REMARK    6  A    between atoms: N_11  and  C_12
REMARK    7  A    between atoms: N_11  and  C_20
REMARK    8  A    between atoms: C_12  and  C_13
REMARK    9  A    between atoms: C_20  and  C_21
REMARK   10  A    between atoms: C_24  and  C_27
REMARK                            x       y       z     vdW  Elec       q    Type
REMARK                         _______ _______ _______ _____ _____    ______ ____
ROOT
ATOM      1  N   UNL     1       5.553  -1.972   3.282  0.00  0.00    +0.386 N 
ATOM      2  H   UNL     1       5.218  -1.280   3.935  0.00  0.00    -0.081 HD
ENDROOT
BRANCH   1   3
ATOM      3  C   UNL     1       5.549  -1.410   1.925  0.00  0.00    -0.046 C 
BRANCH   3   4
ATOM      4  C   UNL     1       4.249  -0.636   1.698  0.00  0.00    +0.102 C 
BRANCH   4   5
ATOM      5  O   UNL     1       3.157  -1.554   1.611  0.00  0.00    -0.393 OA
ATOM      6  H   UNL     1       3.216  -2.164   0.863  0.00  0.00    +0.210 HD
ENDBRANCH   4   5
BRANCH   4   7
ATOM      7  C   UNL     1       4.351   0.161   0.396  0.00  0.00    +0.064 C 
BRANCH   7  11
ATOM      8  C   UNL     1       0.868   2.590  -0.067  0.00  0.00    +0.000 A 
ATOM      9  C   UNL     1       1.974   3.087   0.596  0.00  0.00    +0.000 A 
ATOM     10  C   UNL     1       3.101   2.301   0.746  0.00  0.00    +0.004 A 
ATOM     11  C   UNL     1       3.122   1.018   0.233  0.00  0.00    -0.045 A 
ATOM     12  C   UNL     1       2.015   0.520  -0.429  0.00  0.00    +0.004 A 
ATOM     13  C   UNL     1       0.888   1.307  -0.580  0.00  0.00    +0.000 A 
ENDBRANCH   7  11
ENDBRANCH   4   7
ENDBRANCH   3   4
ENDBRANCH   1   3
BRANCH   1  14
ATOM     14  C   UNL     1       4.676  -3.150   3.326  0.00  0.00    -0.043 C 
BRANCH  14  15
ATOM     15  C   UNL     1       5.170  -4.182   2.345  0.00  0.00    -0.063 A 
ATOM     16  C   UNL     1       4.683  -4.194   1.051  0.00  0.00    +0.002 A 
ATOM     17  C   UNL     1       5.136  -5.140   0.151  0.00  0.00    +0.002 A 
ATOM     18  C   UNL     1       6.077  -6.074   0.543  0.00  0.00    +0.020 A 
ATOM     19  C   UNL     1       6.565  -6.062   1.838  0.00  0.00    +0.041 A 
ATOM     20  C   UNL     1       6.115  -5.111   2.737  0.00  0.00    +0.021 A 
ATOM     21 CL   UNL     1       7.746  -7.234   2.332  0.00  0.00    -0.084 Cl
ENDBRANCH  14  15
ENDBRANCH   1  14
BRANCH   1  22
ATOM     22  C   UNL     1       6.920  -2.366   3.645  0.00  0.00    -0.030 C 
BRANCH  22  23
ATOM     23  C   UNL     1       6.976  -2.699   5.138  0.00  0.00    +0.194 C 
ATOM     24  C   UNL     1       8.390  -3.178   5.546  0.00  0.00    +0.104 C 
ATOM     25  C   UNL     1       8.089  -4.267   6.558  0.00  0.00    +0.091 C 
ATOM     26  N   UNL     1       6.845  -4.592   6.445  0.00  0.00    -0.089 NA
ATOM     27  O   UNL     1       6.174  -3.858   5.439  0.00  0.00    -0.392 OA
BRANCH  25  28
ATOM     28  C   UNL     1       9.054  -4.855   7.508  0.00  0.00    -0.000 A 
ATOM     29  C   UNL     1      10.377  -4.407   7.532  0.00  0.00    +0.011 A 
ATOM     30  C   UNL     1      11.273  -4.960   8.422  0.00  0.00    +0.020 A 
ATOM     31  C   UNL     1      10.864  -5.957   9.292  0.00  0.00    +0.041 A 
ATOM     32  C   UNL     1       9.554  -6.406   9.273  0.00  0.00    +0.020 A 
ATOM     33  C   UNL     1       8.646  -5.856   8.391  0.00  0.00    +0.011 A 
ATOM     34 CL   UNL     1      11.998  -6.648  10.409  0.00  0.00    -0.084 Cl
ENDBRANCH  25  28
ENDBRANCH  22  23
ENDBRANCH   1  22
TORSDOF 10
