REMARK  Name = ZINC16259351
REMARK  7 active torsions:
REMARK  status: ('A' for Active; 'I' for Inactive)
REMARK    1  A    between atoms: C_4  and  C_7
REMARK    2  A    between atoms: C_7  and  C_9
REMARK    3  A    between atoms: C_7  and  N_68
REMARK    4  A    between atoms: C_9  and  N_10
REMARK    5  A    between atoms: C_11  and  C_13
REMARK    6  A    between atoms: N_16  and  S_19
REMARK    7  A    between atoms: S_19  and  C_22
REMARK                            x       y       z     vdW  Elec       q    Type
REMARK                         _______ _______ _______ _____ _____    ______ ____
ROOT
ATOM      1  C   UNL     1       5.914  -2.010  -3.749  0.00  0.00    +0.077 C 
ATOM      2  C   UNL     1       6.408  -0.887  -2.834  0.00  0.00    +0.030 C 
ATOM      3  C   UNL     1       5.204  -0.181  -2.203  0.00  0.00    +0.110 C 
ATOM      4  N   UNL     1       4.367  -1.184  -1.530  0.00  0.00    -0.177 NA
ATOM      5  C   UNL     1       3.916  -2.356  -2.294  0.00  0.00    +0.110 C 
ATOM      6  C   UNL     1       5.130  -3.034  -2.926  0.00  0.00    +0.030 C 
ENDROOT
BRANCH   1   8
ATOM      7  N   UNL     1       6.900  -3.710  -5.252  0.00  0.00    -0.316 N 
ATOM      8  C   UNL     1       7.095  -2.685  -4.398  0.00  0.00    +0.216 C 
ATOM      9  O   UNL     1       8.220  -2.306  -4.153  0.00  0.00    -0.276 OA
ATOM     10  H   UNL     1       6.000  -4.013  -5.448  0.00  0.00    +0.149 HD
BRANCH   7  11
ATOM     11  C   UNL     1       8.048  -4.366  -5.883  0.00  0.00    +0.093 C 
BRANCH  11  12
ATOM     12  C   UNL     1       7.554  -5.488  -6.798  0.00  0.00    -0.020 C 
BRANCH  12  16
ATOM     13  C   UNL     1      10.869  -7.172  -8.901  0.00  0.00    +0.000 A 
ATOM     14  C   UNL     1      10.821  -5.811  -8.663  0.00  0.00    +0.000 A 
ATOM     15  C   UNL     1       9.748  -5.266  -7.982  0.00  0.00    +0.002 A 
ATOM     16  C   UNL     1       8.723  -6.082  -7.540  0.00  0.00    -0.059 A 
ATOM     17  C   UNL     1       8.774  -7.444  -7.774  0.00  0.00    +0.002 A 
ATOM     18  C   UNL     1       9.845  -7.988  -8.458  0.00  0.00    +0.000 A 
ENDBRANCH  12  16
BRANCH  12  23
ATOM     19  C   UNL     1       7.250  -4.019  -8.715  0.00  0.00    -0.078 C 
ATOM     20  C   UNL     1       6.265  -3.976  -9.910  0.00  0.00    -0.020 C 
ATOM     21  C   UNL     1       5.753  -5.433  -9.989  0.00  0.00    -0.020 C 
ATOM     22  C   UNL     1       5.999  -6.022  -8.587  0.00  0.00    -0.078 C 
ATOM     23  N   UNL     1       6.577  -4.941  -7.787  0.00  0.00    +0.385 N 
ATOM     24  H   UNL     1       5.832  -4.445  -7.285  0.00  0.00    -0.081 HD
ENDBRANCH  12  23
ENDBRANCH  11  12
ENDBRANCH   7  11
ENDBRANCH   1   8
BRANCH   4  25
ATOM     25  S   UNL     1       3.944  -1.001   0.060  0.00  0.00    +0.061 S 
ATOM     26  O   UNL     1       4.930  -0.163   0.648  0.00  0.00    -0.153 OA
ATOM     27  O   UNL     1       3.656  -2.301   0.556  0.00  0.00    -0.153 OA
BRANCH  25  28
ATOM     28  C   UNL     1       2.430  -0.101   0.097  0.00  0.00    +0.109 A 
ATOM     29  C   UNL     1       1.224  -0.777   0.068  0.00  0.00    +0.032 A 
ATOM     30  C   UNL     1       0.035  -0.075   0.094  0.00  0.00    +0.051 A 
ATOM     31  C   UNL     1       0.047   1.311   0.151  0.00  0.00    +0.162 A 
ATOM     32  C   UNL     1       1.259   1.991   0.184  0.00  0.00    +0.164 A 
ATOM     33  C   UNL     1       2.449   1.280   0.155  0.00  0.00    +0.078 A 
ATOM     34  O   UNL     1       1.294   3.350   0.248  0.00  0.00    -0.485 OA
ATOM     35  C   UNL     1       0.090   4.042  -0.103  0.00  0.00    +0.270 C 
ATOM     36  C   UNL     1      -1.084   3.353   0.605  0.00  0.00    +0.270 C 
ATOM     37  O   UNL     1      -1.133   1.990   0.168  0.00  0.00    -0.485 OA
ENDBRANCH  25  28
ENDBRANCH   4  25
TORSDOF 7
