REMARK  Name = ZINC03766393
REMARK  6 active torsions:
REMARK  status: ('A' for Active; 'I' for Inactive)
REMARK    1  A    between atoms: C_1  and  N_2
REMARK    2  A    between atoms: C_14  and  C_16
REMARK    3  A    between atoms: N_17  and  C_18
REMARK    4  A    between atoms: C_19  and  C_27
REMARK    5  A    between atoms: N_29  and  C_30
REMARK    6  A    between atoms: C_30  and  C_31
REMARK                            x       y       z     vdW  Elec       q    Type
REMARK                         _______ _______ _______ _____ _____    ______ ____
ROOT
ATOM      1  C   UNL     1       0.233  -2.463   7.317  0.00  0.00    +0.114 A 
ATOM      2  C   UNL     1      -0.106  -1.964   8.580  0.00  0.00    +0.073 A 
ATOM      3  C   UNL     1       0.111  -2.780   9.706  0.00  0.00    -0.023 A 
ATOM      4  C   UNL     1       0.639  -4.008   9.481  0.00  0.00    -0.004 A 
ATOM      5  S   UNL     1       0.851  -4.089   7.723  0.00  0.00    -0.073 S 
ATOM      6  C   UNL     1       0.964  -5.058  10.497  0.00  0.00    +0.043 C 
ATOM      7  C   UNL     1       0.954  -4.407  11.887  0.00  0.00    +0.005 C 
ATOM      8  C   UNL     1      -0.317  -3.564  12.025  0.00  0.00    +0.005 C 
ATOM      9  C   UNL     1      -0.225  -2.331  11.126  0.00  0.00    +0.037 C 
ENDROOT
BRANCH   2  10
ATOM     10  C   UNL     1      -0.673  -0.620   8.727  0.00  0.00    +0.247 C 
ATOM     11  O   UNL     1      -1.879  -0.460   8.686  0.00  0.00    -0.270 OA
ATOM     12  N   UNL     1       0.141   0.439   8.908  0.00  0.00    -0.307 N 
ATOM     13  H   UNL     1       1.102   0.312   8.941  0.00  0.00    +0.149 HD
BRANCH  12  14
ATOM     14  C   UNL     1      -0.426   1.782   9.055  0.00  0.00    +0.139 C 
BRANCH  14  15
ATOM     15  C   UNL     1       0.688   2.780   9.243  0.00  0.00    -0.030 A 
ATOM     16  C   UNL     1       1.142   3.078  10.515  0.00  0.00    +0.005 A 
ATOM     17  C   UNL     1       2.163   3.992  10.688  0.00  0.00    +0.000 A 
ATOM     18  C   UNL     1       2.732   4.609   9.589  0.00  0.00    +0.000 A 
ATOM     19  C   UNL     1       2.279   4.311   8.317  0.00  0.00    +0.000 A 
ATOM     20  C   UNL     1       1.261   3.392   8.144  0.00  0.00    +0.005 A 
ENDBRANCH  14  15
ENDBRANCH  12  14
ENDBRANCH   2  10
BRANCH   1  22
ATOM     21  C   UNL     1       0.489  -2.513   5.030  0.00  0.00    +0.120 C 
ATOM     22  N   UNL     1       0.118  -1.873   6.109  0.00  0.00    -0.247 NA
BRANCH  21  36
ATOM     23  C   UNL     1      -0.018   1.461   0.010  0.00  0.00    +0.135 C 
ATOM     24  N   UNL     1       0.002  -0.004   0.002  0.00  0.00    -0.301 N 
ATOM     25  C   UNL     1      -0.103  -0.640  -1.231  0.00  0.00    +0.048 A 
ATOM     26  C   UNL     1      -0.710   0.035  -2.285  0.00  0.00    +0.024 A 
ATOM     27  C   UNL     1      -0.826  -0.566  -3.525  0.00  0.00    +0.002 A 
ATOM     28  C   UNL     1      -0.338  -1.843  -3.727  0.00  0.00    +0.001 A 
ATOM     29  C   UNL     1       0.265  -2.525  -2.686  0.00  0.00    +0.017 A 
ATOM     30  C   UNL     1       0.382  -1.929  -1.438  0.00  0.00    +0.034 A 
ATOM     31  S   UNL     1       1.142  -2.816  -0.120  0.00  0.00    -0.086 S 
ATOM     32  C   UNL     1       0.636  -1.944   1.325  0.00  0.00    +0.035 A 
ATOM     33  C   UNL     1       0.130  -0.648   1.223  0.00  0.00    +0.048 A 
ATOM     34  C   UNL     1      -0.266   0.025   2.379  0.00  0.00    +0.025 A 
ATOM     35  C   UNL     1      -0.152  -0.574   3.612  0.00  0.00    +0.011 A 
ATOM     36  C   UNL     1       0.364  -1.871   3.716  0.00  0.00    -0.006 A 
ATOM     37  C   UNL     1       0.749  -2.553   2.560  0.00  0.00    +0.026 A 
ENDBRANCH  21  36
ENDBRANCH   1  22
TORSDOF 5
