REMARK  Name = ZINC35302916
REMARK  9 active torsions:
REMARK  status: ('A' for Active; 'I' for Inactive)
REMARK    1  A    between atoms: C_1  and  C_2
REMARK    2  A    between atoms: C_2  and  C_3
REMARK    3  A    between atoms: C_3  and  C_4
REMARK    4  A    between atoms: C_4  and  C_5
REMARK    5  A    between atoms: C_5  and  C_7
REMARK    6  A    between atoms: C_5  and  C_9
REMARK    7  A    between atoms: C_7  and  C_8
REMARK    8  A    between atoms: C_15  and  C_17
REMARK    9  A    between atoms: C_23  and  C_25
REMARK                            x       y       z     vdW  Elec       q    Type
REMARK                         _______ _______ _______ _____ _____    ______ ____
ROOT
ATOM      1  C   UNL     1       0.923  -6.861   3.150  0.00  0.00    +0.239 C 
ATOM      2  O   UNL     1      -0.063  -6.162   3.047  0.00  0.00    -0.273 OA
ATOM      3  N   UNL     1       0.804  -8.203   3.118  0.00  0.00    -0.262 N 
ATOM      4  C   UNL     1      -0.448  -8.786   2.967  0.00  0.00    +0.188 A 
ATOM      5  N   UNL     1      -1.641  -8.221   2.832  0.00  0.00    -0.125 NA
ATOM      6  N   UNL     1      -2.692  -8.906   2.702  0.00  0.00    -0.140 NA
ATOM      7  C   UNL     1      -2.667 -10.233   2.693  0.00  0.00    +0.134 A 
ATOM      8  S   UNL     1      -0.910 -10.514   2.890  0.00  0.00    -0.030 S 
ATOM      9  H   UNL     1       1.593  -8.762   3.201  0.00  0.00    +0.157 HD
ENDROOT
BRANCH   7  10
ATOM     10  C   UNL     1      -3.775 -11.203   2.554  0.00  0.00    +0.013 A 
ATOM     11  C   UNL     1      -3.512 -12.573   2.579  0.00  0.00    +0.014 A 
ATOM     12  C   UNL     1      -4.546 -13.476   2.450  0.00  0.00    +0.050 A 
ATOM     13  C   UNL     1      -5.850 -13.027   2.296  0.00  0.00    +0.166 A 
ATOM     14  C   UNL     1      -6.119 -11.659   2.270  0.00  0.00    +0.167 A 
ATOM     15  C   UNL     1      -5.086 -10.750   2.404  0.00  0.00    +0.060 A 
ATOM     16  O   UNL     1      -7.463 -11.483   2.109  0.00  0.00    -0.453 OA
ATOM     17  C   UNL     1      -7.962 -12.744   1.627  0.00  0.00    +0.466 C 
ATOM     18  O   UNL     1      -7.026 -13.705   2.151  0.00  0.00    -0.453 OA
ENDBRANCH   7  10
BRANCH   1  25
ATOM     19  C   UNL     1       1.642  -4.016   2.322  0.00  0.00    +0.219 C 
ATOM     20  O   UNL     1       1.324  -4.538   1.275  0.00  0.00    -0.275 OA
ATOM     21  N   UNL     1       2.153  -4.764   3.320  0.00  0.00    -0.290 N 
ATOM     22  C   UNL     1       2.671  -4.249   4.601  0.00  0.00    +0.108 C 
ATOM     23  C   UNL     1       2.545  -5.438   5.586  0.00  0.00    +0.021 C 
ATOM     24  C   UNL     1       2.894  -6.640   4.670  0.00  0.00    +0.033 C 
ATOM     25  C   UNL     1       2.281  -6.228   3.315  0.00  0.00    +0.162 C 
BRANCH  19  26
ATOM     26  C   UNL     1       1.465  -2.531   2.508  0.00  0.00    +0.075 C 
BRANCH  26  27
ATOM     27  C   UNL     1       0.207  -2.071   1.768  0.00  0.00    +0.009 C 
ATOM     28  C   UNL     1      -1.026  -2.696   2.422  0.00  0.00    +0.004 C 
ENDBRANCH  26  27
BRANCH  26  29
ATOM     29  C   UNL     1       2.685  -1.798   1.945  0.00  0.00    +0.013 C 
BRANCH  29  30
ATOM     30  C   UNL     1       2.564  -0.303   2.244  0.00  0.00    +0.000 C 
BRANCH  30  32
ATOM     31  C   UNL     1       3.663   1.926   1.980  0.00  0.00    +0.004 C 
ATOM     32  C   UNL     1       3.783   0.430   1.681  0.00  0.00    -0.003 C 
ENDBRANCH  30  32
ENDBRANCH  29  30
ENDBRANCH  26  29
ENDBRANCH  19  26
ENDBRANCH   1  25
TORSDOF 7
