REMARK  Name = ZINC02121221
REMARK  11 active torsions:
REMARK  status: ('A' for Active; 'I' for Inactive)
REMARK    1  A    between atoms: C_1  and  C_2
REMARK    2  A    between atoms: C_7  and  C_20
REMARK    3  A    between atoms: C_12  and  C_13
REMARK    4  A    between atoms: C_13  and  C_14
REMARK    5  A    between atoms: C_24  and  C_25
REMARK    6  A    between atoms: C_24  and  N_67
REMARK    7  A    between atoms: C_25  and  C_26
REMARK    8  A    between atoms: C_29  and  O_34
REMARK    9  A    between atoms: C_30  and  O_32
REMARK   10  A    between atoms: O_32  and  C_33
REMARK   11  A    between atoms: O_34  and  C_35
REMARK                            x       y       z     vdW  Elec       q    Type
REMARK                         _______ _______ _______ _____ _____    ______ ____
ROOT
ATOM      1  C   UNL     1      -4.610   9.148  -0.424  0.00  0.00    +0.045 C 
ATOM      2  C   UNL     1      -5.823   8.287  -0.183  0.00  0.00    -0.030 A 
ATOM      3  C   UNL     1      -5.691   6.871   0.165  0.00  0.00    +0.021 A 
ATOM      4  C   UNL     1      -4.431   6.275   0.284  0.00  0.00    +0.017 A 
ATOM      5  C   UNL     1      -4.328   4.953   0.612  0.00  0.00    -0.021 A 
ATOM      6  C   UNL     1      -5.474   4.192   0.829  0.00  0.00    +0.125 A 
ATOM      7  C   UNL     1      -6.731   4.768   0.713  0.00  0.00    +0.034 A 
ATOM      8  C   UNL     1      -6.854   6.109   0.381  0.00  0.00    +0.146 A 
ATOM      9  O   UNL     1      -8.073   6.673   0.267  0.00  0.00    -0.422 OA
ATOM     10  C   UNL     1      -8.191   7.966  -0.050  0.00  0.00    +0.341 A 
ATOM     11  O   UNL     1      -9.307   8.445  -0.143  0.00  0.00    -0.245 OA
ATOM     12  C   UNL     1      -7.079   8.800  -0.282  0.00  0.00    +0.045 A 
ATOM     13  C   UNL     1      -7.964   3.935   0.947  0.00  0.00    +0.051 C 
ATOM     14  O   UNL     1      -5.382   2.877   1.159  0.00  0.00    -0.509 OA
ATOM     15  C   UNL     1      -4.130   2.231   0.918  0.00  0.00    +0.157 C 
ATOM     16  C   UNL     1      -2.958   4.332   0.731  0.00  0.00    -0.034 C 
ATOM     17  N   UNL     1      -3.064   3.075   1.496  0.00  0.00    +0.405 N 
ATOM     18  H   UNL     1      -3.301   3.294   2.471  0.00  0.00    -0.076 HD
ENDROOT
BRANCH  12  19
ATOM     19  C   UNL     1      -7.280  10.250  -0.636  0.00  0.00    +0.077 C 
BRANCH  19  20
ATOM     20  C   UNL     1      -7.378  10.393  -2.133  0.00  0.00    -0.043 A 
ATOM     21  C   UNL     1      -6.237  10.612  -2.883  0.00  0.00    +0.004 A 
ATOM     22  C   UNL     1      -6.326  10.738  -4.257  0.00  0.00    +0.000 A 
ATOM     23  C   UNL     1      -7.558  10.654  -4.880  0.00  0.00    +0.000 A 
ATOM     24  C   UNL     1      -8.699  10.440  -4.130  0.00  0.00    +0.000 A 
ATOM     25  C   UNL     1      -8.609  10.309  -2.756  0.00  0.00    +0.004 A 
ENDBRANCH  19  20
ENDBRANCH  12  19
BRANCH  17  26
ATOM     26  C   UNL     1      -1.771   2.353   1.466  0.00  0.00    -0.069 C 
BRANCH  26  27
ATOM     27  C   UNL     1      -1.333   2.112   0.020  0.00  0.00    +0.017 C 
BRANCH  27  28
ATOM     28  C   UNL     1      -0.017   1.378   0.010  0.00  0.00    -0.045 A 
ATOM     29  C   UNL     1       1.169   2.089   0.002  0.00  0.00    +0.007 A 
ATOM     30  C   UNL     1       2.379   1.420  -0.013  0.00  0.00    +0.049 A 
ATOM     31  C   UNL     1       2.405   0.035  -0.021  0.00  0.00    +0.161 A 
ATOM     32  C   UNL     1       1.211  -0.680  -0.013  0.00  0.00    +0.162 A 
ATOM     33  C   UNL     1       0.002  -0.004   0.002  0.00  0.00    +0.053 A 
BRANCH  32  34
ATOM     34  O   UNL     1       1.232  -2.040  -0.020  0.00  0.00    -0.491 OA
ATOM     35  C   UNL     1      -0.032  -2.708  -0.011  0.00  0.00    +0.277 C 
ENDBRANCH  32  34
BRANCH  31  36
ATOM     36  O   UNL     1       3.594  -0.625  -0.036  0.00  0.00    -0.491 OA
ATOM     37  C   UNL     1       4.779   0.174  -0.043  0.00  0.00    +0.277 C 
ENDBRANCH  31  36
ENDBRANCH  27  28
ENDBRANCH  26  27
ENDBRANCH  17  26
TORSDOF 7
