REMARK  Name = ZINC13134809
REMARK  12 active torsions:
REMARK  status: ('A' for Active; 'I' for Inactive)
REMARK    1  A    between atoms: C_1  and  C_2
REMARK    2  A    between atoms: C_2  and  O_3
REMARK    3  A    between atoms: O_3  and  C_4
REMARK    4  A    between atoms: C_4  and  C_6
REMARK    5  A    between atoms: C_7  and  C_33
REMARK    6  A    between atoms: C_12  and  C_32
REMARK    7  A    between atoms: C_14  and  S_15
REMARK    8  A    between atoms: S_15  and  C_16
REMARK    9  A    between atoms: C_16  and  C_18
REMARK   10  A    between atoms: C_16  and  C_19
REMARK   11  A    between atoms: N_21  and  C_22
REMARK   12  A    between atoms: C_22  and  C_23
REMARK                            x       y       z     vdW  Elec       q    Type
REMARK                         _______ _______ _______ _____ _____    ______ ____
ROOT
ATOM      1  S   UNL     1      -2.704   4.187  -1.097  0.00  0.00    -0.093 S 
ENDROOT
BRANCH   1  10
ATOM      2  C   UNL     1      -5.753   7.603  -1.516  0.00  0.00    +0.102 A 
ATOM      3  C   UNL     1      -4.870   6.572  -1.394  0.00  0.00    -0.018 A 
ATOM      4  C   UNL     1      -3.506   6.839  -1.228  0.00  0.00    +0.043 A 
ATOM      5  C   UNL     1      -3.150   8.210  -1.188  0.00  0.00    +0.114 A 
ATOM      6  S   UNL     1      -4.704   9.041  -1.393  0.00  0.00    -0.062 S 
ATOM      7  N   UNL     1      -1.899   8.592  -1.031  0.00  0.00    -0.225 NA
ATOM      8  C   UNL     1      -0.938   7.697  -0.900  0.00  0.00    +0.128 A 
ATOM      9  N   UNL     1      -1.193   6.402  -0.922  0.00  0.00    -0.225 NA
ATOM     10  C   UNL     1      -2.419   5.926  -1.075  0.00  0.00    +0.110 A 
ATOM     11  C   UNL     1       0.484   8.164  -0.722  0.00  0.00    +0.088 C 
ATOM     12  C   UNL     1      -5.361   5.148  -1.445  0.00  0.00    +0.046 C 
BRANCH   2  13
ATOM     13  C   UNL     1      -7.206   7.545  -1.701  0.00  0.00    +0.346 C 
ATOM     14  O   UNL     1      -7.769   6.469  -1.764  0.00  0.00    -0.244 OA
BRANCH  13  15
ATOM     15  O   UNL     1      -7.919   8.686  -1.802  0.00  0.00    -0.461 OA
BRANCH  15  17
ATOM     16  C   UNL     1      -9.987   9.942  -2.078  0.00  0.00    +0.048 C 
ATOM     17  C   UNL     1      -9.353   8.552  -1.984  0.00  0.00    +0.229 C 
ENDBRANCH  15  17
ENDBRANCH  13  15
ENDBRANCH   2  13
ENDBRANCH   1  10
BRANCH   1  18
ATOM     18  C   UNL     1      -1.011   3.588  -0.875  0.00  0.00    +0.135 C 
ATOM     19  C   UNL     1      -0.499   4.005   0.505  0.00  0.00    +0.029 C 
BRANCH  18  20
ATOM     20  C   UNL     1      -0.992   2.085  -0.985  0.00  0.00    +0.226 C 
ATOM     21  O   UNL     1      -2.014   1.452  -0.829  0.00  0.00    -0.275 OA
ATOM     22  N   UNL     1       0.163   1.444  -1.256  0.00  0.00    -0.310 N 
ATOM     23  H   UNL     1       0.980   1.950  -1.385  0.00  0.00    +0.149 HD
BRANCH  22  24
ATOM     24  C   UNL     1       0.181  -0.017  -1.363  0.00  0.00    +0.139 C 
BRANCH  24  25
ATOM     25  C   UNL     1       1.581  -0.480  -1.677  0.00  0.00    -0.027 A 
ATOM     26  C   UNL     1       1.984  -0.614  -2.993  0.00  0.00    +0.009 A 
ATOM     27  C   UNL     1       3.268  -1.033  -3.286  0.00  0.00    +0.050 A 
ATOM     28  C   UNL     1       4.152  -1.330  -2.260  0.00  0.00    +0.166 A 
ATOM     29  C   UNL     1       3.744  -1.200  -0.935  0.00  0.00    +0.167 A 
ATOM     30  C   UNL     1       2.457  -0.774  -0.649  0.00  0.00    +0.054 A 
ATOM     31  O   UNL     1       4.784  -1.548  -0.122  0.00  0.00    -0.453 OA
ATOM     32  C   UNL     1       5.697  -2.283  -0.959  0.00  0.00    +0.466 C 
ATOM     33  O   UNL     1       5.447  -1.760  -2.278  0.00  0.00    -0.453 OA
ENDBRANCH  24  25
ENDBRANCH  22  24
ENDBRANCH  18  20
ENDBRANCH   1  18
TORSDOF 8
