REMARK  Name = ZINC11786334
REMARK  12 active torsions:
REMARK  status: ('A' for Active; 'I' for Inactive)
REMARK    1  A    between atoms: C_1  and  C_2
REMARK    2  A    between atoms: C_2  and  O_3
REMARK    3  A    between atoms: O_3  and  C_4
REMARK    4  A    between atoms: C_9  and  C_10
REMARK    5  A    between atoms: C_10  and  N_69
REMARK    6  A    between atoms: C_12  and  S_30
REMARK    7  A    between atoms: C_15  and  C_17
REMARK    8  A    between atoms: N_19  and  C_20
REMARK    9  A    between atoms: C_20  and  C_21
REMARK   10  A    between atoms: S_30  and  C_31
REMARK   11  A    between atoms: C_34  and  O_37
REMARK   12  A    between atoms: O_37  and  C_38
REMARK                            x       y       z     vdW  Elec       q    Type
REMARK                         _______ _______ _______ _____ _____    ______ ____
ROOT
ATOM      1  C   UNL     1       4.291   2.898   2.121  0.00  0.00    -0.063 C 
ATOM      2  C   UNL     1       3.849   2.649   0.663  0.00  0.00    +0.034 C 
ATOM      3  C   UNL     1       5.015   1.875   0.014  0.00  0.00    +0.006 C 
ATOM      4  C   UNL     1       6.065   1.720   1.139  0.00  0.00    +0.021 C 
ATOM      5  N   UNL     1       5.749   2.821   2.056  0.00  0.00    +0.391 N 
ATOM      6  H   UNL     1       6.131   3.702   1.692  0.00  0.00    -0.080 HD
ENDROOT
BRANCH   4   7
ATOM      7  C   UNL     1       7.457   1.854   0.578  0.00  0.00    +0.200 C 
ATOM      8  O   UNL     1       8.025   2.925   0.614  0.00  0.00    -0.278 OA
ATOM      9  N   UNL     1       8.072   0.783   0.037  0.00  0.00    -0.311 N 
ATOM     10  H   UNL     1       7.592  -0.055  -0.058  0.00  0.00    +0.149 HD
BRANCH   9  11
ATOM     11  C   UNL     1       9.464   0.885  -0.409  0.00  0.00    +0.161 C 
BRANCH  11  12
ATOM     12  C   UNL     1       9.947  -0.469  -0.859  0.00  0.00    +0.077 A 
ATOM     13  C   UNL     1       9.945  -0.924  -2.131  0.00  0.00    +0.117 A 
ATOM     14  N   UNL     1      10.463  -2.191  -2.108  0.00  0.00    -0.306 N 
ATOM     15  C   UNL     1      10.693  -3.112  -3.088  0.00  0.00    +0.092 A 
ATOM     16  C   UNL     1      11.226  -4.315  -2.790  0.00  0.00    +0.018 A 
ATOM     17  C   UNL     1      11.553  -4.635  -1.461  0.00  0.00    +0.005 A 
ATOM     18  C   UNL     1      11.328  -3.726  -0.474  0.00  0.00    +0.047 A 
ATOM     19  C   UNL     1      10.771  -2.474  -0.803  0.00  0.00    +0.138 A 
ATOM     20  N   UNL     1      10.456  -1.417  -0.068  0.00  0.00    -0.231 NA
ENDBRANCH  11  12
ENDBRANCH   9  11
ENDBRANCH   4   7
BRANCH   5  21
ATOM     21  C   UNL     1       6.329   2.556   3.410  0.00  0.00    -0.038 C 
BRANCH  21  27
ATOM     22  C   UNL     1       4.789   3.751   4.988  0.00  0.00    +0.122 A 
ATOM     23  C   UNL     1       4.503   4.806   5.843  0.00  0.00    +0.046 A 
ATOM     24  C   UNL     1       5.430   5.811   6.032  0.00  0.00    +0.004 A 
ATOM     25  C   UNL     1       6.646   5.764   5.375  0.00  0.00    +0.000 A 
ATOM     26  C   UNL     1       6.937   4.711   4.528  0.00  0.00    +0.005 A 
ATOM     27  C   UNL     1       6.012   3.703   4.335  0.00  0.00    -0.022 A 
BRANCH  22  28
ATOM     28  O   UNL     1       3.876   2.763   4.796  0.00  0.00    -0.492 OA
BRANCH  28  30
ATOM     29  C   UNL     1       1.751   1.677   5.178  0.00  0.00    +0.048 C 
ATOM     30  C   UNL     1       2.611   2.913   5.444  0.00  0.00    +0.225 C 
ENDBRANCH  28  30
ENDBRANCH  22  28
ENDBRANCH  21  27
ENDBRANCH   5  21
BRANCH   2  31
ATOM     31  S   UNL     1       2.333   1.653   0.626  0.00  0.00    -0.124 S 
BRANCH  31  32
ATOM     32  C   UNL     1       1.105   2.721   1.300  0.00  0.00    +0.008 A 
ATOM     33  C   UNL     1      -0.206   2.280   1.426  0.00  0.00    +0.018 A 
ATOM     34  C   UNL     1      -1.169   3.119   1.951  0.00  0.00    +0.047 A 
ATOM     35  C   UNL     1      -0.826   4.399   2.361  0.00  0.00    +0.120 A 
ATOM     36  C   UNL     1       0.483   4.840   2.236  0.00  0.00    +0.047 A 
ATOM     37  C   UNL     1       1.447   4.004   1.707  0.00  0.00    +0.018 A 
BRANCH  35  38
ATOM     38  O   UNL     1      -1.774   5.223   2.883  0.00  0.00    -0.495 OA
ATOM     39  C   UNL     1      -3.101   4.703   2.983  0.00  0.00    +0.277 C 
ENDBRANCH  35  38
ENDBRANCH  31  32
ENDBRANCH   2  31
TORSDOF 10
