REMARK  Name = ZINC38965287
REMARK  10 active torsions:
REMARK  status: ('A' for Active; 'I' for Inactive)
REMARK    1  A    between atoms: C_1  and  C_2
REMARK    2  A    between atoms: C_2  and  C_3
REMARK    3  A    between atoms: C_3  and  C_4
REMARK    4  A    between atoms: C_4  and  O_5
REMARK    5  A    between atoms: O_5  and  C_6
REMARK    6  A    between atoms: C_6  and  C_8
REMARK    7  A    between atoms: C_11  and  N_14
REMARK    8  A    between atoms: N_14  and  C_15
REMARK    9  A    between atoms: N_18  and  S_19
REMARK   10  A    between atoms: S_19  and  C_22
REMARK                            x       y       z     vdW  Elec       q    Type
REMARK                         _______ _______ _______ _____ _____    ______ ____
ROOT
ATOM      1  C   UNL     1       4.306  -7.359  -7.269  0.00  0.00    +0.237 C 
ATOM      2  C   UNL     1       3.952  -7.755  -8.685  0.00  0.00    +0.192 C 
ATOM      3  N   UNL     1       2.767  -7.511  -9.162  0.00  0.00    -0.110 NA
ATOM      4  N   UNL     1       4.880  -8.361  -9.443  0.00  0.00    -0.226 NA
ATOM      5  C   UNL     1       6.087  -8.618  -8.984  0.00  0.00    +0.089 A 
ATOM      6  C   UNL     1       7.042  -9.260  -9.812  0.00  0.00    +0.030 A 
ATOM      7  C   UNL     1       8.281  -9.527  -9.346  0.00  0.00    +0.002 A 
ATOM      8  C   UNL     1       8.691  -9.194  -8.044  0.00  0.00    +0.002 A 
ATOM      9  C   UNL     1       7.860  -8.581  -7.173  0.00  0.00    +0.027 A 
ATOM     10  C   UNL     1       6.493  -8.255  -7.604  0.00  0.00    +0.063 A 
ATOM     11  N   UNL     1       5.664  -7.663  -6.791  0.00  0.00    -0.359 N 
ATOM     12  H   UNL     1       5.936  -7.427  -5.890  0.00  0.00    +0.162 HD
ENDROOT
BRANCH   3  13
ATOM     13  S   UNL     1       2.393  -7.949 -10.714  0.00  0.00    +0.100 S 
ATOM     14  O   UNL     1       3.201  -7.151 -11.568  0.00  0.00    -0.146 OA
ATOM     15  O   UNL     1       2.417  -9.370 -10.752  0.00  0.00    -0.146 OA
BRANCH  13  16
ATOM     16  C   UNL     1       0.724  -7.466 -11.004  0.00  0.00    +0.113 A 
ATOM     17  C   UNL     1      -0.309  -8.340 -10.720  0.00  0.00    +0.029 A 
ATOM     18  C   UNL     1      -1.618  -7.960 -10.948  0.00  0.00    +0.002 A 
ATOM     19  C   UNL     1      -1.896  -6.706 -11.458  0.00  0.00    +0.000 A 
ATOM     20  C   UNL     1      -0.863  -5.831 -11.741  0.00  0.00    +0.002 A 
ATOM     21  C   UNL     1       0.446  -6.209 -11.510  0.00  0.00    +0.029 A 
ENDBRANCH  13  16
ENDBRANCH   3  13
BRANCH   1  22
ATOM     22  N   UNL     1       4.100  -5.914  -7.144  0.00  0.00    -0.318 N 
ATOM     23  H   UNL     1       4.498  -5.310  -7.790  0.00  0.00    +0.148 HD
BRANCH  22  27
ATOM     24  C   UNL     1       1.811  -4.404  -4.020  0.00  0.00    +0.059 A 
ATOM     25  C   UNL     1       2.159  -5.758  -4.043  0.00  0.00    +0.017 A 
ATOM     26  C   UNL     1       2.913  -6.253  -5.075  0.00  0.00    +0.024 A 
ATOM     27  C   UNL     1       3.334  -5.409  -6.100  0.00  0.00    +0.029 A 
ATOM     28  C   UNL     1       2.990  -4.060  -6.080  0.00  0.00    +0.024 A 
ATOM     29  C   UNL     1       2.231  -3.560  -5.054  0.00  0.00    +0.017 A 
BRANCH  24  30
ATOM     30  C   UNL     1       1.000  -3.868  -2.913  0.00  0.00    +0.339 C 
ATOM     31  O   UNL     1       0.695  -2.692  -2.897  0.00  0.00    -0.245 OA
BRANCH  30  32
ATOM     32  O   UNL     1       0.596  -4.683  -1.918  0.00  0.00    -0.461 OA
BRANCH  32  33
ATOM     33  C   UNL     1      -0.187  -4.096  -0.877  0.00  0.00    +0.232 C 
BRANCH  33  34
ATOM     34  C   UNL     1      -0.549  -5.167   0.154  0.00  0.00    +0.041 C 
BRANCH  34  36
ATOM     35  C   UNL     1      -1.749  -5.610   2.300  0.00  0.00    +0.004 C 
ATOM     36  C   UNL     1      -1.388  -4.539   1.269  0.00  0.00    -0.000 C 
ENDBRANCH  34  36
ENDBRANCH  33  34
ENDBRANCH  32  33
ENDBRANCH  30  32
ENDBRANCH  24  30
ENDBRANCH  22  27
ENDBRANCH   1  22
TORSDOF 9
