REMARK  Name = ZINC11784298
REMARK  11 active torsions:
REMARK  status: ('A' for Active; 'I' for Inactive)
REMARK    1  A    between atoms: C_1  and  O_2
REMARK    2  A    between atoms: O_2  and  C_3
REMARK    3  A    between atoms: C_3  and  C_5
REMARK    4  A    between atoms: C_6  and  O_27
REMARK    5  A    between atoms: C_16  and  C_17
REMARK    6  A    between atoms: C_16  and  N_65
REMARK    7  A    between atoms: C_22  and  O_23
REMARK    8  A    between atoms: O_23  and  C_24
REMARK    9  A    between atoms: C_24  and  C_25
REMARK   10  A    between atoms: O_27  and  C_28
REMARK   11  A    between atoms: C_28  and  C_29
REMARK                            x       y       z     vdW  Elec       q    Type
REMARK                         _______ _______ _______ _____ _____    ______ ____
ROOT
ATOM      1  C   UNL     1       1.278   2.236  -1.000  0.00  0.00    +0.120 A 
ATOM      2  C   UNL     1       0.004   1.517  -1.016  0.00  0.00    +0.142 A 
ATOM      3  C   UNL     1      -1.147   2.241  -0.781  0.00  0.00    +0.116 A 
ATOM      4  C   UNL     1      -1.043   3.607  -0.512  0.00  0.00    +0.255 A 
ATOM      5  O   UNL     1      -2.063   4.249  -0.319  0.00  0.00    -0.268 OA
ATOM      6  N   UNL     1       0.150   4.244  -0.463  0.00  0.00    -0.313 N 
ATOM      7  C   UNL     1       1.292   3.597  -0.727  0.00  0.00    +0.038 A 
ATOM      8  C   UNL     1       2.637   4.280  -0.758  0.00  0.00    +0.036 C 
ATOM      9  C   UNL     1       2.676   5.476   0.191  0.00  0.00    -0.072 C 
ATOM     10  C   UNL     1       0.907   6.513  -1.085  0.00  0.00    -0.056 C 
ATOM     11  C   UNL     1       0.117   5.662  -0.090  0.00  0.00    +0.106 C 
ATOM     12  N   UNL     1       2.283   6.674  -0.578  0.00  0.00    +0.384 N 
ATOM     13  H   UNL     1       2.922   6.785  -1.375  0.00  0.00    -0.081 HD
ENDROOT
BRANCH   1  14
ATOM     14  C   UNL     1       2.536   1.522  -1.271  0.00  0.00    +0.344 C 
ATOM     15  O   UNL     1       3.060   0.860  -0.396  0.00  0.00    -0.245 OA
BRANCH  14  17
ATOM     16  C   UNL     1       4.346   0.870  -2.685  0.00  0.00    +0.280 C 
ATOM     17  O   UNL     1       3.107   1.601  -2.489  0.00  0.00    -0.464 OA
ENDBRANCH  14  17
ENDBRANCH   1  14
BRANCH  12  18
ATOM     18  C   UNL     1       2.370   7.877   0.278  0.00  0.00    -0.039 C 
BRANCH  18  19
ATOM     19  C   UNL     1       3.818   8.273   0.414  0.00  0.00    -0.022 A 
ATOM     20  C   UNL     1       4.490   8.039   1.598  0.00  0.00    +0.005 A 
ATOM     21  C   UNL     1       5.818   8.402   1.723  0.00  0.00    +0.000 A 
ATOM     22  C   UNL     1       6.477   8.998   0.664  0.00  0.00    +0.004 A 
ATOM     23  C   UNL     1       5.810   9.233  -0.522  0.00  0.00    +0.046 A 
ATOM     24  C   UNL     1       4.478   8.866  -0.652  0.00  0.00    +0.122 A 
BRANCH  24  25
ATOM     25  O   UNL     1       3.820   9.092  -1.820  0.00  0.00    -0.488 OA
BRANCH  25  26
ATOM     26  C   UNL     1       4.563   9.707  -2.874  0.00  0.00    +0.256 C 
BRANCH  26  27
ATOM     27  C   UNL     1       3.676   9.877  -4.081  0.00  0.00    +0.006 C 
ATOM     28  C   UNL     1       3.678  11.008  -4.741  0.00  0.00    +0.007 C 
ENDBRANCH  26  27
ENDBRANCH  25  26
ENDBRANCH  24  25
ENDBRANCH  18  19
ENDBRANCH  12  18
BRANCH   2  29
ATOM     29  O   UNL     1      -0.045   0.186  -1.258  0.00  0.00    -0.486 OA
BRANCH  29  30
ATOM     30  C   UNL     1      -1.336  -0.427  -1.253  0.00  0.00    +0.264 C 
BRANCH  30  31
ATOM     31  C   UNL     1      -1.194  -1.900  -1.540  0.00  0.00    -0.010 A 
ATOM     32  C   UNL     1      -1.242  -2.358  -2.843  0.00  0.00    +0.010 A 
ATOM     33  C   UNL     1      -1.107  -3.707  -3.107  0.00  0.00    +0.039 A 
ATOM     34  C   UNL     1      -0.933  -4.602  -2.065  0.00  0.00    +0.123 A 
ATOM     35  C   UNL     1      -0.890  -4.143  -0.760  0.00  0.00    +0.039 A 
ATOM     36  C   UNL     1      -1.020  -2.792  -0.498  0.00  0.00    +0.010 A 
ATOM     37  F   UNL     1      -0.805  -5.923  -2.322  0.00  0.00    -0.205 F 
ENDBRANCH  30  31
ENDBRANCH  29  30
ENDBRANCH   2  29
TORSDOF 10
