REMARK  Name = ZINC05222171
REMARK  5 active torsions:
REMARK  status: ('A' for Active; 'I' for Inactive)
REMARK    1  A    between atoms: C_1  and  C_2
REMARK    2  A    between atoms: C_2  and  C_8
REMARK    3  A    between atoms: N_3  and  N_4
REMARK    4  A    between atoms: C_14  and  C_32
REMARK    5  A    between atoms: C_25  and  C_31
REMARK                            x       y       z     vdW  Elec       q    Type
REMARK                         _______ _______ _______ _____ _____    ______ ____
ROOT
ATOM      1  C   UNL     1      -0.039   0.015   0.030  0.00  0.00    +0.041 C 
ATOM      2  C   UNL     1       1.311  -0.162  -0.713  0.00  0.00    +0.010 C 
ATOM      3  C   UNL     1       1.877   1.262  -0.950  0.00  0.00    +0.005 C 
ATOM      4  C   UNL     1       1.134   2.100   0.103  0.00  0.00    -0.001 C 
ATOM      5  C   UNL     1      -0.296   1.531   0.026  0.00  0.00    -0.021 C 
ATOM      6  C   UNL     1      -1.169   2.079   1.124  0.00  0.00    +0.008 C 
ATOM      7  C   UNL     1      -0.743   3.506   1.513  0.00  0.00    +0.005 C 
ATOM      8  C   UNL     1      -0.143   4.235   0.321  0.00  0.00    -0.001 C 
ATOM      9  C   UNL     1       1.187   3.587  -0.070  0.00  0.00    -0.004 C 
ATOM     10  C   UNL     1       1.628   4.057  -1.449  0.00  0.00    +0.004 C 
ATOM     11  C   UNL     1       1.360   5.570  -1.559  0.00  0.00    +0.005 C 
ATOM     12  C   UNL     1       1.356   6.145  -0.148  0.00  0.00    +0.002 C 
ATOM     13  C   UNL     1       0.080   5.723   0.588  0.00  0.00    -0.025 C 
ATOM     14  C   UNL     1       0.224   6.048   2.070  0.00  0.00    +0.015 C 
ATOM     15  C   UNL     1       0.408   7.561   2.253  0.00  0.00    +0.075 C 
ATOM     16  C   UNL     1       1.505   8.069   1.351  0.00  0.00    +0.134 C 
ATOM     17  O   UNL     1       2.377   8.786   1.782  0.00  0.00    -0.297 OA
ATOM     18  C   UNL     1       1.509   7.660  -0.111  0.00  0.00    +0.078 C 
ATOM     19  C   UNL     1      -1.128   6.473   0.021  0.00  0.00    +0.012 C 
ATOM     20  C   UNL     1      -0.943   1.835  -1.340  0.00  0.00    +0.012 C 
ENDROOT
BRANCH   1  22
ATOM     21  C   UNL     1       1.218  -0.150   2.305  0.00  0.00    +0.062 C 
ATOM     22  C   UNL     1       0.069  -0.549   1.416  0.00  0.00    +0.037 C 
ATOM     23  N   UNL     1      -0.816  -1.369   1.844  0.00  0.00    -0.188 NA
BRANCH  23  24
ATOM     24  N   UNL     1      -0.716  -1.896   3.138  0.00  0.00    -0.191 N 
ATOM     25  C   UNL     1      -1.648  -2.760   3.588  0.00  0.00    +0.317 C 
ATOM     26  O   UNL     1      -1.561  -3.216   4.712  0.00  0.00    -0.251 OA
ATOM     27  N   UNL     1      -2.676  -3.117   2.793  0.00  0.00    -0.312 N 
ATOM     28  H   UNL     1       0.024  -1.639   3.711  0.00  0.00    +0.179 HD
ATOM     29  H   UNL     1      -2.745  -2.752   1.897  0.00  0.00    +0.147 HD
ATOM     30  H   UNL     1      -3.346  -3.738   3.117  0.00  0.00    +0.147 HD
ENDBRANCH  23  24
ENDBRANCH   1  22
TORSDOF 2
