REMARK  Name = ZINC32758999
REMARK  7 active torsions:
REMARK  status: ('A' for Active; 'I' for Inactive)
REMARK    1  A    between atoms: C_1  and  C_2
REMARK    2  A    between atoms: N_5  and  C_8
REMARK    3  A    between atoms: C_8  and  C_10
REMARK    4  A    between atoms: C_8  and  C_26
REMARK    5  A    between atoms: C_10  and  N_11
REMARK    6  A    between atoms: N_11  and  S_12
REMARK    7  A    between atoms: S_12  and  C_15
REMARK                            x       y       z     vdW  Elec       q    Type
REMARK                         _______ _______ _______ _____ _____    ______ ____
ROOT
ATOM      1  N   UNL     1      -1.224   2.808  -3.554  0.00  0.00    -0.191 NA
ATOM      2  H   UNL     1      -0.986   3.469  -2.708  0.00  0.00    +0.148 HD
ENDROOT
BRANCH   1   3
ATOM      3  S   UNL     1      -1.898   3.456  -4.921  0.00  0.00    +0.058 S 
ATOM      4  O   UNL     1      -1.847   4.868  -4.770  0.00  0.00    -0.153 OA
ATOM      5  O   UNL     1      -1.303   2.785  -6.024  0.00  0.00    -0.153 OA
BRANCH   3   6
ATOM      6  C   UNL     1      -3.603   3.011  -4.922  0.00  0.00    +0.106 A 
ATOM      7  C   UNL     1      -4.532   3.844  -4.316  0.00  0.00    +0.032 A 
ATOM      8  C   UNL     1      -5.872   3.515  -4.306  0.00  0.00    +0.049 A 
ATOM      9  C   UNL     1      -6.298   2.338  -4.908  0.00  0.00    +0.139 A 
ATOM     10  C   UNL     1      -5.354   1.496  -5.521  0.00  0.00    +0.019 A 
ATOM     11  C   UNL     1      -4.001   1.851  -5.525  0.00  0.00    +0.040 A 
ATOM     12  C   UNL     1      -5.812   0.256  -6.154  0.00  0.00    +0.018 A 
ATOM     13  C   UNL     1      -7.139  -0.029  -6.120  0.00  0.00    +0.092 A 
ATOM     14  C   UNL     1      -8.031   0.863  -5.486  0.00  0.00    +0.337 A 
ATOM     15  O   UNL     1      -9.219   0.595  -5.462  0.00  0.00    -0.245 OA
ATOM     16  O   UNL     1      -7.604   1.996  -4.909  0.00  0.00    -0.422 OA
ENDBRANCH   3   6
ENDBRANCH   1   3
BRANCH   1  17
ATOM     17  C   UNL     1      -1.151   1.354  -3.392  0.00  0.00    +0.096 C 
BRANCH  17  18
ATOM     18  C   UNL     1      -0.167   1.015  -2.271  0.00  0.00    -0.015 C 
BRANCH  18  23
ATOM     19  C   UNL     1      -1.757   2.931   2.874  0.00  0.00    +0.007 C 
ATOM     20  C   UNL     1      -1.380   2.020   1.704  0.00  0.00    -0.018 C 
ATOM     21  C   UNL     1      -2.344   2.260   0.538  0.00  0.00    -0.015 C 
ATOM     22  C   UNL     1      -1.925   1.391  -0.650  0.00  0.00    -0.078 C 
ATOM     23  N   UNL     1      -0.553   1.731  -1.047  0.00  0.00    +0.385 N 
ATOM     24  C   UNL     1       0.397   1.464   0.041  0.00  0.00    -0.078 C 
ATOM     25  C   UNL     1       0.047   2.335   1.250  0.00  0.00    -0.015 C 
ATOM     26  H   UNL     1      -0.524   2.810  -1.261  0.00  0.00    -0.081 HD
ENDBRANCH  18  23
BRANCH  18  27
ATOM     27  C   UNL     1      -0.190  -0.469  -2.013  0.00  0.00    -0.022 A 
ATOM     28  C   UNL     1       0.798  -1.381  -2.183  0.00  0.00    +0.009 A 
ATOM     29  C   UNL     1       0.548  -2.706  -1.877  0.00  0.00    +0.008 A 
ATOM     30  C   UNL     1      -0.678  -3.054  -1.417  0.00  0.00    +0.045 A 
ATOM     31  S   UNL     1      -1.525  -1.482  -1.397  0.00  0.00    -0.103 S 
ENDBRANCH  18  27
ENDBRANCH  17  18
ENDBRANCH   1  17
TORSDOF 6
