REMARK  Name = ZINC63272454
REMARK  5 active torsions:
REMARK  status: ('A' for Active; 'I' for Inactive)
REMARK    1  A    between atoms: N_4  and  C_6
REMARK    2  A    between atoms: C_12  and  C_16
REMARK    3  A    between atoms: N_18  and  C_19
REMARK    4  A    between atoms: C_19  and  C_20
REMARK    5  A    between atoms: C_20  and  C_21
REMARK                            x       y       z     vdW  Elec       q    Type
REMARK                         _______ _______ _______ _____ _____    ______ ____
ROOT
ATOM      1  C   UNL     1      -1.381  -6.650  -2.875  0.00  0.00    +0.244 C 
ATOM      2  O   UNL     1      -1.000  -6.698  -4.029  0.00  0.00    -0.270 OA
ATOM      3  N   UNL     1      -2.302  -7.530  -2.433  0.00  0.00    -0.311 N 
ATOM      4  H   UNL     1      -2.606  -7.492  -1.512  0.00  0.00    +0.149 HD
ENDROOT
BRANCH   1  10
ATOM      5  C   UNL     1       1.760  -1.804  -0.025  0.00  0.00    +0.237 C 
ATOM      6  N   UNL     1       0.767  -2.693   0.594  0.00  0.00    -0.314 N 
ATOM      7  C   UNL     1       0.203  -3.681  -0.200  0.00  0.00    +0.043 A 
ATOM      8  C   UNL     1      -0.761  -4.619   0.225  0.00  0.00    +0.025 A 
ATOM      9  C   UNL     1      -1.264  -5.563  -0.631  0.00  0.00    +0.015 A 
ATOM     10  C   UNL     1      -0.836  -5.630  -1.960  0.00  0.00    +0.038 A 
ATOM     11  C   UNL     1       0.121  -4.710  -2.404  0.00  0.00    +0.029 A 
ATOM     12  C   UNL     1       0.615  -3.769  -1.537  0.00  0.00    +0.033 A 
ATOM     13  S   UNL     1       1.813  -2.468  -1.738  0.00  0.00    -0.079 S 
ATOM     14  H   UNL     1       0.514  -2.592   1.525  0.00  0.00    +0.149 HD
BRANCH   5  18
ATOM     15  C   UNL     1      -0.016   1.344   0.009  0.00  0.00    +0.019 A 
ATOM     16  C   UNL     1       1.322   1.784  -0.001  0.00  0.00    +0.019 A 
ATOM     17  C   UNL     1       2.107   0.688  -0.014  0.00  0.00    +0.088 A 
ATOM     18  N   UNL     1       1.303  -0.413  -0.013  0.00  0.00    -0.326 N 
ATOM     19  C   UNL     1       0.002  -0.004   0.002  0.00  0.00    +0.088 A 
ENDBRANCH   5  18
ENDBRANCH   1  10
BRANCH   3  20
ATOM     20  C   UNL     1      -2.843  -8.543  -3.342  0.00  0.00    +0.109 C 
BRANCH  20  21
ATOM     21  C   UNL     1      -3.861  -9.407  -2.595  0.00  0.00    +0.052 C 
BRANCH  21  22
ATOM     22  C   UNL     1      -4.418 -10.450  -3.530  0.00  0.00    -0.040 C 
ATOM     23  C   UNL     1      -3.990 -11.724  -3.674  0.00  0.00    +0.000 A 
ATOM     24  C   UNL     1      -2.919 -12.492  -3.028  0.00  0.00    +0.030 A 
ATOM     25  C   UNL     1      -2.726 -13.782  -3.391  0.00  0.00    +0.042 A 
ATOM     26  C   UNL     1      -3.522 -14.401  -4.367  0.00  0.00    +0.022 A 
ATOM     27  C   UNL     1      -4.524 -13.759  -5.003  0.00  0.00    +0.027 A 
ATOM     28  C   UNL     1      -4.816 -12.401  -4.700  0.00  0.00    +0.043 A 
ATOM     29  N   UNL     1      -5.719 -11.576  -5.172  0.00  0.00    -0.380 N 
ATOM     30  C   UNL     1      -5.572 -10.283  -4.493  0.00  0.00    +0.144 C 
ATOM     31 CL   UNL     1      -1.460 -14.694  -2.630  0.00  0.00    -0.084 Cl
ATOM     32  H   UNL     1      -6.377 -11.786  -5.853  0.00  0.00    +0.160 HD
ENDBRANCH  21  22
ENDBRANCH  20  21
ENDBRANCH   3  20
TORSDOF 5
