REMARK  Name = ZINC39463747
REMARK  3 active torsions:
REMARK  status: ('A' for Active; 'I' for Inactive)
REMARK    1  A    between atoms: C_4  and  O_7
REMARK    2  A    between atoms: O_7  and  S_8
REMARK    3  A    between atoms: S_8  and  C_11
REMARK                            x       y       z     vdW  Elec       q    Type
REMARK                         _______ _______ _______ _____ _____    ______ ____
ROOT
ATOM      1  C   UNL     1       3.192  -2.273   2.002  0.00  0.00    +0.134 A 
ATOM      2  C   UNL     1       3.755  -3.503   2.153  0.00  0.00    +0.077 A 
ATOM      3  C   UNL     1       2.981  -4.557   2.679  0.00  0.00    +0.141 A 
ATOM      4  N   UNL     1       3.259  -5.828   2.930  0.00  0.00    -0.235 NA
ATOM      5  C   UNL     1       2.173  -6.423   3.433  0.00  0.00    +0.146 A 
ATOM      6  C   UNL     1       1.177  -5.513   3.505  0.00  0.00    +0.105 A 
ATOM      7  N   UNL     1       1.675  -4.330   3.031  0.00  0.00    -0.281 N 
ATOM      8  C   UNL     1       1.123  -3.091   2.875  0.00  0.00    +0.094 A 
ATOM      9  C   UNL     1       1.855  -2.070   2.377  0.00  0.00    +0.064 A 
ATOM     10 BR   UNL     1      -0.679  -2.800   3.367  0.00  0.00    -0.030 Br
ATOM     11  I   UNL     1      -0.767  -5.850   4.210  0.00  0.00    -0.022 I 
ENDROOT
BRANCH   1  12
ATOM     12  S   UNL     1       4.140  -0.941   1.346  0.00  0.00    +0.151 S 
ATOM     13  O   UNL     1       5.458  -1.436   1.154  0.00  0.00    -0.131 OA
ATOM     14  O   UNL     1       3.863   0.192   2.158  0.00  0.00    -0.131 OA
BRANCH  12  15
ATOM     15  O   UNL     1       3.586  -0.632  -0.037  0.00  0.00    -0.342 OA
BRANCH  15  19
ATOM     16  C   UNL     1      -0.017   1.378   0.010  0.00  0.00    +0.000 A 
ATOM     17  C   UNL     1       1.170   2.088   0.002  0.00  0.00    +0.004 A 
ATOM     18  C   UNL     1       2.377   1.417  -0.013  0.00  0.00    +0.048 A 
ATOM     19  C   UNL     1       2.399   0.030  -0.021  0.00  0.00    +0.157 A 
ATOM     20  C   UNL     1       1.207  -0.680  -0.013  0.00  0.00    +0.048 A 
ATOM     21  C   UNL     1       0.002  -0.004   0.002  0.00  0.00    +0.004 A 
ENDBRANCH  15  19
ENDBRANCH  12  15
ENDBRANCH   1  12
TORSDOF 3
