REMARK  Name = ZINC40372363
REMARK  4 active torsions:
REMARK  status: ('A' for Active; 'I' for Inactive)
REMARK    1  A    between atoms: C_6  and  C_7
REMARK    2  A    between atoms: N_9  and  C_10
REMARK    3  A    between atoms: C_10  and  C_16
REMARK    4  A    between atoms: N_17  and  O_18
REMARK                            x       y       z     vdW  Elec       q    Type
REMARK                         _______ _______ _______ _____ _____    ______ ____
ROOT
ATOM      1  C   UNL     1      -2.424  -2.790   0.082  0.00  0.00    +0.093 C 
ATOM      2  C   UNL     1      -3.120  -2.338   1.367  0.00  0.00    +0.033 C 
ATOM      3  C   UNL     1      -2.173  -2.528   2.554  0.00  0.00    +0.002 C 
ATOM      4  C   UNL     1      -1.795  -4.006   2.672  0.00  0.00    +0.000 C 
ATOM      5  C   UNL     1      -1.099  -4.459   1.387  0.00  0.00    +0.002 C 
ATOM      6  C   UNL     1      -2.046  -4.268   0.200  0.00  0.00    +0.033 C 
ENDROOT
BRANCH   1   7
ATOM      7  C   UNL     1      -3.356  -2.603  -1.087  0.00  0.00    +0.155 C 
ATOM      8  N   UNL     1      -4.531  -3.139  -1.068  0.00  0.00    -0.075 NA
ATOM      9  N   UNL     1      -2.956  -1.859  -2.175  0.00  0.00    -0.342 N 
ATOM     10  H   UNL     1      -2.048  -1.520  -2.222  0.00  0.00    +0.144 HD
ATOM     11  H   UNL     1      -3.581  -1.675  -2.893  0.00  0.00    +0.144 HD
BRANCH   8  12
ATOM     12  O   UNL     1      -4.902  -3.997  -0.004  0.00  0.00    -0.408 OA
ATOM     13  H   UNL     1      -5.799  -4.349  -0.078  0.00  0.00    +0.328 HD
ENDBRANCH   8  12
ENDBRANCH   1   7
BRANCH   1  16
ATOM     14  C   UNL     1      -1.291  -0.646  -0.158  0.00  0.00    +0.245 C 
ATOM     15  O   UNL     1      -2.376  -0.099  -0.113  0.00  0.00    -0.270 OA
ATOM     16  N   UNL     1      -1.214  -1.992  -0.125  0.00  0.00    -0.299 N 
ATOM     17  H   UNL     1      -0.356  -2.431  -0.239  0.00  0.00    +0.150 HD
BRANCH  14  23
ATOM     18  C   UNL     1      -0.135   1.556  -0.283  0.00  0.00    +0.014 A 
ATOM     19  C   UNL     1       1.020   2.306  -0.367  0.00  0.00    +0.015 A 
ATOM     20  C   UNL     1       2.253   1.680  -0.418  0.00  0.00    +0.013 A 
ATOM     21  C   UNL     1       2.336   0.298  -0.385  0.00  0.00    +0.015 A 
ATOM     22  C   UNL     1       1.189  -0.463  -0.301  0.00  0.00    +0.014 A 
ATOM     23  C   UNL     1      -0.058   0.163  -0.249  0.00  0.00    +0.037 A 
ATOM     24  I   UNL     1       4.001   2.827  -0.546  0.00  0.00    -0.044 I 
ENDBRANCH  14  23
ENDBRANCH   1  16
TORSDOF 4
