REMARK  Name = ZINC15945361
REMARK  8 active torsions:
REMARK  status: ('A' for Active; 'I' for Inactive)
REMARK    1  A    between atoms: C_1  and  C_2
REMARK    2  A    between atoms: C_2  and  O_3
REMARK    3  A    between atoms: O_3  and  C_4
REMARK    4  A    between atoms: C_6  and  C_12
REMARK    5  A    between atoms: C_9  and  O_10
REMARK    6  A    between atoms: N_21  and  C_24
REMARK    7  A    between atoms: C_24  and  C_25
REMARK    8  A    between atoms: C_31  and  O_33
REMARK                            x       y       z     vdW  Elec       q    Type
REMARK                         _______ _______ _______ _____ _____    ______ ____
ROOT
ATOM      1  C   UNL     1      -0.219  -4.963  -0.535  0.00  0.00    +0.224 C 
ATOM      2  N   UNL     1       0.563  -6.212  -0.571  0.00  0.00    -0.313 N 
ATOM      3  C   UNL     1       1.710  -6.192  -1.333  0.00  0.00    +0.080 A 
ATOM      4  C   UNL     1       1.871  -5.305  -2.405  0.00  0.00    +0.067 A 
ATOM      5  C   UNL     1       3.137  -5.393  -3.103  0.00  0.00    -0.027 A 
ATOM      6  C   UNL     1       3.985  -6.333  -2.620  0.00  0.00    -0.021 A 
ATOM      7  S   UNL     1       3.113  -7.074  -1.270  0.00  0.00    -0.080 S 
ATOM      8  C   UNL     1       5.350  -6.646  -3.146  0.00  0.00    -0.035 C 
ATOM      9  N   UNL     1       5.479  -6.048  -4.488  0.00  0.00    +0.386 N 
ATOM     10  C   UNL     1       5.073  -4.638  -4.440  0.00  0.00    -0.073 C 
ATOM     11  C   UNL     1       3.552  -4.531  -4.288  0.00  0.00    +0.018 C 
ATOM     12  C   UNL     1       0.742  -4.389  -2.711  0.00  0.00    +0.220 C 
ATOM     13  N   UNL     1      -0.212  -4.289  -1.828  0.00  0.00    -0.223 NA
ATOM     14  H   UNL     1       0.285  -7.004  -0.086  0.00  0.00    +0.149 HD
ATOM     15  H   UNL     1       4.888  -6.547  -5.136  0.00  0.00    -0.081 HD
ENDROOT
BRANCH   1  18
ATOM     16  C   UNL     1       0.802  -1.825   1.306  0.00  0.00    +0.163 A 
ATOM     17  C   UNL     1       0.260  -2.673   0.352  0.00  0.00    +0.056 A 
ATOM     18  C   UNL     1       0.371  -4.043   0.502  0.00  0.00    -0.001 A 
ATOM     19  C   UNL     1       1.022  -4.571   1.602  0.00  0.00    +0.026 A 
ATOM     20  C   UNL     1       1.565  -3.730   2.557  0.00  0.00    +0.063 A 
ATOM     21  C   UNL     1       1.462  -2.356   2.409  0.00  0.00    +0.173 A 
ATOM     22 BR   UNL     1       2.453  -4.456   4.061  0.00  0.00    -0.046 Br
BRANCH  21  23
ATOM     23  O   UNL     1       2.000  -1.528   3.345  0.00  0.00    -0.503 OA
ATOM     24  H   UNL     1       1.395  -1.301   4.064  0.00  0.00    +0.292 HD
ENDBRANCH  21  23
BRANCH  16  25
ATOM     25  O   UNL     1       0.693  -0.477   1.160  0.00  0.00    -0.489 OA
BRANCH  25  27
ATOM     26  C   UNL     1      -0.019   1.526   0.010  0.00  0.00    +0.048 C 
ATOM     27  C   UNL     1       0.002  -0.004   0.002  0.00  0.00    +0.226 C 
ENDBRANCH  25  27
ENDBRANCH  16  25
ENDBRANCH   1  18
BRANCH  12  28
ATOM     28  O   UNL     1       0.706  -3.683  -3.864  0.00  0.00    -0.492 OA
ATOM     29  H   UNL     1      -0.075  -3.120  -3.957  0.00  0.00    +0.294 HD
ENDBRANCH  12  28
BRANCH   9  30
ATOM     30  C   UNL     1       6.876  -6.140  -4.931  0.00  0.00    -0.043 C 
BRANCH  30  31
ATOM     31  C   UNL     1       7.255  -7.589  -5.102  0.00  0.00    -0.064 A 
ATOM     32  C   UNL     1       7.784  -8.295  -4.037  0.00  0.00    +0.002 A 
ATOM     33  C   UNL     1       8.131  -9.624  -4.193  0.00  0.00    +0.000 A 
ATOM     34  C   UNL     1       7.950 -10.246  -5.414  0.00  0.00    +0.000 A 
ATOM     35  C   UNL     1       7.421  -9.541  -6.478  0.00  0.00    +0.000 A 
ATOM     36  C   UNL     1       7.069  -8.213  -6.321  0.00  0.00    +0.002 A 
ENDBRANCH  30  31
ENDBRANCH   9  30
TORSDOF 7
