REMARK  Name = ZINC29403353
REMARK  8 active torsions:
REMARK  status: ('A' for Active; 'I' for Inactive)
REMARK    1  A    between atoms: C_4  and  O_7
REMARK    2  A    between atoms: O_7  and  C_8
REMARK    3  A    between atoms: N_10  and  C_11
REMARK    4  A    between atoms: N_14  and  C_17
REMARK    5  A    between atoms: C_17  and  C_18
REMARK    6  A    between atoms: N_20  and  C_21
REMARK    7  A    between atoms: C_31  and  C_33
REMARK    8  A    between atoms: C_33  and  C_34
REMARK                            x       y       z     vdW  Elec       q    Type
REMARK                         _______ _______ _______ _____ _____    ______ ____
ROOT
ATOM      1  C   UNL     1      10.889   2.624  -1.885  0.00  0.00    +0.197 C 
ATOM      2  O   UNL     1      10.053   2.480  -2.752  0.00  0.00    -0.278 OA
ATOM      3  N   UNL     1      11.934   3.451  -2.087  0.00  0.00    -0.313 N 
ATOM      4  H   UNL     1      12.692   3.581  -1.301  0.00  0.00    +0.149 HD
ENDROOT
BRANCH   3   5
ATOM      5  C   UNL     1      12.060   4.176  -3.354  0.00  0.00    +0.081 C 
ATOM      6  C   UNL     1      12.779   3.296  -4.383  0.00  0.00    +0.027 C 
ATOM      7  C   UNL     1      12.683   3.975  -5.748  0.00  0.00    +0.037 C 
ATOM      8  C   UNL     1      13.132   5.410  -5.659  0.00  0.00    -0.041 A 
ATOM      9  C   UNL     1      13.459   6.059  -6.842  0.00  0.00    +0.042 A 
ATOM     10  C   UNL     1      13.865   7.380  -6.829  0.00  0.00    +0.124 A 
ATOM     11  C   UNL     1      13.947   8.061  -5.625  0.00  0.00    +0.038 A 
ATOM     12  C   UNL     1      13.625   7.415  -4.450  0.00  0.00    +0.007 A 
ATOM     13  C   UNL     1      13.217   6.087  -4.463  0.00  0.00    -0.039 A 
ATOM     14  C   UNL     1      12.886   5.443  -3.142  0.00  0.00    +0.044 C 
ATOM     15  F   UNL     1      14.181   8.004  -7.984  0.00  0.00    -0.205 F 
BRANCH  14  16
ATOM     16  C   UNL     1      12.086   6.429  -2.288  0.00  0.00    +0.046 C 
BRANCH  16  17
ATOM     17  C   UNL     1      10.733   6.652  -2.911  0.00  0.00    -0.029 A 
ATOM     18  C   UNL     1      10.562   7.616  -3.893  0.00  0.00    +0.006 A 
ATOM     19  C   UNL     1       9.300   7.783  -4.442  0.00  0.00    +0.020 A 
ATOM     20  C   UNL     1       8.259   6.995  -3.989  0.00  0.00    +0.111 A 
ATOM     21  N   UNL     1       8.457   6.090  -3.050  0.00  0.00    -0.263 NA
ATOM     22  C   UNL     1       9.645   5.901  -2.509  0.00  0.00    +0.114 A 
ENDBRANCH  16  17
ENDBRANCH  14  16
ENDBRANCH   3   5
BRANCH   1  23
ATOM     23  C   UNL     1      10.760   1.878  -0.582  0.00  0.00    +0.019 C 
BRANCH  23  27
ATOM     24  C   UNL     1       7.951  -1.336  -0.328  0.00  0.00    +0.073 C 
ATOM     25  C   UNL     1       7.893  -0.201   0.699  0.00  0.00    +0.004 C 
ATOM     26  C   UNL     1       9.242   0.522   0.729  0.00  0.00    -0.076 C 
ATOM     27  N   UNL     1       9.540   1.059  -0.605  0.00  0.00    +0.385 N 
ATOM     28  C   UNL     1       9.647  -0.016  -1.599  0.00  0.00    -0.076 C 
ATOM     29  C   UNL     1       8.311  -0.755  -1.699  0.00  0.00    +0.004 C 
ATOM     30  H   UNL     1       8.702   1.707  -0.901  0.00  0.00    -0.081 HD
BRANCH  24  33
ATOM     31  C   UNL     1       6.335  -2.978   0.464  0.00  0.00    +0.406 C 
ATOM     32  O   UNL     1       7.139  -3.318   1.309  0.00  0.00    -0.226 OA
ATOM     33  N   UNL     1       6.645  -1.994  -0.403  0.00  0.00    -0.278 N 
ATOM     34  H   UNL     1       5.917  -1.686  -1.168  0.00  0.00    +0.152 HD
BRANCH  31  35
ATOM     35  O   UNL     1       5.134  -3.584   0.395  0.00  0.00    -0.412 OA
BRANCH  35  39
ATOM     36  C   UNL     1       4.237  -6.309   3.360  0.00  0.00    +0.000 A 
ATOM     37  C   UNL     1       4.313  -4.962   3.661  0.00  0.00    +0.004 A 
ATOM     38  C   UNL     1       4.614  -4.047   2.670  0.00  0.00    +0.046 A 
ATOM     39  C   UNL     1       4.839  -4.482   1.372  0.00  0.00    +0.133 A 
ATOM     40  C   UNL     1       4.761  -5.834   1.073  0.00  0.00    +0.046 A 
ATOM     41  C   UNL     1       4.460  -6.745   2.067  0.00  0.00    +0.004 A 
ENDBRANCH  35  39
ENDBRANCH  31  35
ENDBRANCH  24  33
ENDBRANCH  23  27
ENDBRANCH   1  23
TORSDOF 8
