REMARK  Name = ZINC39704005
REMARK  12 active torsions:
REMARK  status: ('A' for Active; 'I' for Inactive)
REMARK    1  A    between atoms: C_1  and  C_2
REMARK    2  A    between atoms: C_4  and  C_18
REMARK    3  A    between atoms: C_7  and  C_17
REMARK    4  A    between atoms: N_8  and  C_9
REMARK    5  A    between atoms: C_9  and  C_10
REMARK    6  A    between atoms: C_10  and  C_11
REMARK    7  A    between atoms: C_18  and  C_20
REMARK    8  A    between atoms: C_20  and  S_21
REMARK    9  A    between atoms: S_21  and  C_22
REMARK   10  A    between atoms: C_26  and  C_29
REMARK   11  A    between atoms: C_29  and  C_30
REMARK   12  A    between atoms: C_30  and  C_31
REMARK                            x       y       z     vdW  Elec       q    Type
REMARK                         _______ _______ _______ _____ _____    ______ ____
ROOT
ATOM      1  C   UNL     1      -0.156  -1.792  -2.111  0.00  0.00    +0.149 C 
ATOM      2  O   UNL     1      -1.200  -2.224  -1.683  0.00  0.00    -0.296 OA
ENDROOT
BRANCH   1   5
ATOM      3  C   UNL     1      -0.180   1.009  -0.185  0.00  0.00    +0.031 C 
ATOM      4  C   UNL     1       0.066  -0.485   0.031  0.00  0.00    +0.089 C 
ATOM      5  C   UNL     1       0.805  -1.090  -1.186  0.00  0.00    +0.084 C 
ATOM      6  C   UNL     1       1.744  -2.100  -0.483  0.00  0.00    +0.061 C 
ATOM      7  C   UNL     1       1.877  -1.552   0.921  0.00  0.00    -0.010 C 
ATOM      8  N   UNL     1       0.969  -0.693   1.169  0.00  0.00    -0.374 N 
ATOM      9  C   UNL     1       2.943  -1.970   1.900  0.00  0.00    +0.058 C 
BRANCH   8  10
ATOM     10  C   UNL     1       0.841   0.011   2.448  0.00  0.00    +0.120 C 
BRANCH  10  11
ATOM     11  C   UNL     1      -0.465  -0.402   3.129  0.00  0.00    +0.051 C 
BRANCH  11  12
ATOM     12  C   UNL     1      -0.543   0.234   4.493  0.00  0.00    -0.072 C 
ATOM     13  C   UNL     1      -1.190   1.350   4.606  0.00  0.00    -0.028 C 
ATOM     14  C   UNL     1      -1.344   2.105   5.894  0.00  0.00    +0.027 C 
ATOM     15  C   UNL     1      -1.022   1.194   7.081  0.00  0.00    +0.004 C 
ATOM     16  C   UNL     1       0.317   0.498   6.809  0.00  0.00    +0.005 C 
ATOM     17  C   UNL     1       0.128  -0.469   5.636  0.00  0.00    +0.030 C 
ENDBRANCH  11  12
ENDBRANCH  10  11
ENDBRANCH   8  10
ENDBRANCH   1   5
BRANCH   1  18
ATOM     18  C   UNL     1       0.186  -1.956  -3.569  0.00  0.00    +0.152 C 
BRANCH  18  19
ATOM     19  S   UNL     1      -1.160  -2.835  -4.411  0.00  0.00    -0.077 S 
BRANCH  19  20
ATOM     20  C   UNL     1      -0.616  -2.945  -6.083  0.00  0.00    +0.213 A 
ATOM     21  N   UNL     1      -1.385  -3.545  -6.984  0.00  0.00    -0.180 NA
ATOM     22  C   UNL     1      -0.970  -3.625  -8.244  0.00  0.00    +0.296 A 
ATOM     23  O   UNL     1      -1.733  -4.231  -9.186  0.00  0.00    -0.264 OA
ATOM     24  C   UNL     1       0.268  -3.074  -8.578  0.00  0.00    +0.130 A 
ATOM     25  N   UNL     1       0.988  -2.490  -7.639  0.00  0.00    -0.146 NA
ATOM     26  N   UNL     1       0.555  -2.424  -6.428  0.00  0.00    -0.122 NA
BRANCH  24  27
ATOM     27  C   UNL     1       0.776  -3.144  -9.995  0.00  0.00    +0.074 C 
BRANCH  27  28
ATOM     28  C   UNL     1       0.308  -1.908 -10.767  0.00  0.00    +0.131 C 
BRANCH  28  29
ATOM     29  C   UNL     1       0.816  -1.979 -12.184  0.00  0.00    +0.356 C 
ATOM     30  O   UNL     1       1.491  -2.929 -12.543  0.00  0.00    -0.246 OA
ATOM     31  O   UNL     1       0.553  -1.085 -12.971  0.00  0.00    -0.246 OA
ENDBRANCH  28  29
ENDBRANCH  27  28
ENDBRANCH  24  27
ENDBRANCH  19  20
ENDBRANCH  18  19
ENDBRANCH   1  18
TORSDOF 10
