REMARK  Name = ZINC04149564
REMARK  8 active torsions:
REMARK  status: ('A' for Active; 'I' for Inactive)
REMARK    1  A    between atoms: C_1  and  C_2
REMARK    2  A    between atoms: C_2  and  C_3
REMARK    3  A    between atoms: C_2  and  N_4
REMARK    4  A    between atoms: C_11  and  C_23
REMARK    5  A    between atoms: C_13  and  C_19
REMARK    6  A    between atoms: C_13  and  C_21
REMARK    7  A    between atoms: C_14  and  N_18
REMARK    8  A    between atoms: C_15  and  C_16
REMARK                            x       y       z     vdW  Elec       q    Type
REMARK                         _______ _______ _______ _____ _____    ______ ____
ROOT
ATOM      1  N   UNL     1      -1.444  -0.939  -0.598  0.00  0.00    -0.296 NA
ATOM      2  C   UNL     1      -2.328  -0.533  -1.705  0.00  0.00    +0.112 C 
ATOM      3  C   UNL     1      -3.749  -0.795  -1.273  0.00  0.00    -0.006 C 
ATOM      4  C   UNL     1      -4.020  -1.815  -0.479  0.00  0.00    -0.026 C 
ATOM      5  C   UNL     1      -2.974  -2.786  -0.012  0.00  0.00    +0.044 C 
ATOM      6  C   UNL     1      -1.561  -2.381  -0.360  0.00  0.00    +0.094 C 
ATOM      7  C   UNL     1      -3.160  -2.998   1.492  0.00  0.00    +0.070 C 
ATOM      8  C   UNL     1      -4.531  -3.630   1.736  0.00  0.00    +0.188 C 
ATOM      9  C   UNL     1      -5.624  -2.881   1.038  0.00  0.00    +0.054 C 
ATOM     10  C   UNL     1      -5.409  -2.039  -0.006  0.00  0.00    +0.074 C 
ENDROOT
BRANCH   7  11
ATOM     11  C   UNL     1      -2.080  -3.911   2.010  0.00  0.00    -0.005 A 
ATOM     12  C   UNL     1      -1.851  -5.128   1.397  0.00  0.00    +0.009 A 
ATOM     13  C   UNL     1      -0.860  -5.967   1.872  0.00  0.00    +0.039 A 
ATOM     14  C   UNL     1      -0.096  -5.588   2.963  0.00  0.00    +0.126 A 
ATOM     15  C   UNL     1      -0.324  -4.369   3.577  0.00  0.00    +0.077 A 
ATOM     16  C   UNL     1      -1.313  -3.527   3.098  0.00  0.00    +0.130 A 
ATOM     17  F   UNL     1      -1.533  -2.335   3.693  0.00  0.00    -0.205 F 
ATOM     18  F   UNL     1       0.872  -6.408   3.427  0.00  0.00    -0.205 F 
ENDBRANCH   7  11
BRANCH   1  20
ATOM     19  C   UNL     1       0.031   0.946  -1.113  0.00  0.00    +0.024 C 
ATOM     20  C   UNL     1      -0.051  -0.562  -0.871  0.00  0.00    +0.051 C 
ATOM     21  C   UNL     1       0.823  -0.934   0.330  0.00  0.00    +0.024 C 
ENDBRANCH   1  20
BRANCH   9  22
ATOM     22  N   UNL     1      -6.908  -3.054   1.473  0.00  0.00    -0.358 N 
ATOM     23  H   UNL     1      -7.091  -3.650   2.217  0.00  0.00    +0.142 HD
ATOM     24  H   UNL     1      -7.635  -2.582   1.040  0.00  0.00    +0.142 HD
ENDBRANCH   9  22
BRANCH  10  25
ATOM     25  C   UNL     1      -6.507  -1.375  -0.640  0.00  0.00    +0.101 C 
ATOM     26  N   UNL     1      -7.379  -0.848  -1.144  0.00  0.00    -0.191 NA
ENDBRANCH  10  25
BRANCH   8  27
ATOM     27  C   UNL     1      -4.512  -5.018   1.247  0.00  0.00    +0.091 C 
ATOM     28  N   UNL     1      -4.498  -6.090   0.869  0.00  0.00    -0.194 NA
ENDBRANCH   8  27
BRANCH   8  29
ATOM     29  C   UNL     1      -4.804  -3.638   3.183  0.00  0.00    +0.091 C 
ATOM     30  N   UNL     1      -5.014  -3.644   4.299  0.00  0.00    -0.194 NA
ENDBRANCH   8  29
TORSDOF 6
