REMARK  Name = ZINC62939536
REMARK  4 active torsions:
REMARK  status: ('A' for Active; 'I' for Inactive)
REMARK    1  A    between atoms: C_1  and  N_2
REMARK    2  A    between atoms: C_3  and  S_7
REMARK    3  A    between atoms: S_7  and  C_8
REMARK    4  A    between atoms: C_13  and  N_17
REMARK                            x       y       z     vdW  Elec       q    Type
REMARK                         _______ _______ _______ _____ _____    ______ ____
ROOT
ATOM      1  C   UNL     1       0.010  -1.839  -3.662  0.00  0.00    +0.143 A 
ATOM      2  N   UNL     1       0.025  -3.067  -3.198  0.00  0.00    -0.232 NA
ATOM      3  C   UNL     1       0.037  -4.149  -4.009  0.00  0.00    +0.080 A 
ATOM      4  C   UNL     1       0.053  -5.514  -3.640  0.00  0.00    +0.031 A 
ATOM      5  C   UNL     1       0.065  -6.499  -4.593  0.00  0.00    +0.025 A 
ATOM      6  C   UNL     1       0.062  -6.194  -5.952  0.00  0.00    +0.026 A 
ATOM      7  C   UNL     1       0.046  -4.863  -6.347  0.00  0.00    +0.040 A 
ATOM      8  C   UNL     1       0.034  -3.875  -5.395  0.00  0.00    +0.042 A 
ATOM      9  S   UNL     1       0.005  -2.098  -5.430  0.00  0.00    -0.061 S 
ENDROOT
BRANCH   6  10
ATOM     10  N   UNL     1       0.075  -7.217  -6.907  0.00  0.00    -0.358 N 
ATOM     11  H   UNL     1       0.086  -8.145  -6.625  0.00  0.00    +0.142 HD
ATOM     12  H   UNL     1       0.072  -6.998  -7.852  0.00  0.00    +0.142 HD
ENDBRANCH   6  10
BRANCH   1  13
ATOM     13  S   UNL     1      -0.007  -0.320  -2.768  0.00  0.00    -0.022 S 
BRANCH  13  16
ATOM     14  C   UNL     1      -0.018   1.461   0.010  0.00  0.00    +0.177 C 
ATOM     15  N   UNL     1       0.002  -0.004   0.002  0.00  0.00    -0.223 N 
ATOM     16  C   UNL     1       0.009  -0.820  -1.078  0.00  0.00    +0.216 A 
ATOM     17  N   UNL     1       0.028  -2.056  -0.629  0.00  0.00    -0.101 NA
ATOM     18  N   UNL     1       0.034  -2.068   0.655  0.00  0.00    -0.022 NA
ATOM     19  N   UNL     1       0.025  -0.864   1.114  0.00  0.00    -0.043 NA
ENDBRANCH  13  16
ENDBRANCH   1  13
TORSDOF 3
