REMARK  Name = ZINC36481232
REMARK  12 active torsions:
REMARK  status: ('A' for Active; 'I' for Inactive)
REMARK    1  A    between atoms: C_1  and  C_2
REMARK    2  A    between atoms: C_2  and  C_3
REMARK    3  A    between atoms: C_3  and  C_4
REMARK    4  A    between atoms: C_4  and  N_5
REMARK    5  A    between atoms: C_6  and  C_8
REMARK    6  A    between atoms: C_8  and  C_10
REMARK    7  A    between atoms: C_8  and  N_19
REMARK    8  A    between atoms: N_19  and  C_20
REMARK    9  A    between atoms: C_27  and  C_29
REMARK   10  A    between atoms: C_29  and  C_31
REMARK   11  A    between atoms: C_29  and  O_37
REMARK   12  A    between atoms: O_37  and  C_38
REMARK                            x       y       z     vdW  Elec       q    Type
REMARK                         _______ _______ _______ _____ _____    ______ ____
ROOT
ATOM      1  N   UNL     1       2.593  -6.222  -3.883  0.00  0.00    -0.253 N 
ATOM      2  C   UNL     1       3.730  -6.445  -3.195  0.00  0.00    +0.254 C 
ATOM      3  O   UNL     1       4.433  -7.392  -3.476  0.00  0.00    -0.272 OA
ENDROOT
BRANCH   1   4
ATOM      4  C   UNL     1       2.268  -7.031  -4.977  0.00  0.00    +0.039 A 
ATOM      5  C   UNL     1       2.449  -6.557  -6.271  0.00  0.00    +0.023 A 
ATOM      6  C   UNL     1       2.127  -7.357  -7.349  0.00  0.00    +0.003 A 
ATOM      7  C   UNL     1       1.625  -8.629  -7.144  0.00  0.00    +0.020 A 
ATOM      8  C   UNL     1       1.442  -9.104  -5.857  0.00  0.00    +0.043 A 
ATOM      9  C   UNL     1       1.769  -8.310  -4.773  0.00  0.00    +0.043 A 
ATOM     10 CL   UNL     1       0.810 -10.701  -5.603  0.00  0.00    -0.083 Cl
ENDBRANCH   1   4
BRANCH   1  11
ATOM     11  C   UNL     1       1.697  -5.133  -3.485  0.00  0.00    +0.197 C 
BRANCH  11  12
ATOM     12  C   UNL     1       0.597  -4.989  -4.505  0.00  0.00    -0.014 A 
ATOM     13  C   UNL     1      -0.210  -6.070  -4.806  0.00  0.00    +0.010 A 
ATOM     14  C   UNL     1      -1.220  -5.943  -5.741  0.00  0.00    +0.050 A 
ATOM     15  C   UNL     1      -1.426  -4.730  -6.378  0.00  0.00    +0.166 A 
ATOM     16  C   UNL     1      -0.613  -3.641  -6.075  0.00  0.00    +0.167 A 
ATOM     17  C   UNL     1       0.394  -3.775  -5.133  0.00  0.00    +0.055 A 
ATOM     18  O   UNL     1      -1.012  -2.575  -6.828  0.00  0.00    -0.453 OA
ATOM     19  C   UNL     1      -1.810  -3.131  -7.889  0.00  0.00    +0.466 C 
ATOM     20  O   UNL     1      -2.335  -4.346  -7.322  0.00  0.00    -0.453 OA
ENDBRANCH  11  12
BRANCH  11  22
ATOM     21  N   UNL     1       0.235  -4.579  -1.568  0.00  0.00    -0.313 N 
ATOM     22  C   UNL     1       1.096  -5.445  -2.138  0.00  0.00    +0.238 C 
ATOM     23  O   UNL     1       1.387  -6.474  -1.567  0.00  0.00    -0.273 OA
ATOM     24  H   UNL     1       0.002  -3.755  -2.025  0.00  0.00    +0.149 HD
BRANCH  21  25
ATOM     25  C   UNL     1      -0.350  -4.881  -0.260  0.00  0.00    +0.104 C 
BRANCH  25  26
ATOM     26  C   UNL     1      -1.285  -3.744   0.156  0.00  0.00    +0.018 C 
BRANCH  26  28
ATOM     27  C   UNL     1      -2.831  -2.923   1.939  0.00  0.00    +0.004 C 
ATOM     28  C   UNL     1      -1.896  -4.060   1.523  0.00  0.00    -0.002 C 
ENDBRANCH  26  28
ENDBRANCH  25  26
ENDBRANCH  21  25
ENDBRANCH  11  22
ENDBRANCH   1  11
BRANCH   2  29
ATOM     29  C   UNL     1       4.128  -5.517  -2.076  0.00  0.00    +0.234 C 
BRANCH  29  30
ATOM     30  C   UNL     1       4.685  -4.242  -2.655  0.00  0.00    -0.010 A 
ATOM     31  C   UNL     1       5.945  -4.234  -3.224  0.00  0.00    +0.006 A 
ATOM     32  C   UNL     1       6.456  -3.064  -3.755  0.00  0.00    +0.000 A 
ATOM     33  C   UNL     1       5.707  -1.903  -3.718  0.00  0.00    +0.000 A 
ATOM     34  C   UNL     1       4.447  -1.911  -3.150  0.00  0.00    +0.000 A 
ATOM     35  C   UNL     1       3.934  -3.082  -2.623  0.00  0.00    +0.006 A 
ENDBRANCH  29  30
BRANCH  29  36
ATOM     36  O   UNL     1       5.123  -6.146  -1.266  0.00  0.00    -0.366 OA
ATOM     37  C   UNL     1       4.591  -6.910  -0.182  0.00  0.00    +0.195 C 
ENDBRANCH  29  36
ENDBRANCH   2  29
TORSDOF 10
