REMARK  Name = ZINC65081034
REMARK  8 active torsions:
REMARK  status: ('A' for Active; 'I' for Inactive)
REMARK    1  A    between atoms: C_1  and  C_2
REMARK    2  A    between atoms: C_2  and  C_3
REMARK    3  A    between atoms: C_6  and  C_9
REMARK    4  A    between atoms: C_9  and  N_10
REMARK    5  A    between atoms: C_11  and  C_13
REMARK    6  A    between atoms: C_25  and  C_35
REMARK    7  A    between atoms: N_27  and  C_28
REMARK    8  A    between atoms: C_31  and  C_34
REMARK                            x       y       z     vdW  Elec       q    Type
REMARK                         _______ _______ _______ _____ _____    ______ ____
ROOT
ATOM      1  C   UNL     1       4.385   0.188   7.458  0.00  0.00    +0.092 C 
ATOM      2  C   UNL     1       5.123  -0.320   8.698  0.00  0.00    +0.016 C 
ATOM      3  C   UNL     1       5.620   0.871   9.521  0.00  0.00    +0.020 C 
ATOM      4  C   UNL     1       4.421   1.706   9.980  0.00  0.00    +0.107 C 
ATOM      5  N   UNL     1       3.624   2.076   8.803  0.00  0.00    -0.309 N 
ATOM      6  C   UNL     1       3.171   1.015   7.893  0.00  0.00    +0.119 C 
ATOM      7  C   UNL     1       3.306   3.398   8.555  0.00  0.00    +0.164 A 
ATOM      8  N   UNL     1       3.625   4.473   9.247  0.00  0.00    -0.205 NA
ATOM      9  C   UNL     1       3.241   5.701   8.880  0.00  0.00    +0.173 A 
ATOM     10  C   UNL     1       2.477   5.795   7.714  0.00  0.00    +0.082 A 
ATOM     11  S   UNL     1       2.361   4.096   7.207  0.00  0.00    -0.049 S 
ATOM     12  C   UNL     1       2.166   7.123   7.476  0.00  0.00    +0.076 A 
ATOM     13  N   UNL     1       2.694   7.849   8.428  0.00  0.00    -0.169 NA
ATOM     14  N   UNL     1       3.370   7.012   9.320  0.00  0.00    -0.213 N 
ATOM     15  C   UNL     1       1.356   7.644   6.317  0.00  0.00    +0.069 C 
ENDROOT
BRANCH  14  16
ATOM     16  C   UNL     1       4.060   7.425  10.466  0.00  0.00    +0.068 A 
ATOM     17  C   UNL     1       4.067   6.624  11.601  0.00  0.00    +0.028 A 
ATOM     18  C   UNL     1       4.749   7.035  12.729  0.00  0.00    +0.005 A 
ATOM     19  C   UNL     1       5.423   8.242  12.731  0.00  0.00    -0.050 A 
ATOM     20  C   UNL     1       5.417   9.042  11.603  0.00  0.00    +0.005 A 
ATOM     21  C   UNL     1       4.742   8.634  10.469  0.00  0.00    +0.028 A 
ATOM     22  C   UNL     1       6.166   8.687  13.964  0.00  0.00    +0.044 C 
ENDBRANCH  14  16
BRANCH   1  24
ATOM     23  N   UNL     1       3.245  -0.778   5.486  0.00  0.00    -0.311 N 
ATOM     24  C   UNL     1       3.924  -0.986   6.632  0.00  0.00    +0.218 C 
ATOM     25  O   UNL     1       4.163  -2.117   6.999  0.00  0.00    -0.275 OA
ATOM     26  H   UNL     1       3.053   0.126   5.193  0.00  0.00    +0.149 HD
BRANCH  23  27
ATOM     27  C   UNL     1       2.797  -1.919   4.683  0.00  0.00    +0.139 C 
BRANCH  27  31
ATOM     28  C   UNL     1       0.731  -0.503   1.223  0.00  0.00    -0.048 A 
ATOM     29  C   UNL     1       2.097  -0.710   1.176  0.00  0.00    +0.004 A 
ATOM     30  C   UNL     1       2.766  -1.167   2.296  0.00  0.00    +0.005 A 
ATOM     31  C   UNL     1       2.068  -1.419   3.463  0.00  0.00    -0.030 A 
ATOM     32  C   UNL     1       0.702  -1.212   3.510  0.00  0.00    +0.005 A 
ATOM     33  C   UNL     1       0.034  -0.750   2.391  0.00  0.00    +0.004 A 
BRANCH  28  35
ATOM     34  C   UNL     1      -0.019   1.526   0.010  0.00  0.00    +0.009 C 
ATOM     35  C   UNL     1       0.002  -0.004   0.002  0.00  0.00    +0.032 C 
ENDBRANCH  28  35
ENDBRANCH  27  31
ENDBRANCH  23  27
ENDBRANCH   1  24
TORSDOF 5
