REMARK  Name = ZINC01202431
REMARK  7 active torsions:
REMARK  status: ('A' for Active; 'I' for Inactive)
REMARK    1  A    between atoms: C_1  and  C_2
REMARK    2  A    between atoms: C_3  and  C_30
REMARK    3  A    between atoms: C_4  and  C_21
REMARK    4  A    between atoms: C_10  and  C_15
REMARK    5  A    between atoms: C_25  and  N_27
REMARK    6  A    between atoms: C_30  and  O_32
REMARK    7  A    between atoms: O_32  and  C_33
REMARK                            x       y       z     vdW  Elec       q    Type
REMARK                         _______ _______ _______ _____ _____    ______ ____
ROOT
ATOM      1  C   UNL     1      -2.253  -5.809   2.488  0.00  0.00    +0.061 C 
ATOM      2  C   UNL     1      -2.237  -5.013   1.208  0.00  0.00    +0.016 C 
ATOM      3  C   UNL     1      -2.727  -3.762   1.194  0.00  0.00    +0.065 C 
ATOM      4  C   UNL     1      -2.721  -2.938  -0.060  0.00  0.00    +0.092 C 
ATOM      5  C   UNL     1      -2.530  -3.808  -1.277  0.00  0.00    +0.024 C 
ATOM      6  C   UNL     1      -2.043  -5.060  -1.161  0.00  0.00    +0.016 C 
ATOM      7  N   UNL     1      -1.724  -5.569   0.070  0.00  0.00    -0.321 N 
ATOM      8  C   UNL     1      -1.832  -5.928  -2.376  0.00  0.00    +0.059 C 
ATOM      9  C   UNL     1      -2.869  -5.575  -3.445  0.00  0.00    +0.032 C 
ATOM     10  C   UNL     1      -2.725  -4.089  -3.790  0.00  0.00    +0.088 C 
ATOM     11  C   UNL     1      -2.877  -3.277  -2.533  0.00  0.00    +0.162 C 
ATOM     12  O   UNL     1      -3.308  -2.143  -2.603  0.00  0.00    -0.292 OA
ATOM     13  H   UNL     1      -1.049  -6.435   0.136  0.00  0.00    +0.152 HD
ENDROOT
BRANCH   9  14
ATOM     14  C   UNL     1      -2.627  -6.407  -4.678  0.00  0.00    -0.044 A 
ATOM     15  C   UNL     1      -1.422  -6.315  -5.349  0.00  0.00    +0.004 A 
ATOM     16  C   UNL     1      -1.199  -7.081  -6.478  0.00  0.00    +0.000 A 
ATOM     17  C   UNL     1      -2.185  -7.932  -6.942  0.00  0.00    +0.000 A 
ATOM     18  C   UNL     1      -3.392  -8.020  -6.274  0.00  0.00    +0.000 A 
ATOM     19  C   UNL     1      -3.614  -7.257  -5.143  0.00  0.00    +0.004 A 
ENDBRANCH   9  14
BRANCH   4  20
ATOM     20  C   UNL     1      -1.599  -1.935   0.012  0.00  0.00    -0.033 A 
ATOM     21  C   UNL     1      -0.290  -2.368   0.123  0.00  0.00    +0.005 A 
ATOM     22  C   UNL     1       0.739  -1.448   0.190  0.00  0.00    +0.003 A 
ATOM     23  C   UNL     1       0.461  -0.095   0.145  0.00  0.00    +0.033 A 
ATOM     24  C   UNL     1      -0.847   0.339   0.034  0.00  0.00    +0.126 A 
ATOM     25  C   UNL     1      -1.877  -0.581  -0.027  0.00  0.00    +0.037 A 
BRANCH  24  26
ATOM     26  N   UNL     1      -1.145   1.788  -0.013  0.00  0.00    +0.056 N 
ATOM     27  O   UNL     1      -0.238   2.598   0.045  0.00  0.00    -0.126 OA
ATOM     28  O   UNL     1      -2.298   2.169  -0.116  0.00  0.00    -0.126 OA
ENDBRANCH  24  26
ENDBRANCH   4  20
BRANCH   3  29
ATOM     29  C   UNL     1      -3.258  -3.211   2.384  0.00  0.00    +0.338 C 
ATOM     30  O   UNL     1      -3.382  -3.907   3.374  0.00  0.00    -0.245 OA
BRANCH  29  31
ATOM     31  O   UNL     1      -3.628  -1.914   2.420  0.00  0.00    -0.458 OA
BRANCH  31  32
ATOM     32  C   UNL     1      -4.157  -1.425   3.655  0.00  0.00    +0.177 C 
ATOM     33  C   UNL     1      -5.695  -1.547   3.656  0.00  0.00    +0.044 C 
ATOM     34  C   UNL     1      -6.176  -0.277   4.400  0.00  0.00    +0.004 C 
ATOM     35  C   UNL     1      -5.189   0.807   3.900  0.00  0.00    +0.004 C 
ATOM     36  C   UNL     1      -3.835   0.072   3.809  0.00  0.00    +0.044 C 
ENDBRANCH  31  32
ENDBRANCH  29  31
ENDBRANCH   3  29
TORSDOF 6
