REMARK  Name = ZINC50670228
REMARK  4 active torsions:
REMARK  status: ('A' for Active; 'I' for Inactive)
REMARK    1  A    between atoms: C_1  and  C_2
REMARK    2  A    between atoms: N_11  and  S_12
REMARK    3  A    between atoms: S_12  and  C_15
REMARK    4  A    between atoms: C_20  and  N_21
REMARK                            x       y       z     vdW  Elec       q    Type
REMARK                         _______ _______ _______ _____ _____    ______ ____
ROOT
ATOM      1  S   UNL     1       1.759   0.531   1.970  0.00  0.00    +0.065 S 
ATOM      2  O   UNL     1       0.992   1.571   2.561  0.00  0.00    -0.153 OA
ATOM      3  O   UNL     1       2.548  -0.366   2.739  0.00  0.00    -0.153 OA
ENDROOT
BRANCH   1  13
ATOM      4  C   UNL     1      -0.541   1.690   0.755  0.00  0.00    +0.031 C 
ATOM      5  C   UNL     1      -0.384   0.229   0.330  0.00  0.00    +0.107 C 
ATOM      6  C   UNL     1      -1.671  -0.538   0.629  0.00  0.00    -0.019 A 
ATOM      7  C   UNL     1      -2.937  -0.069   0.284  0.00  0.00    +0.013 A 
ATOM      8  C   UNL     1      -4.034  -0.804   0.576  0.00  0.00    +0.046 A 
ATOM      9  S   UNL     1      -3.317  -2.232   1.375  0.00  0.00    -0.101 S 
ATOM     10  C   UNL     1      -1.617  -1.742   1.261  0.00  0.00    -0.004 A 
ATOM     11  C   UNL     1      -0.406  -2.471   1.747  0.00  0.00    +0.060 C 
ATOM     12  C   UNL     1       0.836  -1.862   1.078  0.00  0.00    +0.115 C 
ATOM     13  N   UNL     1       0.702  -0.398   1.096  0.00  0.00    -0.169 NA
ENDBRANCH   1  13
BRANCH   1  14
ATOM     14  C   UNL     1       2.849   1.301   0.819  0.00  0.00    +0.146 A 
ATOM     15  C   UNL     1       2.853   2.676   0.670  0.00  0.00    +0.048 A 
ATOM     16  C   UNL     1       3.729   3.241  -0.249  0.00  0.00    +0.038 A 
ATOM     17  C   UNL     1       4.563   2.418  -0.981  0.00  0.00    +0.128 A 
ATOM     18  N   UNL     1       4.536   1.109  -0.818  0.00  0.00    -0.238 NA
ATOM     19  C   UNL     1       3.720   0.535   0.052  0.00  0.00    +0.143 A 
ATOM     20 BR   UNL     1       3.779   5.115  -0.495  0.00  0.00    -0.049 Br
BRANCH  19  21
ATOM     21  N   UNL     1       3.730  -0.848   0.197  0.00  0.00    -0.342 N 
ATOM     22  H   UNL     1       3.190  -1.268   0.884  0.00  0.00    +0.144 HD
ATOM     23  H   UNL     1       4.277  -1.393  -0.391  0.00  0.00    +0.144 HD
ENDBRANCH  19  21
ENDBRANCH   1  14
TORSDOF 3
