REMARK  Name = ZINC09764728
REMARK  12 active torsions:
REMARK  status: ('A' for Active; 'I' for Inactive)
REMARK    1  A    between atoms: C_1  and  C_2
REMARK    2  A    between atoms: C_4  and  C_35
REMARK    3  A    between atoms: N_10  and  C_11
REMARK    4  A    between atoms: C_11  and  C_13
REMARK    5  A    between atoms: C_16  and  S_19
REMARK    6  A    between atoms: S_19  and  N_22
REMARK    7  A    between atoms: N_22  and  C_23
REMARK    8  A    between atoms: N_22  and  C_24
REMARK    9  A    between atoms: N_30  and  C_31
REMARK   10  A    between atoms: C_31  and  C_32
REMARK   11  A    between atoms: C_32  and  O_33
REMARK   12  A    between atoms: O_33  and  C_34
REMARK                            x       y       z     vdW  Elec       q    Type
REMARK                         _______ _______ _______ _____ _____    ______ ____
ROOT
ATOM      1  C   UNL     1       0.870  -5.689   3.024  0.00  0.00    +0.269 C 
ATOM      2  O   UNL     1       0.921  -4.715   3.754  0.00  0.00    -0.268 OA
ENDROOT
BRANCH   1  12
ATOM      3  C   UNL     1       0.753   1.652  -1.033  0.00  0.00    +0.044 C 
ATOM      4  C   UNL     1       0.743   0.157  -0.838  0.00  0.00    -0.049 A 
ATOM      5  C   UNL     1       0.675  -0.690  -1.932  0.00  0.00    +0.008 A 
ATOM      6  C   UNL     1       0.666  -2.056  -1.774  0.00  0.00    -0.026 A 
ATOM      7  C   UNL     1       0.725  -2.628  -0.496  0.00  0.00    +0.061 A 
ATOM      8  C   UNL     1       0.792  -1.748   0.594  0.00  0.00    +0.039 A 
ATOM      9  C   UNL     1       0.807  -0.382   0.435  0.00  0.00    +0.020 A 
ATOM     10  S   UNL     1       0.851  -2.838   1.991  0.00  0.00    -0.052 S 
ATOM     11  C   UNL     1       0.790  -4.307   1.177  0.00  0.00    +0.167 A 
ATOM     12  N   UNL     1       0.802  -5.529   1.698  0.00  0.00    -0.152 NA
ATOM     13  N   UNL     1       0.726  -3.962  -0.136  0.00  0.00    -0.319 N 
ATOM     14  C   UNL     1       0.591  -2.947  -2.988  0.00  0.00    +0.046 C 
BRANCH  13  15
ATOM     15  C   UNL     1       0.659  -5.002  -1.166  0.00  0.00    +0.152 C 
BRANCH  15  16
ATOM     16  C   UNL     1      -0.797  -5.424  -1.370  0.00  0.00    +0.181 C 
BRANCH  16  17
ATOM     17  O   UNL     1      -1.565  -4.296  -1.797  0.00  0.00    -0.381 OA
ATOM     18  C   UNL     1      -2.947  -4.583  -2.018  0.00  0.00    +0.194 C 
ENDBRANCH  16  17
ENDBRANCH  15  16
ENDBRANCH  13  15
ENDBRANCH   1  12
BRANCH   1  19
ATOM     19  C   UNL     1       0.884  -7.051   3.606  0.00  0.00    +0.039 A 
ATOM     20  C   UNL     1       0.831  -8.169   2.773  0.00  0.00    +0.015 A 
ATOM     21  C   UNL     1       0.844  -9.435   3.321  0.00  0.00    +0.029 A 
ATOM     22  C   UNL     1       0.908  -9.598   4.693  0.00  0.00    +0.106 A 
ATOM     23  C   UNL     1       0.960  -8.493   5.524  0.00  0.00    +0.029 A 
ATOM     24  C   UNL     1       0.955  -7.222   4.988  0.00  0.00    +0.015 A 
BRANCH  22  25
ATOM     25  S   UNL     1       0.923 -11.218   5.385  0.00  0.00    +0.061 S 
ATOM     26  O   UNL     1       0.437 -11.097   6.715  0.00  0.00    -0.153 OA
ATOM     27  O   UNL     1       0.317 -12.075   4.427  0.00  0.00    -0.153 OA
BRANCH  25  28
ATOM     28  N   UNL     1       2.508 -11.686   5.501  0.00  0.00    -0.177 NA
ATOM     29  C   UNL     1       3.270 -11.395   6.718  0.00  0.00    +0.132 C 
BRANCH  28  30
ATOM     30  C   UNL     1       3.147 -12.391   4.388  0.00  0.00    +0.080 C 
ATOM     31  C   UNL     1       3.626 -13.765   4.861  0.00  0.00    +0.020 C 
ATOM     32  C   UNL     1       4.294 -14.501   3.698  0.00  0.00    +0.002 C 
ATOM     33  C   UNL     1       5.490 -13.688   3.199  0.00  0.00    +0.000 C 
ATOM     34  C   UNL     1       5.011 -12.314   2.725  0.00  0.00    +0.002 C 
ATOM     35  C   UNL     1       4.343 -11.578   3.889  0.00  0.00    +0.020 C 
ENDBRANCH  28  30
ENDBRANCH  25  28
ENDBRANCH  22  25
ENDBRANCH   1  19
TORSDOF 8
