REMARK  Name = ZINC63829807
REMARK  6 active torsions:
REMARK  status: ('A' for Active; 'I' for Inactive)
REMARK    1  A    between atoms: C_7  and  C_10
REMARK    2  A    between atoms: C_10  and  C_12
REMARK    3  A    between atoms: C_10  and  C_27
REMARK    4  A    between atoms: C_12  and  N_13
REMARK    5  A    between atoms: N_13  and  S_14
REMARK    6  A    between atoms: S_14  and  C_17
REMARK                            x       y       z     vdW  Elec       q    Type
REMARK                         _______ _______ _______ _____ _____    ______ ____
ROOT
ATOM      1  C   UNL     1       0.822  -3.117  -0.033  0.00  0.00    +0.046 C 
ENDROOT
BRANCH   1   8
ATOM      2  C   UNL     1      -0.461   1.287   0.089  0.00  0.00    +0.001 A 
ATOM      3  C   UNL     1       0.615   2.186   0.080  0.00  0.00    +0.002 A 
ATOM      4  C   UNL     1       1.902   1.783   0.040  0.00  0.00    +0.026 A 
ATOM      5  C   UNL     1       2.220   0.397   0.004  0.00  0.00    +0.043 A 
ATOM      6  N   UNL     1       3.369  -0.234  -0.039  0.00  0.00    -0.380 N 
ATOM      7  C   UNL     1       3.108  -1.678  -0.062  0.00  0.00    +0.145 C 
ATOM      8  C   UNL     1       1.604  -1.829  -0.026  0.00  0.00    -0.036 C 
ATOM      9  C   UNL     1       1.102  -0.573   0.013  0.00  0.00    -0.001 A 
ATOM     10  C   UNL     1      -0.269  -0.051   0.058  0.00  0.00    +0.010 A 
ATOM     11  H   UNL     1       4.244   0.183  -0.053  0.00  0.00    +0.160 HD
ENDBRANCH   1   8
BRANCH   1  12
ATOM     12  C   UNL     1       1.205  -3.953   1.190  0.00  0.00    +0.063 C 
ATOM     13  C   UNL     1       0.783  -3.256   2.510  0.00  0.00    +0.042 C 
ATOM     14  C   UNL     1       0.276  -4.256   3.498  0.00  0.00    -0.019 C 
ATOM     15  C   UNL     1      -0.101  -5.452   3.087  0.00  0.00    +0.036 C 
ATOM     16  S   UNL     1       0.168  -5.470   1.323  0.00  0.00    -0.129 S 
ENDBRANCH   1  12
BRANCH   1  17
ATOM     17  C   UNL     1       1.142  -3.901  -1.308  0.00  0.00    +0.115 C 
BRANCH  17  18
ATOM     18  N   UNL     1       0.663  -3.154  -2.474  0.00  0.00    -0.189 NA
ATOM     19  H   UNL     1       0.029  -2.429  -2.358  0.00  0.00    +0.148 HD
BRANCH  18  20
ATOM     20  S   UNL     1       1.205  -3.547  -3.988  0.00  0.00    +0.059 S 
ATOM     21  O   UNL     1       0.546  -2.673  -4.895  0.00  0.00    -0.153 OA
ATOM     22  O   UNL     1       2.621  -3.632  -3.904  0.00  0.00    -0.153 OA
BRANCH  20  23
ATOM     23  C   UNL     1       0.623  -5.172  -4.344  0.00  0.00    +0.109 A 
ATOM     24  C   UNL     1       1.391  -6.270  -4.001  0.00  0.00    +0.032 A 
ATOM     25  C   UNL     1       0.938  -7.545  -4.280  0.00  0.00    +0.051 A 
ATOM     26  C   UNL     1      -0.287  -7.728  -4.902  0.00  0.00    +0.162 A 
ATOM     27  C   UNL     1      -1.060  -6.625  -5.244  0.00  0.00    +0.164 A 
ATOM     28  C   UNL     1      -0.602  -5.347  -4.959  0.00  0.00    +0.078 A 
ATOM     29  O   UNL     1      -2.269  -6.781  -5.849  0.00  0.00    -0.485 OA
ATOM     30  C   UNL     1      -2.529  -8.055  -6.449  0.00  0.00    +0.270 C 
ATOM     31  C   UNL     1      -2.113  -9.148  -5.455  0.00  0.00    +0.270 C 
ATOM     32  O   UNL     1      -0.718  -8.990  -5.173  0.00  0.00    -0.485 OA
ENDBRANCH  20  23
ENDBRANCH  18  20
ENDBRANCH  17  18
ENDBRANCH   1  17
TORSDOF 6
