REMARK  Name = ZINC08789687
REMARK  7 active torsions:
REMARK  status: ('A' for Active; 'I' for Inactive)
REMARK    1  A    between atoms: C_1  and  C_2
REMARK    2  A    between atoms: C_2  and  C_3
REMARK    3  A    between atoms: C_6  and  C_9
REMARK    4  A    between atoms: N_16  and  C_31
REMARK    5  A    between atoms: C_19  and  C_30
REMARK    6  A    between atoms: C_31  and  C_32
REMARK    7  A    between atoms: C_32  and  C_33
REMARK                            x       y       z     vdW  Elec       q    Type
REMARK                         _______ _______ _______ _____ _____    ______ ____
ROOT
ATOM      1  C   UNL     1       4.344  -1.756  -0.043  0.00  0.00    +0.069 C 
ATOM      2  C   UNL     1       5.807  -1.683  -0.498  0.00  0.00    +0.122 C 
ATOM      3  N   UNL     1       6.467  -0.568   0.207  0.00  0.00    -0.280 N 
ATOM      4  C   UNL     1       7.464  -0.830   1.057  0.00  0.00    +0.234 C 
ATOM      5  O   UNL     1       7.881  -1.968   1.108  0.00  0.00    -0.274 OA
ATOM      6  C   UNL     1       8.097   0.188   1.948  0.00  0.00    +0.203 C 
ATOM      7  N   UNL     1       7.469   1.493   1.824  0.00  0.00    -0.290 N 
ATOM      8  C   UNL     1       6.523   1.775   0.929  0.00  0.00    +0.245 C 
ATOM      9  O   UNL     1       6.064   2.898   0.917  0.00  0.00    -0.273 OA
ATOM     10  C   UNL     1       5.994   0.790  -0.061  0.00  0.00    +0.151 C 
ATOM     11  C   UNL     1       4.484   0.773  -0.038  0.00  0.00    +0.054 A 
ATOM     12  C   UNL     1       3.759  -0.368  -0.036  0.00  0.00    -0.008 A 
ATOM     13  C   UNL     1       2.363   0.020  -0.021  0.00  0.00    +0.004 A 
ATOM     14  C   UNL     1       1.175  -0.718  -0.013  0.00  0.00    +0.010 A 
ATOM     15  C   UNL     1       0.002  -0.004   0.002  0.00  0.00    +0.001 A 
ATOM     16  C   UNL     1      -0.017   1.381   0.010  0.00  0.00    +0.002 A 
ATOM     17  C   UNL     1       1.143   2.136   0.003  0.00  0.00    +0.026 A 
ATOM     18  C   UNL     1       2.350   1.438  -0.013  0.00  0.00    +0.047 A 
ATOM     19  N   UNL     1       3.649   1.857  -0.022  0.00  0.00    -0.356 N 
ATOM     20  H   UNL     1       3.937   2.783  -0.018  0.00  0.00    +0.166 HD
ATOM     21  C   UNL     1       6.463   1.211  -1.455  0.00  0.00    +0.048 C 
ENDROOT
BRANCH   1  25
ATOM     22  C   UNL     1       4.155  -3.406   3.893  0.00  0.00    -0.048 A 
ATOM     23  C   UNL     1       3.506  -4.036   2.847  0.00  0.00    +0.004 A 
ATOM     24  C   UNL     1       3.567  -3.502   1.574  0.00  0.00    +0.004 A 
ATOM     25  C   UNL     1       4.277  -2.338   1.345  0.00  0.00    -0.038 A 
ATOM     26  C   UNL     1       4.931  -1.712   2.390  0.00  0.00    +0.004 A 
ATOM     27  C   UNL     1       4.865  -2.242   3.664  0.00  0.00    +0.004 A 
BRANCH  22  29
ATOM     28  C   UNL     1       5.252  -4.962   5.482  0.00  0.00    +0.009 C 
ATOM     29  C   UNL     1       4.089  -3.988   5.281  0.00  0.00    +0.032 C 
ENDBRANCH  22  29
ENDBRANCH   1  25
BRANCH   7  30
ATOM     30  C   UNL     1       7.901   2.558   2.733  0.00  0.00    +0.113 C 
BRANCH  30  31
ATOM     31  C   UNL     1       9.064   3.326   2.103  0.00  0.00    +0.054 C 
BRANCH  31  32
ATOM     32  C   UNL     1       9.508   4.421   3.038  0.00  0.00    -0.046 A 
ATOM     33  C   UNL     1       8.940   5.678   2.949  0.00  0.00    +0.005 A 
ATOM     34  C   UNL     1       9.342   6.681   3.810  0.00  0.00    +0.020 A 
ATOM     35  C   UNL     1      10.322   6.431   4.754  0.00  0.00    +0.041 A 
ATOM     36  C   UNL     1      10.895   5.174   4.839  0.00  0.00    +0.020 A 
ATOM     37  C   UNL     1      10.487   4.170   3.981  0.00  0.00    +0.005 A 
ATOM     38 CL   UNL     1      10.834   7.693   5.831  0.00  0.00    -0.084 Cl
ENDBRANCH  31  32
ENDBRANCH  30  31
ENDBRANCH   7  30
TORSDOF 5
