REMARK  Name = ZINC59000520
REMARK  11 active torsions:
REMARK  status: ('A' for Active; 'I' for Inactive)
REMARK    1  A    between atoms: C_1  and  C_2
REMARK    2  A    between atoms: C_3  and  C_31
REMARK    3  A    between atoms: C_4  and  C_30
REMARK    4  A    between atoms: C_7  and  C_8
REMARK    5  A    between atoms: N_10  and  C_11
REMARK    6  A    between atoms: C_11  and  C_13
REMARK    7  A    between atoms: C_11  and  C_14
REMARK    8  A    between atoms: C_17  and  N_20
REMARK    9  A    between atoms: N_23  and  C_24
REMARK   10  A    between atoms: C_31  and  O_33
REMARK   11  A    between atoms: O_33  and  C_34
REMARK                            x       y       z     vdW  Elec       q    Type
REMARK                         _______ _______ _______ _____ _____    ______ ____
ROOT
ATOM      1  C   UNL     1      -0.694  -1.131   5.142  0.00  0.00    +0.100 C 
ATOM      2  C   UNL     1      -1.984  -0.784   5.889  0.00  0.00    +0.033 C 
ENDROOT
BRANCH   1   3
ATOM      3  C   UNL     1       0.091  -2.142   5.938  0.00  0.00    -0.027 A 
ATOM      4  C   UNL     1      -0.254  -3.480   5.885  0.00  0.00    +0.007 A 
ATOM      5  C   UNL     1       0.464  -4.408   6.613  0.00  0.00    +0.023 A 
ATOM      6  C   UNL     1       1.532  -3.997   7.400  0.00  0.00    +0.035 A 
ATOM      7  C   UNL     1       1.875  -2.653   7.451  0.00  0.00    +0.023 A 
ATOM      8  C   UNL     1       1.157  -1.730   6.716  0.00  0.00    +0.007 A 
BRANCH   6   9
ATOM      9  N   UNL     1       2.260  -4.936   8.139  0.00  0.00    -0.269 N 
ATOM     10  C   UNL     1       2.432  -6.184   7.661  0.00  0.00    +0.308 C 
ATOM     11  O   UNL     1       2.036  -6.468   6.547  0.00  0.00    -0.252 OA
ATOM     12  N   UNL     1       3.043  -7.117   8.417  0.00  0.00    -0.269 N 
ATOM     13  H   UNL     1       2.642  -4.688   8.996  0.00  0.00    +0.156 HD
ATOM     14  H   UNL     1       3.291  -6.913   9.332  0.00  0.00    +0.156 HD
BRANCH  12  15
ATOM     15  C   UNL     1       3.319  -8.381   7.883  0.00  0.00    +0.035 A 
ATOM     16  C   UNL     1       3.630  -8.513   6.536  0.00  0.00    +0.023 A 
ATOM     17  C   UNL     1       3.901  -9.762   6.011  0.00  0.00    +0.002 A 
ATOM     18  C   UNL     1       3.864 -10.879   6.825  0.00  0.00    +0.000 A 
ATOM     19  C   UNL     1       3.554 -10.750   8.167  0.00  0.00    +0.002 A 
ATOM     20  C   UNL     1       3.288  -9.504   8.699  0.00  0.00    +0.023 A 
ENDBRANCH  12  15
ENDBRANCH   6   9
ENDBRANCH   1   3
BRANCH   1  23
ATOM     21  C   UNL     1      -1.258  -0.874   2.786  0.00  0.00    +0.261 C 
ATOM     22  O   UNL     1      -1.192   0.332   2.932  0.00  0.00    -0.269 OA
ATOM     23  N   UNL     1      -1.026  -1.693   3.831  0.00  0.00    -0.304 N 
ATOM     24  H   UNL     1      -1.078  -2.655   3.714  0.00  0.00    +0.150 HD
BRANCH  21  31
ATOM     25  C   UNL     1      -1.841   0.777   0.204  0.00  0.00    +0.047 C 
ATOM     26  C   UNL     1      -1.846  -0.724   0.338  0.00  0.00    -0.006 A 
ATOM     27  C   UNL     1      -2.111  -1.659  -0.688  0.00  0.00    +0.083 A 
ATOM     28  C   UNL     1      -2.009  -2.918  -0.126  0.00  0.00    +0.028 A 
ATOM     29  N   UNL     1      -1.699  -2.778   1.172  0.00  0.00    -0.354 N 
ATOM     30  H   UNL     1      -1.569  -3.506   1.800  0.00  0.00    +0.166 HD
ATOM     31  C   UNL     1      -1.590  -1.438   1.471  0.00  0.00    +0.106 A 
ATOM     32  C   UNL     1      -2.212  -4.225  -0.848  0.00  0.00    +0.064 C 
BRANCH  27  33
ATOM     33  C   UNL     1      -2.435  -1.350  -2.091  0.00  0.00    +0.341 C 
ATOM     34  O   UNL     1      -1.545  -1.247  -2.912  0.00  0.00    -0.245 OA
BRANCH  33  35
ATOM     35  O   UNL     1      -3.719  -1.181  -2.465  0.00  0.00    -0.464 OA
ATOM     36  C   UNL     1      -3.961  -0.884  -3.841  0.00  0.00    +0.280 C 
ENDBRANCH  33  35
ENDBRANCH  27  33
ENDBRANCH  21  31
ENDBRANCH   1  23
TORSDOF 7
