REMARK  Name = ZINC36626402
REMARK  7 active torsions:
REMARK  status: ('A' for Active; 'I' for Inactive)
REMARK    1  A    between atoms: C_1  and  C_2
REMARK    2  A    between atoms: C_5  and  C_8
REMARK    3  A    between atoms: N_6  and  C_7
REMARK    4  A    between atoms: C_8  and  N_9
REMARK    5  A    between atoms: C_10  and  C_12
REMARK    6  A    between atoms: C_15  and  C_23
REMARK    7  A    between atoms: C_17  and  C_22
REMARK                            x       y       z     vdW  Elec       q    Type
REMARK                         _______ _______ _______ _____ _____    ______ ____
ROOT
ATOM      1  N   UNL     1       1.435  -3.620   1.975  0.00  0.00    -0.305 N 
ATOM      2  C   UNL     1       1.697  -4.667   2.782  0.00  0.00    +0.261 C 
ATOM      3  O   UNL     1       0.787  -5.362   3.192  0.00  0.00    -0.269 OA
ATOM      4  H   UNL     1       2.161  -3.066   1.647  0.00  0.00    +0.149 HD
ENDROOT
BRANCH   2   5
ATOM      5  C   UNL     1       3.084  -4.970   3.166  0.00  0.00    +0.103 A 
ATOM      6  C   UNL     1       3.474  -5.997   3.966  0.00  0.00    +0.041 A 
ATOM      7  C   UNL     1       4.883  -5.938   4.087  0.00  0.00    +0.003 A 
ATOM      8  C   UNL     1       5.823  -6.720   4.771  0.00  0.00    -0.041 A 
ATOM      9  C   UNL     1       7.149  -6.406   4.697  0.00  0.00    +0.007 A 
ATOM     10  C   UNL     1       7.578  -5.317   3.948  0.00  0.00    -0.048 A 
ATOM     11  C   UNL     1       6.673  -4.534   3.267  0.00  0.00    +0.029 A 
ATOM     12  C   UNL     1       5.315  -4.834   3.327  0.00  0.00    +0.048 A 
ATOM     13  N   UNL     1       4.199  -4.259   2.766  0.00  0.00    -0.351 N 
ATOM     14  H   UNL     1       4.195  -3.481   2.188  0.00  0.00    +0.166 HD
ATOM     15  C   UNL     1       9.047  -4.990   3.880  0.00  0.00    +0.044 C 
ATOM     16  C   UNL     1       5.371  -7.903   5.588  0.00  0.00    +0.044 C 
ENDBRANCH   2   5
BRANCH   1  17
ATOM     17  C   UNL     1       0.053  -3.319   1.592  0.00  0.00    +0.158 C 
BRANCH  17  22
ATOM     18  C   UNL     1      -0.018   1.503   0.010  0.00  0.00    +0.063 C 
ATOM     19  C   UNL     1       0.002  -0.004   0.002  0.00  0.00    +0.016 A 
ATOM     20  C   UNL     1       0.008  -0.789  -1.095  0.00  0.00    +0.023 A 
ATOM     21  C   UNL     1       0.028  -2.127  -0.656  0.00  0.00    +0.024 A 
ATOM     22  C   UNL     1       0.034  -2.110   0.693  0.00  0.00    +0.036 A 
ATOM     23  N   UNL     1       0.024  -0.809   1.102  0.00  0.00    -0.350 N 
ATOM     24  C   UNL     1       0.030  -0.352   2.494  0.00  0.00    +0.149 C 
ENDBRANCH  17  22
ENDBRANCH   1  17
TORSDOF 3
