REMARK  Name = ZINC36346770
REMARK  18 active torsions:
REMARK  status: ('A' for Active; 'I' for Inactive)
REMARK    1  A    between atoms: C_1  and  C_2
REMARK    2  A    between atoms: C_2  and  C_3
REMARK    3  A    between atoms: C_3  and  C_4
REMARK    4  A    between atoms: C_4  and  O_5
REMARK    5  A    between atoms: O_5  and  C_6
REMARK    6  A    between atoms: C_6  and  C_7
REMARK    7  A    between atoms: C_7  and  C_9
REMARK    8  A    between atoms: C_7  and  O_36
REMARK    9  A    between atoms: C_9  and  N_10
REMARK   10  A    between atoms: N_10  and  C_11
REMARK   11  A    between atoms: N_10  and  C_14
REMARK   12  A    between atoms: C_11  and  C_12
REMARK   13  A    between atoms: C_12  and  C_13
REMARK   14  A    between atoms: C_14  and  C_15
REMARK   15  A    between atoms: C_16  and  C_35
REMARK   16  A    between atoms: N_18  and  C_28
REMARK   17  A    between atoms: C_19  and  O_20
REMARK   18  A    between atoms: O_20  and  C_21
REMARK                            x       y       z     vdW  Elec       q    Type
REMARK                         _______ _______ _______ _____ _____    ______ ____
ROOT
ATOM      1  C   UNL     1       4.888  -7.910   4.138  0.00  0.00    +0.021 A 
ATOM      2  C   UNL     1       4.202  -8.268   2.974  0.00  0.00    +0.065 A 
ATOM      3  N   UNL     1       5.043  -8.240   1.971  0.00  0.00    -0.168 NA
ATOM      4  N   UNL     1       6.300  -7.861   2.460  0.00  0.00    -0.200 N 
ATOM      5  C   UNL     1       6.181  -7.657   3.799  0.00  0.00    +0.225 A 
ATOM      6  C   UNL     1       2.741  -8.627   2.887  0.00  0.00    +0.068 C 
ENDROOT
BRANCH   4   7
ATOM      7  C   UNL     1       7.471  -7.714   1.703  0.00  0.00    +0.069 A 
ATOM      8  C   UNL     1       8.343  -6.666   1.968  0.00  0.00    +0.031 A 
ATOM      9  C   UNL     1       9.495  -6.522   1.221  0.00  0.00    +0.040 A 
ATOM     10  C   UNL     1       9.782  -7.422   0.208  0.00  0.00    +0.124 A 
ATOM     11  C   UNL     1       8.914  -8.468  -0.058  0.00  0.00    +0.040 A 
ATOM     12  C   UNL     1       7.763  -8.618   0.691  0.00  0.00    +0.031 A 
ATOM     13  F   UNL     1      10.909  -7.279  -0.522  0.00  0.00    -0.205 F 
ENDBRANCH   4   7
BRANCH   1  14
ATOM     14  C   UNL     1       4.299  -7.815   5.521  0.00  0.00    -0.036 C 
BRANCH  14  15
ATOM     15  N   UNL     1       3.954  -6.417   5.812  0.00  0.00    +0.384 N 
ATOM     16  H   UNL     1       4.763  -5.833   5.662  0.00  0.00    -0.081 HD
BRANCH  15  17
ATOM     17  C   UNL     1       2.868  -5.986   4.922  0.00  0.00    -0.044 C 
BRANCH  17  18
ATOM     18  C   UNL     1       2.625  -4.486   5.103  0.00  0.00    +0.124 C 
BRANCH  18  19
ATOM     19  O   UNL     1       2.100  -4.242   6.410  0.00  0.00    -0.391 OA
ATOM     20  H   UNL     1       1.261  -4.690   6.586  0.00  0.00    +0.210 HD
ENDBRANCH  18  19
BRANCH  18  21
ATOM     21  C   UNL     1       1.625  -4.000   4.052  0.00  0.00    +0.189 C 
BRANCH  21  22
ATOM     22  O   UNL     1       1.487  -2.581   4.146  0.00  0.00    -0.377 OA
BRANCH  22  23
ATOM     23  C   UNL     1       0.570  -2.023   3.203  0.00  0.00    +0.160 C 
BRANCH  23  24
ATOM     24  C   UNL     1       0.502  -0.506   3.394  0.00  0.00    +0.028 C 
BRANCH  24  26
ATOM     25  C   UNL     1      -0.547   1.608   2.575  0.00  0.00    +0.004 C 
ATOM     26  C   UNL     1      -0.480   0.092   2.384  0.00  0.00    -0.001 C 
ENDBRANCH  24  26
ENDBRANCH  23  24
ENDBRANCH  22  23
ENDBRANCH  21  22
ENDBRANCH  18  21
ENDBRANCH  17  18
ENDBRANCH  15  17
BRANCH  15  27
ATOM     27  C   UNL     1       3.517  -6.301   7.210  0.00  0.00    -0.079 C 
BRANCH  27  28
ATOM     28  C   UNL     1       2.208  -7.069   7.401  0.00  0.00    -0.022 C 
ATOM     29  C   UNL     1       1.735  -6.918   8.848  0.00  0.00    +0.002 C 
ENDBRANCH  27  28
ENDBRANCH  15  27
ENDBRANCH  14  15
ENDBRANCH   1  14
BRANCH   5  30
ATOM     30  O   UNL     1       7.171  -7.274   4.644  0.00  0.00    -0.438 OA
BRANCH  30  31
ATOM     31  C   UNL     1       7.965  -8.240   5.178  0.00  0.00    +0.131 A 
ATOM     32  C   UNL     1       7.824  -9.558   4.769  0.00  0.00    +0.049 A 
ATOM     33  C   UNL     1       8.630 -10.540   5.312  0.00  0.00    +0.042 A 
ATOM     34  C   UNL     1       9.579 -10.208   6.264  0.00  0.00    +0.124 A 
ATOM     35  C   UNL     1       9.720  -8.893   6.674  0.00  0.00    +0.042 A 
ATOM     36  C   UNL     1       8.919  -7.909   6.128  0.00  0.00    +0.049 A 
ATOM     37  F   UNL     1      10.367 -11.169   6.795  0.00  0.00    -0.205 F 
ENDBRANCH  30  31
ENDBRANCH   5  30
TORSDOF 15
