REMARK  Name = ZINC12982892
REMARK  8 active torsions:
REMARK  status: ('A' for Active; 'I' for Inactive)
REMARK    1  A    between atoms: C_1  and  N_48
REMARK    2  A    between atoms: C_2  and  C_3
REMARK    3  A    between atoms: C_2  and  N_48
REMARK    4  A    between atoms: C_5  and  N_13
REMARK    5  A    between atoms: C_16  and  C_17
REMARK    6  A    between atoms: C_16  and  N_48
REMARK    7  A    between atoms: N_19  and  C_20
REMARK    8  A    between atoms: C_25  and  C_26
REMARK                            x       y       z     vdW  Elec       q    Type
REMARK                         _______ _______ _______ _____ _____    ______ ____
ROOT
ATOM      1  C   UNL     1      -6.106  -1.725   0.983  0.00  0.00    -0.095 C 
ATOM      2  N   UNL     1      -5.974  -0.970  -0.281  0.00  0.00    +0.386 N 
ATOM      3  H   UNL     1      -5.755  -1.626  -1.040  0.00  0.00    -0.081 HD
ENDROOT
BRANCH   2   4
ATOM      4  C   UNL     1      -7.244  -0.280  -0.593  0.00  0.00    -0.039 C 
BRANCH   4   5
ATOM      5  C   UNL     1      -8.290  -1.314  -0.919  0.00  0.00    -0.020 A 
ATOM      6  C   UNL     1      -8.591  -1.601  -2.236  0.00  0.00    +0.038 A 
ATOM      7  C   UNL     1      -9.551  -2.549  -2.536  0.00  0.00    +0.127 A 
ATOM      8  C   UNL     1     -10.214  -3.211  -1.519  0.00  0.00    +0.042 A 
ATOM      9  C   UNL     1      -9.917  -2.927  -0.199  0.00  0.00    +0.022 A 
ATOM     10  C   UNL     1      -8.949  -1.982   0.104  0.00  0.00    +0.130 A 
ATOM     11  O   UNL     1      -8.645  -1.695   1.398  0.00  0.00    -0.466 OA
ATOM     12  C   UNL     1      -9.582  -2.120   2.393  0.00  0.00    +0.394 C 
ATOM     13  O   UNL     1      -9.937  -3.483   2.133  0.00  0.00    -0.339 OA
ATOM     14  C   UNL     1     -10.649  -3.651   0.903  0.00  0.00    +0.202 C 
BRANCH   7  15
ATOM     15  N   UNL     1      -9.871  -2.856  -3.948  0.00  0.00    +0.056 N 
ATOM     16  O   UNL     1      -9.288  -2.274  -4.845  0.00  0.00    -0.126 OA
ATOM     17  O   UNL     1     -10.717  -3.691  -4.213  0.00  0.00    -0.126 OA
ENDBRANCH   7  15
ENDBRANCH   4   5
ENDBRANCH   2   4
BRANCH   2  18
ATOM     18  C   UNL     1      -4.878   0.016  -0.168  0.00  0.00    +0.019 C 
BRANCH  18  19
ATOM     19  C   UNL     1      -3.568  -0.722  -0.070  0.00  0.00    +0.201 C 
ATOM     20  O   UNL     1      -3.554  -1.935  -0.076  0.00  0.00    -0.278 OA
ATOM     21  N   UNL     1      -2.413  -0.035   0.024  0.00  0.00    -0.287 N 
ATOM     22  H   UNL     1      -2.429   0.931   0.110  0.00  0.00    +0.155 HD
BRANCH  21  23
ATOM     23  C   UNL     1      -1.190  -0.714  -0.002  0.00  0.00    +0.045 A 
ATOM     24  C   UNL     1      -1.097  -1.956  -0.617  0.00  0.00    +0.024 A 
ATOM     25  C   UNL     1       0.111  -2.624  -0.641  0.00  0.00    +0.002 A 
ATOM     26  C   UNL     1       1.228  -2.058  -0.054  0.00  0.00    +0.001 A 
ATOM     27  C   UNL     1       1.140  -0.820   0.555  0.00  0.00    +0.014 A 
ATOM     28  C   UNL     1      -0.067  -0.149   0.588  0.00  0.00    +0.076 A 
BRANCH  28  29
ATOM     29  C   UNL     1      -0.163   1.198   1.256  0.00  0.00    +0.419 C 
ATOM     30  F   UNL     1       1.088   1.554   1.771  0.00  0.00    -0.166 F 
ATOM     31  F   UNL     1      -0.572   2.155   0.321  0.00  0.00    -0.166 F 
ATOM     32  F   UNL     1      -1.096   1.136   2.298  0.00  0.00    -0.166 F 
ENDBRANCH  28  29
ENDBRANCH  21  23
ENDBRANCH  18  19
ENDBRANCH   2  18
TORSDOF 7
