REMARK  Name = ZINC09092492
REMARK  10 active torsions:
REMARK  status: ('A' for Active; 'I' for Inactive)
REMARK    1  A    between atoms: C_1  and  C_2
REMARK    2  A    between atoms: C_2  and  O_3
REMARK    3  A    between atoms: O_3  and  C_4
REMARK    4  A    between atoms: C_7  and  N_13
REMARK    5  A    between atoms: C_8  and  N_10
REMARK    6  A    between atoms: C_14  and  C_16
REMARK    7  A    between atoms: C_16  and  S_17
REMARK    8  A    between atoms: S_17  and  C_18
REMARK    9  A    between atoms: C_21  and  C_24
REMARK   10  A    between atoms: N_22  and  N_23
REMARK                            x       y       z     vdW  Elec       q    Type
REMARK                         _______ _______ _______ _____ _____    ______ ____
ROOT
ATOM      1  C   UNL     1       7.282   4.040  -0.043  0.00  0.00    +0.173 C 
ENDROOT
BRANCH   1   3
ATOM      2  N   UNL     1       4.809   4.092  -0.023  0.00  0.00    -0.283 N 
ATOM      3  C   UNL     1       5.938   3.365  -0.138  0.00  0.00    +0.228 C 
ATOM      4  O   UNL     1       5.873   2.167  -0.317  0.00  0.00    -0.275 OA
ATOM      5  H   UNL     1       4.859   5.059   0.041  0.00  0.00    +0.155 HD
BRANCH   2   9
ATOM      6  C   UNL     1       1.101   2.186   0.052  0.00  0.00    +0.123 A 
ATOM      7  C   UNL     1       2.203   1.584   0.644  0.00  0.00    +0.047 A 
ATOM      8  C   UNL     1       3.432   2.212   0.615  0.00  0.00    +0.029 A 
ATOM      9  C   UNL     1       3.563   3.451   0.002  0.00  0.00    +0.064 A 
ATOM     10  C   UNL     1       2.460   4.055  -0.585  0.00  0.00    +0.151 A 
ATOM     11  C   UNL     1       1.232   3.423  -0.560  0.00  0.00    +0.080 A 
BRANCH  10  12
ATOM     12  N   UNL     1       2.599   5.376  -1.239  0.00  0.00    +0.058 N 
ATOM     13  O   UNL     1       1.655   5.865  -1.833  0.00  0.00    -0.126 OA
ATOM     14  O   UNL     1       3.659   5.974  -1.184  0.00  0.00    -0.126 OA
ENDBRANCH  10  12
BRANCH   6  15
ATOM     15  O   UNL     1      -0.108   1.565   0.077  0.00  0.00    -0.492 OA
BRANCH  15  17
ATOM     16  C   UNL     1      -1.600  -0.247   0.653  0.00  0.00    +0.048 C 
ATOM     17  C   UNL     1      -0.170   0.292   0.725  0.00  0.00    +0.225 C 
ENDBRANCH  15  17
ENDBRANCH   6  15
ENDBRANCH   2   9
ENDBRANCH   1   3
BRANCH   1  18
ATOM     18  S   UNL     1       8.592   2.806  -0.234  0.00  0.00    -0.075 S 
BRANCH  18  19
ATOM     19  C   UNL     1      10.011   3.841  -0.086  0.00  0.00    +0.209 A 
ATOM     20  N   UNL     1      10.011   5.142   0.103  0.00  0.00    -0.121 NA
ATOM     21  N   UNL     1      11.218   5.578   0.168  0.00  0.00    -0.127 NA
ATOM     22  C   UNL     1      12.063   4.585   0.015  0.00  0.00    +0.183 A 
ATOM     23  N   UNL     1      11.316   3.442  -0.152  0.00  0.00    -0.224 N 
BRANCH  22  24
ATOM     24  C   UNL     1      13.538   4.677   0.022  0.00  0.00    +0.035 A 
ATOM     25  C   UNL     1      14.282   4.086  -1.001  0.00  0.00    +0.013 A 
ATOM     26  C   UNL     1      15.658   4.176  -0.989  0.00  0.00    +0.001 A 
ATOM     27  C   UNL     1      16.302   4.850   0.033  0.00  0.00    +0.001 A 
ATOM     28  C   UNL     1      15.572   5.439   1.050  0.00  0.00    +0.016 A 
ATOM     29  C   UNL     1      14.194   5.361   1.048  0.00  0.00    +0.029 A 
ATOM     30 BR   UNL     1      13.196   6.173   2.434  0.00  0.00    -0.050 Br
ENDBRANCH  22  24
BRANCH  23  31
ATOM     31  N   UNL     1      11.781   2.172  -0.345  0.00  0.00    -0.295 N 
ATOM     32  H   UNL     1      11.823   1.948  -1.328  0.00  0.00    +0.163 HD
ATOM     33  H   UNL     1      12.681   2.047   0.093  0.00  0.00    +0.163 HD
ENDBRANCH  23  31
ENDBRANCH  18  19
ENDBRANCH   1  18
TORSDOF 9
