REMARK  Name = ZINC25748077
REMARK  11 active torsions:
REMARK  status: ('A' for Active; 'I' for Inactive)
REMARK    1  A    between atoms: C_1  and  C_2
REMARK    2  A    between atoms: C_2  and  O_3
REMARK    3  A    between atoms: O_3  and  C_4
REMARK    4  A    between atoms: C_4  and  C_6
REMARK    5  A    between atoms: C_13  and  C_15
REMARK    6  A    between atoms: C_15  and  S_16
REMARK    7  A    between atoms: S_16  and  C_17
REMARK    8  A    between atoms: C_20  and  C_29
REMARK    9  A    between atoms: N_21  and  C_22
REMARK   10  A    between atoms: C_22  and  C_23
REMARK   11  A    between atoms: C_29  and  N_30
REMARK                            x       y       z     vdW  Elec       q    Type
REMARK                         _______ _______ _______ _____ _____    ______ ____
ROOT
ATOM      1  C   UNL     1      -0.760   0.343   0.108  0.00  0.00    +0.192 A 
ATOM      2  N   UNL     1       0.396  -0.280   0.111  0.00  0.00    -0.123 NA
ATOM      3  N   UNL     1       1.353   0.576   0.063  0.00  0.00    -0.135 NA
ATOM      4  C   UNL     1       0.870   1.786   0.028  0.00  0.00    +0.118 A 
ATOM      5  N   UNL     1      -0.493   1.681   0.055  0.00  0.00    -0.303 N 
ENDROOT
BRANCH   1   6
ATOM      6  S   UNL     1      -2.354  -0.406   0.163  0.00  0.00    -0.077 S 
BRANCH   6   7
ATOM      7  C   UNL     1      -1.879  -2.152   0.219  0.00  0.00    +0.173 C 
BRANCH   7  14
ATOM      8  C   UNL     1      -4.093  -6.141   1.572  0.00  0.00    +0.115 C 
ATOM      9  C   UNL     1      -2.777  -6.918   1.481  0.00  0.00    +0.018 C 
ATOM     10  C   UNL     1      -1.601  -5.939   1.522  0.00  0.00    +0.020 C 
ATOM     11  C   UNL     1      -1.688  -4.994   0.320  0.00  0.00    +0.108 C 
ATOM     12  N   UNL     1      -3.009  -4.350   0.318  0.00  0.00    -0.300 N 
ATOM     13  C   UNL     1      -4.207  -5.198   0.376  0.00  0.00    +0.122 C 
ATOM     14  C   UNL     1      -3.119  -3.008   0.271  0.00  0.00    +0.226 C 
ATOM     15  O   UNL     1      -4.215  -2.489   0.271  0.00  0.00    -0.275 OA
BRANCH   8  16
ATOM     16  C   UNL     1      -5.249  -7.108   1.564  0.00  0.00    +0.312 C 
ATOM     17  O   UNL     1      -5.042  -8.296   1.494  0.00  0.00    -0.250 OA
BRANCH  16  18
ATOM     18  O   UNL     1      -6.508  -6.649   1.636  0.00  0.00    -0.465 OA
BRANCH  18  20
ATOM     19  C   UNL     1      -8.926  -6.930   1.712  0.00  0.00    +0.048 C 
ATOM     20  C   UNL     1      -7.572  -7.637   1.624  0.00  0.00    +0.229 C 
ENDBRANCH  18  20
ENDBRANCH  16  18
ENDBRANCH   8  16
ENDBRANCH   7  14
ENDBRANCH   6   7
ENDBRANCH   1   6
BRANCH   5  21
ATOM     21  C   UNL     1      -1.465   2.776   0.026  0.00  0.00    +0.160 C 
BRANCH  21  22
ATOM     22  C   UNL     1      -1.874   3.122   1.435  0.00  0.00    -0.028 A 
ATOM     23  C   UNL     1      -3.005   2.549   1.987  0.00  0.00    +0.005 A 
ATOM     24  C   UNL     1      -3.376   2.863   3.281  0.00  0.00    +0.000 A 
ATOM     25  C   UNL     1      -2.624   3.757   4.019  0.00  0.00    +0.000 A 
ATOM     26  C   UNL     1      -1.497   4.334   3.465  0.00  0.00    +0.000 A 
ATOM     27  C   UNL     1      -1.121   4.016   2.173  0.00  0.00    +0.005 A 
ENDBRANCH  21  22
ENDBRANCH   5  21
BRANCH   4  28
ATOM     28  C   UNL     1       1.667   3.064  -0.034  0.00  0.00    -0.001 C 
BRANCH  28  29
ATOM     29  N   UNL     1       1.776   3.506  -1.430  0.00  0.00    +0.384 N 
ATOM     30  C   UNL     1       2.684   2.636  -2.188  0.00  0.00    -0.078 C 
ATOM     31  C   UNL     1       2.661   3.036  -3.666  0.00  0.00    -0.019 C 
ATOM     32  C   UNL     1       3.094   4.499  -3.800  0.00  0.00    -0.004 C 
ATOM     33  C   UNL     1       2.161   5.378  -2.962  0.00  0.00    -0.019 C 
ATOM     34  C   UNL     1       2.199   4.910  -1.506  0.00  0.00    -0.078 C 
ATOM     35  H   UNL     1       0.779   3.431  -1.889  0.00  0.00    -0.081 HD
ENDBRANCH  28  29
ENDBRANCH   4  28
TORSDOF 10
