REMARK  Name = ZINC08387252
REMARK  11 active torsions:
REMARK  status: ('A' for Active; 'I' for Inactive)
REMARK    1  A    between atoms: C_1  and  C_2
REMARK    2  A    between atoms: C_2  and  C_3
REMARK    3  A    between atoms: C_3  and  C_4
REMARK    4  A    between atoms: N_10  and  N_11
REMARK    5  A    between atoms: C_12  and  C_13
REMARK    6  A    between atoms: C_15  and  C_33
REMARK    7  A    between atoms: C_18  and  O_19
REMARK    8  A    between atoms: O_19  and  S_20
REMARK    9  A    between atoms: S_20  and  C_23
REMARK   10  A    between atoms: C_26  and  C_32
REMARK   11  A    between atoms: C_27  and  N_29
REMARK                            x       y       z     vdW  Elec       q    Type
REMARK                         _______ _______ _______ _____ _____    ______ ____
ROOT
ATOM      1  C   UNL     1       2.080   3.215   3.306  0.00  0.00    +0.040 A 
ATOM      2  C   UNL     1       3.045   3.162   4.317  0.00  0.00    +0.016 A 
ATOM      3  C   UNL     1       3.795   4.281   4.611  0.00  0.00    -0.050 A 
ATOM      4  C   UNL     1       3.601   5.456   3.905  0.00  0.00    +0.007 A 
ATOM      5  C   UNL     1       2.655   5.521   2.899  0.00  0.00    +0.049 A 
ATOM      6  C   UNL     1       1.892   4.407   2.590  0.00  0.00    +0.165 A 
ATOM      7  C   UNL     1       4.829   4.224   5.705  0.00  0.00    +0.044 C 
ENDROOT
BRANCH   1   9
ATOM      8  N   UNL     1       0.435   2.054   1.989  0.00  0.00    -0.155 NA
ATOM      9  C   UNL     1       1.272   2.028   2.991  0.00  0.00    +0.146 C 
BRANCH   8  15
ATOM     10  C   UNL     1      -2.882   0.588  -1.326  0.00  0.00    +0.140 C 
ATOM     11  C   UNL     1      -1.967   1.801  -1.364  0.00  0.00    +0.232 C 
ATOM     12  O   UNL     1      -1.990   2.598  -2.279  0.00  0.00    -0.274 OA
ATOM     13  N   UNL     1      -1.143   1.933  -0.339  0.00  0.00    -0.263 N 
ATOM     14  C   UNL     1      -1.112   1.030   0.703  0.00  0.00    +0.183 C 
ATOM     15  N   UNL     1      -0.345   1.050   1.773  0.00  0.00    -0.127 NA
ATOM     16  S   UNL     1      -2.352  -0.175   0.257  0.00  0.00    -0.076 S 
ATOM     17  H   UNL     1      -0.539   2.692  -0.319  0.00  0.00    +0.157 HD
BRANCH  10  18
ATOM     18  C   UNL     1      -4.354   1.006  -1.282  0.00  0.00    +0.024 C 
BRANCH  18  20
ATOM     19  C   UNL     1      -6.711   0.179  -1.326  0.00  0.00    +0.004 C 
ATOM     20  C   UNL     1      -5.240  -0.238  -1.370  0.00  0.00    -0.002 C 
ENDBRANCH  18  20
ENDBRANCH  10  18
ENDBRANCH   8  15
ENDBRANCH   1   9
BRANCH   6  21
ATOM     21  O   UNL     1       0.963   4.470   1.601  0.00  0.00    -0.342 OA
BRANCH  21  22
ATOM     22  S   UNL     1      -0.384   5.016   2.052  0.00  0.00    +0.151 S 
ATOM     23  O   UNL     1      -0.610   4.512   3.361  0.00  0.00    -0.131 OA
ATOM     24  O   UNL     1      -1.292   4.791   0.982  0.00  0.00    -0.131 OA
BRANCH  22  25
ATOM     25  C   UNL     1      -0.212   6.763   2.208  0.00  0.00    +0.130 A 
ATOM     26  C   UNL     1      -0.525   7.586   1.142  0.00  0.00    +0.031 A 
ATOM     27  C   UNL     1      -0.391   8.956   1.264  0.00  0.00    +0.007 A 
ATOM     28  C   UNL     1       0.056   9.503   2.452  0.00  0.00    -0.020 A 
ATOM     29  C   UNL     1       0.369   8.681   3.518  0.00  0.00    +0.131 A 
ATOM     30  C   UNL     1       0.234   7.310   3.396  0.00  0.00    +0.063 A 
ATOM     31  C   UNL     1       0.203  10.997   2.585  0.00  0.00    +0.046 C 
BRANCH  29  32
ATOM     32  N   UNL     1       0.847   9.267   4.790  0.00  0.00    +0.057 N 
ATOM     33  O   UNL     1       1.231   8.540   5.689  0.00  0.00    -0.126 OA
ATOM     34  O   UNL     1       0.857  10.476   4.938  0.00  0.00    -0.126 OA
ENDBRANCH  29  32
ENDBRANCH  22  25
ENDBRANCH  21  22
ENDBRANCH   6  21
TORSDOF 8
