REMARK  Name = ZINC36302064
REMARK  17 active torsions:
REMARK  status: ('A' for Active; 'I' for Inactive)
REMARK    1  A    between atoms: C_1  and  C_2
REMARK    2  A    between atoms: C_2  and  C_3
REMARK    3  A    between atoms: C_3  and  C_5
REMARK    4  A    between atoms: C_3  and  N_6
REMARK    5  A    between atoms: N_6  and  C_7
REMARK    6  A    between atoms: N_6  and  C_29
REMARK    7  A    between atoms: C_7  and  C_8
REMARK    8  A    between atoms: C_9  and  C_28
REMARK    9  A    between atoms: N_11  and  C_22
REMARK   10  A    between atoms: C_12  and  O_13
REMARK   11  A    between atoms: O_13  and  C_14
REMARK   12  A    between atoms: C_19  and  O_20
REMARK   13  A    between atoms: O_20  and  C_21
REMARK   14  A    between atoms: C_29  and  C_30
REMARK   15  A    between atoms: C_30  and  C_32
REMARK   16  A    between atoms: C_30  and  O_39
REMARK   17  A    between atoms: C_32  and  C_33
REMARK                            x       y       z     vdW  Elec       q    Type
REMARK                         _______ _______ _______ _____ _____    ______ ____
ROOT
ATOM      1  C   UNL     1      -0.339   1.975   2.428  0.00  0.00    +0.021 A 
ATOM      2  C   UNL     1       0.345   1.804   3.635  0.00  0.00    +0.065 A 
ATOM      3  N   UNL     1       1.620   2.004   3.421  0.00  0.00    -0.168 NA
ATOM      4  N   UNL     1       1.798   2.311   2.065  0.00  0.00    -0.200 N 
ATOM      5  C   UNL     1       0.575   2.283   1.470  0.00  0.00    +0.225 A 
ATOM      6  C   UNL     1      -0.280   1.448   4.959  0.00  0.00    +0.068 C 
ENDROOT
BRANCH   4   7
ATOM      7  C   UNL     1       3.018   2.592   1.435  0.00  0.00    +0.069 A 
ATOM      8  C   UNL     1       3.264   2.118   0.154  0.00  0.00    +0.028 A 
ATOM      9  C   UNL     1       4.467   2.396  -0.465  0.00  0.00    +0.002 A 
ATOM     10  C   UNL     1       5.426   3.147   0.191  0.00  0.00    +0.000 A 
ATOM     11  C   UNL     1       5.183   3.621   1.467  0.00  0.00    +0.002 A 
ATOM     12  C   UNL     1       3.980   3.351   2.088  0.00  0.00    +0.028 A 
ENDBRANCH   4   7
BRANCH   1  13
ATOM     13  C   UNL     1      -1.826   1.838   2.224  0.00  0.00    -0.035 C 
BRANCH  13  14
ATOM     14  N   UNL     1      -2.224   0.442   2.450  0.00  0.00    +0.386 N 
ATOM     15  H   UNL     1      -1.863   0.129   3.339  0.00  0.00    -0.081 HD
BRANCH  14  16
ATOM     16  C   UNL     1      -1.683  -0.402   1.376  0.00  0.00    -0.071 C 
ATOM     17  C   UNL     1      -0.228  -0.754   1.689  0.00  0.00    -0.013 C 
BRANCH  16  19
ATOM     18  C   UNL     1      -3.215   0.578  -0.337  0.00  0.00    +0.002 C 
ATOM     19  C   UNL     1      -1.751   0.356   0.049  0.00  0.00    -0.019 C 
ENDBRANCH  16  19
ENDBRANCH  14  16
BRANCH  14  20
ATOM     20  C   UNL     1      -3.690   0.346   2.457  0.00  0.00    -0.046 C 
BRANCH  20  21
ATOM     21  C   UNL     1      -4.111  -0.985   3.081  0.00  0.00    +0.102 C 
BRANCH  21  22
ATOM     22  O   UNL     1      -3.707  -2.059   2.230  0.00  0.00    -0.393 OA
ATOM     23  H   UNL     1      -4.158  -2.075   1.375  0.00  0.00    +0.210 HD
ENDBRANCH  21  22
BRANCH  21  24
ATOM     24  C   UNL     1      -5.632  -1.012   3.248  0.00  0.00    +0.064 C 
BRANCH  24  25
ATOM     25  C   UNL     1      -6.036  -2.270   3.974  0.00  0.00    -0.045 A 
ATOM     26  C   UNL     1      -6.320  -3.419   3.259  0.00  0.00    +0.004 A 
ATOM     27  C   UNL     1      -6.690  -4.572   3.925  0.00  0.00    +0.000 A 
ATOM     28  C   UNL     1      -6.776  -4.577   5.305  0.00  0.00    +0.000 A 
ATOM     29  C   UNL     1      -6.490  -3.429   6.019  0.00  0.00    +0.000 A 
ATOM     30  C   UNL     1      -6.116  -2.276   5.354  0.00  0.00    +0.004 A 
ENDBRANCH  24  25
ENDBRANCH  21  24
ENDBRANCH  20  21
ENDBRANCH  14  20
ENDBRANCH  13  14
ENDBRANCH   1  13
BRANCH   5  31
ATOM     31  O   UNL     1       0.315   2.520   0.159  0.00  0.00    -0.434 OA
BRANCH  31  32
ATOM     32  C   UNL     1       0.137   3.810  -0.233  0.00  0.00    +0.172 A 
ATOM     33  C   UNL     1       0.323   4.843   0.673  0.00  0.00    +0.050 A 
ATOM     34  C   UNL     1       0.141   6.154   0.273  0.00  0.00    +0.004 A 
ATOM     35  C   UNL     1      -0.226   6.438  -1.029  0.00  0.00    +0.004 A 
ATOM     36  C   UNL     1      -0.413   5.412  -1.938  0.00  0.00    +0.049 A 
ATOM     37  C   UNL     1      -0.227   4.097  -1.545  0.00  0.00    +0.162 A 
BRANCH  37  38
ATOM     38  O   UNL     1      -0.406   3.087  -2.439  0.00  0.00    -0.491 OA
ATOM     39  C   UNL     1      -0.779   3.456  -3.768  0.00  0.00    +0.277 C 
ENDBRANCH  37  38
ENDBRANCH  31  32
ENDBRANCH   5  31
TORSDOF 13
