REMARK  Name = ZINC35579513
REMARK  8 active torsions:
REMARK  status: ('A' for Active; 'I' for Inactive)
REMARK    1  A    between atoms: C_1  and  C_2
REMARK    2  A    between atoms: C_2  and  C_3
REMARK    3  A    between atoms: C_3  and  N_4
REMARK    4  A    between atoms: N_4  and  C_5
REMARK    5  A    between atoms: C_5  and  C_7
REMARK    6  A    between atoms: C_5  and  C_14
REMARK    7  A    between atoms: C_17  and  C_21
REMARK    8  A    between atoms: C_19  and  C_20
REMARK                            x       y       z     vdW  Elec       q    Type
REMARK                         _______ _______ _______ _____ _____    ______ ____
ROOT
ATOM      1  C   UNL     1      -2.816  -2.509  -0.021  0.00  0.00    -0.010 C 
ENDROOT
BRANCH   1   2
ATOM      2  C   UNL     1      -2.685  -4.002  -0.175  0.00  0.00    -0.054 A 
ATOM      3  C   UNL     1      -1.581  -4.656   0.340  0.00  0.00    +0.003 A 
ATOM      4  C   UNL     1      -1.462  -6.026   0.198  0.00  0.00    +0.003 A 
ATOM      5  C   UNL     1      -2.446  -6.742  -0.458  0.00  0.00    -0.050 A 
ATOM      6  C   UNL     1      -3.550  -6.088  -0.972  0.00  0.00    +0.007 A 
ATOM      7  C   UNL     1      -3.672  -4.718  -0.826  0.00  0.00    -0.048 A 
ATOM      8  C   UNL     1      -4.878  -4.006  -1.382  0.00  0.00    +0.044 C 
ATOM      9  C   UNL     1      -2.315  -8.235  -0.613  0.00  0.00    +0.044 C 
ENDBRANCH   1   2
BRANCH   1  10
ATOM     10  C   UNL     1      -3.599  -2.199   1.229  0.00  0.00    -0.056 A 
ATOM     11  C   UNL     1      -3.025  -2.396   2.471  0.00  0.00    +0.002 A 
ATOM     12  C   UNL     1      -3.744  -2.112   3.617  0.00  0.00    +0.001 A 
ATOM     13  C   UNL     1      -5.036  -1.632   3.522  0.00  0.00    +0.014 A 
ATOM     14  C   UNL     1      -5.611  -1.435   2.279  0.00  0.00    +0.014 A 
ATOM     15  C   UNL     1      -4.889  -1.713   1.132  0.00  0.00    +0.016 A 
ATOM     16  I   UNL     1      -7.570  -0.707   2.134  0.00  0.00    -0.044 I 
ENDBRANCH   1  10
BRANCH   1  17
ATOM     17  N   UNL     1      -1.479  -1.908   0.078  0.00  0.00    +0.386 N 
ATOM     18  H   UNL     1      -0.926  -2.183  -0.720  0.00  0.00    -0.085 HD
ATOM     19  H   UNL     1      -1.029  -2.225   0.924  0.00  0.00    -0.085 HD
BRANCH  17  20
ATOM     20  C   UNL     1      -1.601  -0.444   0.108  0.00  0.00    -0.082 C 
BRANCH  20  22
ATOM     21  C   UNL     1      -0.335   1.706   0.242  0.00  0.00    +0.002 C 
ATOM     22  C   UNL     1      -0.208   0.181   0.211  0.00  0.00    -0.022 C 
ENDBRANCH  20  22
ENDBRANCH  17  20
ENDBRANCH   1  17
TORSDOF 5
