REMARK  Name = ZINC16675803
REMARK  6 active torsions:
REMARK  status: ('A' for Active; 'I' for Inactive)
REMARK    1  A    between atoms: C_3  and  C_7
REMARK    2  A    between atoms: N_9  and  N_10
REMARK    3  A    between atoms: C_11  and  C_12
REMARK    4  A    between atoms: C_15  and  N_18
REMARK    5  A    between atoms: C_19  and  C_31
REMARK    6  A    between atoms: C_22  and  C_24
REMARK                            x       y       z     vdW  Elec       q    Type
REMARK                         _______ _______ _______ _____ _____    ______ ____
ROOT
ATOM      1  N   UNL     1       1.022   7.699   0.034  0.00  0.00    -0.216 N 
ATOM      2  C   UNL     1      -0.186   8.539   0.050  0.00  0.00    +0.134 C 
ATOM      3  C   UNL     1       0.371   9.976   0.054  0.00  0.00    +0.087 C 
ATOM      4  C   UNL     1       1.871   9.784   0.040  0.00  0.00    +0.069 C 
ATOM      5  N   UNL     1       2.144   8.525   0.035  0.00  0.00    -0.183 NA
ENDROOT
BRANCH   4   6
ATOM      6  C   UNL     1       2.868  10.871   0.037  0.00  0.00    -0.002 A 
ATOM      7  C   UNL     1       2.451  12.205   0.044  0.00  0.00    +0.011 A 
ATOM      8  C   UNL     1       3.388  13.216   0.046  0.00  0.00    +0.020 A 
ATOM      9  C   UNL     1       4.739  12.913   0.032  0.00  0.00    +0.041 A 
ATOM     10  C   UNL     1       5.159  11.593   0.021  0.00  0.00    +0.020 A 
ATOM     11  C   UNL     1       4.232  10.572   0.023  0.00  0.00    +0.011 A 
ATOM     12 CL   UNL     1       5.912  14.193   0.029  0.00  0.00    -0.084 Cl
ENDBRANCH   4   6
BRANCH   2  13
ATOM     13  C   UNL     1      -1.019   8.293  -1.181  0.00  0.00    -0.025 A 
ATOM     14  C   UNL     1      -0.404   8.098  -2.404  0.00  0.00    +0.007 A 
ATOM     15  C   UNL     1      -1.167   7.867  -3.533  0.00  0.00    +0.020 A 
ATOM     16  C   UNL     1      -2.547   7.842  -3.441  0.00  0.00    +0.041 A 
ATOM     17  C   UNL     1      -3.163   8.043  -2.219  0.00  0.00    +0.020 A 
ATOM     18  C   UNL     1      -2.398   8.268  -1.089  0.00  0.00    +0.007 A 
ATOM     19 CL   UNL     1      -3.507   7.560  -4.860  0.00  0.00    -0.084 Cl
ENDBRANCH   2  13
BRANCH   1  23
ATOM     20  C   UNL     1       1.079   3.535   0.011  0.00  0.00    -0.005 A 
ATOM     21  C   UNL     1      -0.141   4.219   0.020  0.00  0.00    +0.011 A 
ATOM     22  C   UNL     1      -0.156   5.596   0.034  0.00  0.00    +0.025 A 
ATOM     23  C   UNL     1       1.041   6.306   0.026  0.00  0.00    +0.052 A 
ATOM     24  C   UNL     1       2.257   5.628   0.011  0.00  0.00    +0.025 A 
ATOM     25  C   UNL     1       2.279   4.252   0.003  0.00  0.00    +0.011 A 
BRANCH  20  27
ATOM     26  N   UNL     1      -0.017   1.397   0.010  0.00  0.00    -0.187 NA
ATOM     27  C   UNL     1       1.099   2.061   0.003  0.00  0.00    +0.138 C 
BRANCH  26  30
ATOM     28  C   UNL     1      -1.156  -0.694   0.009  0.00  0.00    +0.265 C 
ATOM     29  O   UNL     1      -2.217  -0.100   0.023  0.00  0.00    -0.268 OA
ATOM     30  N   UNL     1       0.002  -0.004   0.002  0.00  0.00    -0.203 N 
ATOM     31  H   UNL     1       0.849  -0.478  -0.009  0.00  0.00    +0.178 HD
BRANCH  28  34
ATOM     32  C   UNL     1      -2.258  -4.282   0.002  0.00  0.00    +0.020 A 
ATOM     33  C   UNL     1      -2.332  -2.900   0.015  0.00  0.00    +0.016 A 
ATOM     34  C   UNL     1      -1.136  -2.171   0.001  0.00  0.00    +0.056 A 
ATOM     35  C   UNL     1       0.076  -2.865  -0.014  0.00  0.00    +0.123 A 
ATOM     36  N   UNL     1       0.093  -4.181  -0.021  0.00  0.00    -0.263 NA
ATOM     37  C   UNL     1      -1.017  -4.893  -0.014  0.00  0.00    +0.111 A 
ENDBRANCH  28  34
ENDBRANCH  26  30
ENDBRANCH  20  27
ENDBRANCH   1  23
TORSDOF 6
