REMARK  Name = ZINC64934513
REMARK  4 active torsions:
REMARK  status: ('A' for Active; 'I' for Inactive)
REMARK    1  A    between atoms: C_4  and  N_15
REMARK    2  A    between atoms: C_7  and  O_11
REMARK    3  A    between atoms: O_11  and  C_12
REMARK    4  A    between atoms: C_16  and  C_18
REMARK                            x       y       z     vdW  Elec       q    Type
REMARK                         _______ _______ _______ _____ _____    ______ ____
ROOT
ATOM      1  C   UNL     1      -0.010   1.376   0.017  0.00  0.00    +0.020 A 
ATOM      2  C   UNL     1       1.163   2.077   0.006  0.00  0.00    +0.013 A 
ATOM      3  C   UNL     1       2.368   1.355  -0.001  0.00  0.00    +0.025 A 
ATOM      4  C   UNL     1       3.617   2.010  -0.011  0.00  0.00    +0.043 A 
ATOM      5  C   UNL     1       4.775   1.263  -0.018  0.00  0.00    +0.027 A 
ATOM      6  C   UNL     1       4.723  -0.128  -0.015  0.00  0.00    +0.050 A 
ATOM      7  C   UNL     1       3.529  -0.789  -0.005  0.00  0.00    +0.153 A 
ATOM      8  C   UNL     1       2.321  -0.061   0.002  0.00  0.00    +0.114 A 
ATOM      9  N   UNL     1       1.141  -0.687   0.013  0.00  0.00    -0.251 NA
ATOM     10  C   UNL     1       0.014  -0.016   0.019  0.00  0.00    +0.111 A 
ENDROOT
BRANCH   4  11
ATOM     11  N   UNL     1       3.679   3.406  -0.015  0.00  0.00    -0.281 N 
ATOM     12  C   UNL     1       4.764   4.031  -0.515  0.00  0.00    +0.251 C 
ATOM     13  O   UNL     1       5.643   3.386  -1.054  0.00  0.00    -0.270 OA
ATOM     14  H   UNL     1       2.942   3.925   0.343  0.00  0.00    +0.155 HD
BRANCH  12  15
ATOM     15  C   UNL     1       4.885   5.498  -0.408  0.00  0.00    +0.074 A 
ATOM     16  C   UNL     1       3.882   6.252   0.215  0.00  0.00    +0.019 A 
ATOM     17  C   UNL     1       4.043   7.623   0.290  0.00  0.00    +0.041 A 
ATOM     18  C   UNL     1       5.180   8.204  -0.250  0.00  0.00    +0.131 A 
ATOM     19  N   UNL     1       6.109   7.469  -0.832  0.00  0.00    -0.223 NA
ATOM     20  C   UNL     1       6.004   6.158  -0.923  0.00  0.00    +0.143 A 
ATOM     21 CL   UNL     1       7.263   5.245  -1.694  0.00  0.00    -0.061 Cl
ATOM     22 CL   UNL     1       5.386   9.925  -0.158  0.00  0.00    -0.062 Cl
ENDBRANCH  12  15
ENDBRANCH   4  11
BRANCH   7  23
ATOM     23  O   UNL     1       3.504  -2.148  -0.003  0.00  0.00    -0.432 OA
BRANCH  23  24
ATOM     24  C   UNL     1       4.765  -2.820  -0.011  0.00  0.00    +0.541 C 
ATOM     25  F   UNL     1       5.478  -2.459  -1.159  0.00  0.00    -0.166 F 
ATOM     26  F   UNL     1       5.495  -2.456   1.125  0.00  0.00    -0.166 F 
ENDBRANCH  23  24
ENDBRANCH   7  23
TORSDOF 4
