REMARK  Name = ZINC63165688
REMARK  9 active torsions:
REMARK  status: ('A' for Active; 'I' for Inactive)
REMARK    1  A    between atoms: C_1  and  C_2
REMARK    2  A    between atoms: C_4  and  C_36
REMARK    3  A    between atoms: C_5  and  C_34
REMARK    4  A    between atoms: C_6  and  N_15
REMARK    5  A    between atoms: N_8  and  C_9
REMARK    6  A    between atoms: C_16  and  C_18
REMARK    7  A    between atoms: C_18  and  S_19
REMARK    8  A    between atoms: S_19  and  C_20
REMARK    9  A    between atoms: C_23  and  C_25
REMARK                            x       y       z     vdW  Elec       q    Type
REMARK                         _______ _______ _______ _____ _____    ______ ____
ROOT
ATOM      1  N   UNL     1       0.188  -2.711   0.884  0.00  0.00    -0.294 N 
ATOM      2  C   UNL     1       0.582  -3.737   1.664  0.00  0.00    +0.225 C 
ATOM      3  O   UNL     1       1.686  -3.728   2.165  0.00  0.00    -0.275 OA
ATOM      4  H   UNL     1      -0.718  -2.686   0.537  0.00  0.00    +0.151 HD
ENDROOT
BRANCH   1   9
ATOM      5  C   UNL     1       0.059   1.812   0.325  0.00  0.00    +0.029 C 
ATOM      6  C   UNL     1      -0.122   0.295   0.238  0.00  0.00    +0.083 C 
ATOM      7  C   UNL     1       0.357  -0.213  -1.102  0.00  0.00    -0.039 C 
ATOM      8  C   UNL     1       1.074  -1.320  -0.917  0.00  0.00    +0.065 C 
ATOM      9  C   UNL     1       1.127  -1.634   0.560  0.00  0.00    +0.186 C 
ATOM     10  N   UNL     1       0.727  -0.381   1.246  0.00  0.00    -0.271 NA
ATOM     11  C   UNL     1       0.070   0.429  -2.434  0.00  0.00    +0.042 C 
BRANCH  10  12
ATOM     12  C   UNL     1      -0.034  -0.668   2.469  0.00  0.00    +0.059 C 
ATOM     13  C   UNL     1      -0.800   0.584   2.899  0.00  0.00    +0.019 C 
ATOM     14  C   UNL     1      -1.593   0.285   4.173  0.00  0.00    +0.002 C 
ATOM     15  C   UNL     1      -0.631  -0.131   5.287  0.00  0.00    +0.000 C 
ATOM     16  C   UNL     1       0.135  -1.384   4.857  0.00  0.00    +0.002 C 
ATOM     17  C   UNL     1       0.928  -1.085   3.584  0.00  0.00    +0.019 C 
ENDBRANCH  10  12
BRANCH   8  18
ATOM     18  C   UNL     1       1.694  -2.090  -1.953  0.00  0.00    +0.098 C 
ATOM     19  N   UNL     1       2.187  -2.701  -2.774  0.00  0.00    -0.191 NA
ENDBRANCH   8  18
ENDBRANCH   1   9
BRANCH   2  20
ATOM     20  C   UNL     1      -0.350  -4.895   1.914  0.00  0.00    +0.174 C 
BRANCH  20  21
ATOM     21  S   UNL     1       0.464  -6.104   2.993  0.00  0.00    -0.056 S 
BRANCH  21  22
ATOM     22  C   UNL     1      -0.737  -7.378   3.188  0.00  0.00    +0.278 A 
ATOM     23  N   UNL     1      -1.944  -7.406   2.643  0.00  0.00    -0.101 NA
ATOM     24  N   UNL     1      -2.548  -8.484   2.999  0.00  0.00    -0.107 NA
ATOM     25  C   UNL     1      -1.753  -9.191   3.786  0.00  0.00    +0.248 A 
ATOM     26  O   UNL     1      -0.593  -8.503   3.911  0.00  0.00    -0.411 OA
BRANCH  25  27
ATOM     27  C   UNL     1      -2.053 -10.427   4.376  0.00  0.00    +0.044 C 
ATOM     28  C   UNL     1      -3.235 -11.158   4.250  0.00  0.00    +0.008 A 
ATOM     29  C   UNL     1      -4.433 -10.918   3.543  0.00  0.00    +0.010 A 
ATOM     30  C   UNL     1      -5.442 -11.824   3.602  0.00  0.00    +0.001 A 
ATOM     31  C   UNL     1      -5.329 -12.998   4.351  0.00  0.00    +0.002 A 
ATOM     32  C   UNL     1      -4.208 -13.292   5.053  0.00  0.00    +0.026 A 
ATOM     33  C   UNL     1      -3.110 -12.394   5.040  0.00  0.00    +0.043 A 
ATOM     34  N   UNL     1      -1.931 -12.448   5.628  0.00  0.00    -0.380 N 
ATOM     35  C   UNL     1      -1.160 -11.251   5.277  0.00  0.00    +0.154 C 
ATOM     36  H   UNL     1      -1.622 -13.168   6.200  0.00  0.00    +0.160 HD
ENDBRANCH  25  27
ENDBRANCH  21  22
ENDBRANCH  20  21
ENDBRANCH   2  20
TORSDOF 7
