REMARK  Name = ZINC66003021
REMARK  3 active torsions:
REMARK  status: ('A' for Active; 'I' for Inactive)
REMARK    1  A    between atoms: C_6  and  S_7
REMARK    2  A    between atoms: S_7  and  N_10
REMARK    3  A    between atoms: C_11  and  C_13
REMARK                            x       y       z     vdW  Elec       q    Type
REMARK                         _______ _______ _______ _____ _____    ______ ____
ROOT
ATOM      1  S   UNL     1      -1.374  -1.097  -0.013  0.00  0.00    +0.102 S 
ATOM      2  O   UNL     1      -0.744  -2.349   0.219  0.00  0.00    -0.146 OA
ATOM      3  O   UNL     1      -2.431  -0.613   0.804  0.00  0.00    -0.146 OA
ENDROOT
BRANCH   1   9
ATOM      4  C   UNL     1      -0.418   1.435   0.330  0.00  0.00    +0.033 A 
ATOM      5  C   UNL     1       0.574   2.398   0.367  0.00  0.00    +0.051 A 
ATOM      6  C   UNL     1       1.886   2.042   0.103  0.00  0.00    +0.162 A 
ATOM      7  C   UNL     1       2.202   0.725  -0.197  0.00  0.00    +0.164 A 
ATOM      8  C   UNL     1       1.207  -0.236  -0.233  0.00  0.00    +0.078 A 
ATOM      9  C   UNL     1      -0.103   0.123   0.031  0.00  0.00    +0.116 A 
ATOM     10  O   UNL     1       3.498   0.384  -0.454  0.00  0.00    -0.488 OA
ATOM     11  C   UNL     1       4.052   0.904  -1.665  0.00  0.00    +0.232 C 
ATOM     12  C   UNL     1       4.581   2.314  -1.455  0.00  0.00    +0.082 C 
ATOM     13  C   UNL     1       3.476   3.303  -1.118  0.00  0.00    +0.232 C 
ATOM     14  O   UNL     1       2.875   2.982   0.138  0.00  0.00    -0.488 OA
ENDBRANCH   1   9
BRANCH   1  15
ATOM     15  N   UNL     1      -1.957  -1.141  -1.563  0.00  0.00    -0.086 NA
ATOM     16  C   UNL     1      -2.914  -1.966  -1.875  0.00  0.00    +0.288 C 
ATOM     17  O   UNL     1      -3.433  -2.787  -0.934  0.00  0.00    -0.265 OA
BRANCH  16  18
ATOM     18  C   UNL     1      -3.432  -2.005  -3.254  0.00  0.00    +0.072 C 
ATOM     19  C   UNL     1      -4.494  -2.748  -3.543  0.00  0.00    -0.064 C 
ATOM     20  C   UNL     1      -5.388  -3.285  -2.447  0.00  0.00    +0.031 C 
ATOM     21  C   UNL     1      -6.839  -2.920  -2.779  0.00  0.00    +0.004 C 
ATOM     22  C   UNL     1      -7.184  -3.430  -4.179  0.00  0.00    +0.001 C 
ATOM     23  C   UNL     1      -6.313  -2.722  -5.218  0.00  0.00    +0.004 C 
ATOM     24  C   UNL     1      -4.845  -3.074  -4.978  0.00  0.00    +0.031 C 
ENDBRANCH  16  18
ENDBRANCH   1  15
TORSDOF 3
