REMARK  Name = ZINC01965326
REMARK  13 active torsions:
REMARK  status: ('A' for Active; 'I' for Inactive)
REMARK    1  A    between atoms: C_1  and  C_2
REMARK    2  A    between atoms: C_2  and  O_3
REMARK    3  A    between atoms: O_3  and  C_4
REMARK    4  A    between atoms: C_4  and  C_6
REMARK    5  A    between atoms: C_10  and  N_11
REMARK    6  A    between atoms: C_12  and  C_14
REMARK    7  A    between atoms: C_14  and  N_15
REMARK    8  A    between atoms: C_22  and  C_30
REMARK    9  A    between atoms: C_23  and  C_25
REMARK   10  A    between atoms: C_25  and  O_27
REMARK   11  A    between atoms: O_27  and  C_28
REMARK   12  A    between atoms: C_28  and  C_29
REMARK   13  A    between atoms: C_32  and  C_36
REMARK                            x       y       z     vdW  Elec       q    Type
REMARK                         _______ _______ _______ _____ _____    ______ ____
ROOT
ATOM      1  N   UNL     1      -2.901   2.907   1.699  0.00  0.00    -0.278 N 
ATOM      2  C   UNL     1      -1.738   2.275   1.444  0.00  0.00    +0.238 C 
ATOM      3  O   UNL     1      -1.041   1.894   2.360  0.00  0.00    -0.273 OA
ATOM      4  H   UNL     1      -3.532   3.253   0.867  0.00  0.00    +0.155 HD
ENDROOT
BRANCH   1   9
ATOM      5  C   UNL     1      -4.452   3.746   3.468  0.00  0.00    +0.091 A 
ATOM      6  C   UNL     1      -4.635   3.841   4.907  0.00  0.00    -0.021 A 
ATOM      7  C   UNL     1      -3.646   3.300   5.650  0.00  0.00    -0.004 A 
ATOM      8  S   UNL     1      -2.488   2.666   4.470  0.00  0.00    -0.077 S 
ATOM      9  C   UNL     1      -3.300   3.121   3.009  0.00  0.00    +0.086 A 
ATOM     10  C   UNL     1      -3.563   3.248   7.144  0.00  0.00    +0.046 C 
ATOM     11  C   UNL     1      -4.951   3.570   7.717  0.00  0.00    -0.009 C 
ATOM     12  C   UNL     1      -5.494   4.821   7.020  0.00  0.00    +0.008 C 
ATOM     13  C   UNL     1      -5.843   4.496   5.566  0.00  0.00    +0.037 C 
ATOM     14  C   UNL     1      -4.839   3.826   9.221  0.00  0.00    +0.008 C 
BRANCH   5  15
ATOM     15  C   UNL     1      -5.445   4.288   2.538  0.00  0.00    +0.342 C 
ATOM     16  O   UNL     1      -6.360   3.588   2.149  0.00  0.00    -0.245 OA
BRANCH  15  17
ATOM     17  O   UNL     1      -5.344   5.565   2.114  0.00  0.00    -0.461 OA
BRANCH  17  19
ATOM     18  C   UNL     1      -6.085   7.494   0.826  0.00  0.00    +0.048 C 
ATOM     19  C   UNL     1      -6.363   6.035   1.193  0.00  0.00    +0.229 C 
ENDBRANCH  17  19
ENDBRANCH  15  17
ENDBRANCH   5  15
ENDBRANCH   1   9
BRANCH   2  20
ATOM     20  C   UNL     1      -1.303   2.043   0.019  0.00  0.00    +0.222 C 
BRANCH  20  21
ATOM     21  N   UNL     1      -0.016   1.343   0.009  0.00  0.00    -0.290 N 
ATOM     22  C   UNL     1       1.132   2.064   0.002  0.00  0.00    +0.203 A 
ATOM     23  N   UNL     1       2.305   1.494  -0.011  0.00  0.00    -0.230 NA
ATOM     24  C   UNL     1       2.437   0.173  -0.020  0.00  0.00    +0.116 A 
ATOM     25  C   UNL     1       1.315  -0.688  -0.014  0.00  0.00    +0.076 A 
ATOM     26  C   UNL     1       0.002  -0.004   0.002  0.00  0.00    +0.263 A 
ATOM     27  O   UNL     1      -1.035  -0.643   0.008  0.00  0.00    -0.267 OA
ATOM     28  C   UNL     1       1.599  -2.055  -0.024  0.00  0.00    -0.015 A 
ATOM     29  C   UNL     1       2.896  -2.480  -0.039  0.00  0.00    +0.102 A 
ATOM     30  S   UNL     1       3.812  -0.949  -0.040  0.00  0.00    -0.062 S 
ATOM     31  C   UNL     1       0.475  -3.059  -0.018  0.00  0.00    +0.046 C 
BRANCH  29  32
ATOM     32  C   UNL     1       3.408  -3.852  -0.051  0.00  0.00    +0.346 C 
ATOM     33  O   UNL     1       2.634  -4.790  -0.048  0.00  0.00    -0.244 OA
BRANCH  32  34
ATOM     34  O   UNL     1       4.738  -4.075  -0.066  0.00  0.00    -0.461 OA
BRANCH  34  35
ATOM     35  C   UNL     1       5.174  -5.460  -0.077  0.00  0.00    +0.229 C 
ATOM     36  C   UNL     1       6.703  -5.513  -0.093  0.00  0.00    +0.048 C 
ENDBRANCH  34  35
ENDBRANCH  32  34
ENDBRANCH  29  32
ENDBRANCH  20  21
ENDBRANCH   2  20
TORSDOF 9
