REMARK  Name = ZINC11996388
REMARK  6 active torsions:
REMARK  status: ('A' for Active; 'I' for Inactive)
REMARK    1  A    between atoms: C_5  and  C_7
REMARK    2  A    between atoms: N_9  and  C_10
REMARK    3  A    between atoms: N_9  and  C_29
REMARK    4  A    between atoms: C_10  and  C_11
REMARK    5  A    between atoms: C_19  and  N_20
REMARK    6  A    between atoms: C_29  and  C_30
REMARK                            x       y       z     vdW  Elec       q    Type
REMARK                         _______ _______ _______ _____ _____    ______ ____
ROOT
ATOM      1  C   UNL     1      -1.036  -0.760  -0.035  0.00  0.00    +0.008 A 
ATOM      2  C   UNL     1      -0.913  -2.083  -0.337  0.00  0.00    +0.018 A 
ATOM      3  C   UNL     1       0.362  -2.572  -0.687  0.00  0.00    -0.001 A 
ATOM      4  C   UNL     1       0.563  -3.923  -1.006  0.00  0.00    +0.014 A 
ATOM      5  C   UNL     1       1.809  -4.367  -1.340  0.00  0.00    -0.043 A 
ATOM      6  C   UNL     1       2.893  -3.490  -1.368  0.00  0.00    -0.042 A 
ATOM      7  C   UNL     1       2.728  -2.170  -1.064  0.00  0.00    +0.030 A 
ATOM      8  C   UNL     1       1.460  -1.678  -0.717  0.00  0.00    +0.048 A 
ATOM      9  C   UNL     1       0.089   0.076  -0.089  0.00  0.00    +0.104 A 
ATOM     10  C   UNL     1       4.145  -4.245  -1.766  0.00  0.00    +0.036 C 
ATOM     11  C   UNL     1       3.807  -5.734  -1.547  0.00  0.00    +0.009 C 
ATOM     12  C   UNL     1       2.274  -5.759  -1.717  0.00  0.00    +0.036 C 
ATOM     13  N   UNL     1       1.337  -0.339  -0.419  0.00  0.00    -0.343 N 
ATOM     14  H   UNL     1       2.138   0.302  -0.444  0.00  0.00    +0.167 HD
ENDROOT
BRANCH   9  15
ATOM     15  N   UNL     1      -0.053   1.422   0.214  0.00  0.00    -0.312 N 
ATOM     16  C   UNL     1       0.365   2.264  -0.916  0.00  0.00    +0.134 C 
ATOM     17  C   UNL     1       0.137   3.736  -0.561  0.00  0.00    +0.178 C 
ATOM     18  O   UNL     1       0.849   4.048   0.639  0.00  0.00    -0.377 OA
ATOM     19  C   UNL     1       0.466   3.247   1.760  0.00  0.00    +0.178 C 
ATOM     20  C   UNL     1       0.698   1.770   1.429  0.00  0.00    +0.134 C 
ENDBRANCH   9  15
BRANCH   1  21
ATOM     21  C   UNL     1      -2.378  -0.195   0.352  0.00  0.00    +0.146 C 
BRANCH  21  24
ATOM     22  C   UNL     1      -4.015  -1.674  -0.684  0.00  0.00    +0.250 C 
ATOM     23  O   UNL     1      -3.779  -1.141  -1.750  0.00  0.00    -0.270 OA
ATOM     24  N   UNL     1      -3.361  -1.280   0.426  0.00  0.00    -0.291 N 
BRANCH  22  29
ATOM     25  C   UNL     1      -6.630  -4.009   0.659  0.00  0.00    +0.001 A 
ATOM     26  C   UNL     1      -6.903  -4.782  -0.457  0.00  0.00    +0.003 A 
ATOM     27  C   UNL     1      -6.239  -4.548  -1.647  0.00  0.00    +0.039 A 
ATOM     28  C   UNL     1      -5.301  -3.535  -1.731  0.00  0.00    +0.135 A 
ATOM     29  C   UNL     1      -5.018  -2.755  -0.605  0.00  0.00    +0.072 A 
ATOM     30  C   UNL     1      -5.694  -2.999   0.593  0.00  0.00    +0.016 A 
ATOM     31  F   UNL     1      -4.657  -3.302  -2.895  0.00  0.00    -0.205 F 
ENDBRANCH  22  29
BRANCH  24  32
ATOM     32  C   UNL     1      -3.632  -1.935   1.708  0.00  0.00    +0.140 C 
BRANCH  32  33
ATOM     33  C   UNL     1      -4.479  -1.010   2.585  0.00  0.00    +0.136 C 
ATOM     34  C   UNL     1      -4.770  -1.690   3.937  0.00  0.00    +0.035 C 
ATOM     35  C   UNL     1      -4.182  -0.716   4.986  0.00  0.00    +0.031 C 
ATOM     36  C   UNL     1      -4.122   0.616   4.195  0.00  0.00    +0.160 C 
ATOM     37  O   UNL     1      -3.753   0.199   2.863  0.00  0.00    -0.375 OA
ENDBRANCH  32  33
ENDBRANCH  24  32
ENDBRANCH  21  24
ENDBRANCH   1  21
TORSDOF 6
