REMARK  Name = ZINC54645731
REMARK  13 active torsions:
REMARK  status: ('A' for Active; 'I' for Inactive)
REMARK    1  A    between atoms: C_1  and  C_2
REMARK    2  A    between atoms: C_7  and  C_8
REMARK    3  A    between atoms: C_7  and  C_9
REMARK    4  A    between atoms: N_12  and  C_15
REMARK    5  A    between atoms: C_15  and  C_16
REMARK    6  A    between atoms: N_18  and  C_19
REMARK    7  A    between atoms: C_20  and  C_33
REMARK    8  A    between atoms: C_25  and  C_29
REMARK    9  A    between atoms: C_29  and  C_30
REMARK   10  A    between atoms: C_29  and  C_31
REMARK   11  A    between atoms: C_29  and  C_32
REMARK   12  A    between atoms: C_33  and  O_35
REMARK   13  A    between atoms: O_35  and  C_36
REMARK                            x       y       z     vdW  Elec       q    Type
REMARK                         _______ _______ _______ _____ _____    ______ ____
ROOT
ATOM      1  C   UNL     1       0.800  -3.112  -3.272  0.00  0.00    +0.235 C 
ATOM      2  O   UNL     1      -0.378  -3.105  -2.982  0.00  0.00    -0.274 OA
ATOM      3  N   UNL     1       1.208  -3.698  -4.415  0.00  0.00    -0.278 N 
ATOM      4  H   UNL     1       2.150  -3.705  -4.647  0.00  0.00    +0.155 HD
ENDROOT
BRANCH   3   5
ATOM      5  C   UNL     1       0.283  -4.292  -5.258  0.00  0.00    +0.086 A 
ATOM      6  C   UNL     1       0.519  -4.941  -6.461  0.00  0.00    +0.091 A 
ATOM      7  C   UNL     1      -0.634  -5.483  -7.161  0.00  0.00    -0.021 A 
ATOM      8  C   UNL     1      -1.810  -5.276  -6.530  0.00  0.00    -0.004 A 
ATOM      9  S   UNL     1      -1.381  -4.398  -5.056  0.00  0.00    -0.077 S 
ATOM     10  C   UNL     1      -3.167  -5.708  -6.993  0.00  0.00    +0.046 C 
ATOM     11  C   UNL     1      -3.070  -6.092  -8.477  0.00  0.00    -0.000 C 
ATOM     12  C   UNL     1      -1.865  -7.016  -8.672  0.00  0.00    +0.009 C 
ATOM     13  C   UNL     1      -0.568  -6.225  -8.487  0.00  0.00    +0.037 C 
BRANCH  11  14
ATOM     14  C   UNL     1      -4.349  -6.817  -8.902  0.00  0.00    -0.035 C 
ATOM     15  C   UNL     1      -5.552  -5.896  -8.692  0.00  0.00    +0.011 C 
ATOM     16  C   UNL     1      -4.250  -7.199 -10.381  0.00  0.00    +0.011 C 
ATOM     17  C   UNL     1      -4.522  -8.083  -8.059  0.00  0.00    +0.011 C 
ENDBRANCH  11  14
BRANCH   6  18
ATOM     18  C   UNL     1       1.873  -5.075  -7.004  0.00  0.00    +0.342 C 
ATOM     19  O   UNL     1       2.551  -6.042  -6.715  0.00  0.00    -0.245 OA
BRANCH  18  20
ATOM     20  O   UNL     1       2.367  -4.125  -7.824  0.00  0.00    -0.464 OA
ATOM     21  C   UNL     1       3.695  -4.319  -8.316  0.00  0.00    +0.280 C 
ENDBRANCH  18  20
ENDBRANCH   6  18
ENDBRANCH   3   5
BRANCH   1  22
ATOM     22  C   UNL     1       1.806  -2.467  -2.354  0.00  0.00    +0.212 C 
BRANCH  22  33
ATOM     23  C   UNL     1      -0.019   1.526   0.010  0.00  0.00    +0.021 C 
ATOM     24  C   UNL     1       0.002  -0.004   0.002  0.00  0.00    +0.051 C 
ATOM     25  C   UNL     1      -1.410  -0.632   0.090  0.00  0.00    +0.017 C 
ATOM     26  C   UNL     1      -1.232  -1.978   0.818  0.00  0.00    +0.014 C 
ATOM     27  C   UNL     1       0.279  -2.095   1.133  0.00  0.00    +0.082 C 
ATOM     28  C   UNL     1       0.737  -0.613   1.230  0.00  0.00    -0.010 C 
ATOM     29  C   UNL     1       0.259   0.029   2.534  0.00  0.00    +0.012 C 
ATOM     30  C   UNL     1       2.255  -0.492   1.081  0.00  0.00    +0.012 C 
ATOM     31  C   UNL     1       0.943  -2.678  -0.102  0.00  0.00    +0.226 C 
ATOM     32  O   UNL     1       1.316  -3.831  -0.107  0.00  0.00    -0.275 OA
ATOM     33  N   UNL     1       1.116  -1.905  -1.190  0.00  0.00    -0.233 N 
ATOM     34  C   UNL     1       0.688  -0.582  -1.223  0.00  0.00    +0.229 C 
ATOM     35  O   UNL     1       0.821   0.092  -2.222  0.00  0.00    -0.275 OA
ENDBRANCH  22  33
ENDBRANCH   1  22
TORSDOF 6
