REMARK  Name = ZINC44854973
REMARK  8 active torsions:
REMARK  status: ('A' for Active; 'I' for Inactive)
REMARK    1  A    between atoms: C_1  and  C_2
REMARK    2  A    between atoms: N_7  and  C_9
REMARK    3  A    between atoms: C_12  and  C_15
REMARK    4  A    between atoms: C_15  and  C_17
REMARK    5  A    between atoms: C_15  and  N_18
REMARK    6  A    between atoms: C_19  and  C_21
REMARK    7  A    between atoms: N_24  and  C_27
REMARK    8  A    between atoms: C_27  and  C_28
REMARK                            x       y       z     vdW  Elec       q    Type
REMARK                         _______ _______ _______ _____ _____    ______ ____
ROOT
ATOM      1  N   UNL     1      -0.019  -6.446   5.517  0.00  0.00    -0.309 N 
ATOM      2  C   UNL     1       0.096  -7.087   6.697  0.00  0.00    +0.216 C 
ATOM      3  O   UNL     1      -0.538  -6.706   7.658  0.00  0.00    -0.276 OA
ATOM      4  H   UNL     1       0.488  -6.750   4.748  0.00  0.00    +0.149 HD
ENDROOT
BRANCH   2   5
ATOM      5  C   UNL     1       1.011  -8.278   6.821  0.00  0.00    +0.071 C 
ATOM      6  C   UNL     1       0.557  -9.376   5.855  0.00  0.00    -0.006 C 
ATOM      7  C   UNL     1       1.442 -10.611   6.043  0.00  0.00    -0.078 C 
ATOM      8  N   UNL     1       1.327 -11.094   7.425  0.00  0.00    +0.382 N 
ATOM      9  C   UNL     1       1.828 -10.072   8.353  0.00  0.00    -0.078 C 
ATOM     10  C   UNL     1       0.958  -8.817   8.253  0.00  0.00    -0.006 C 
ATOM     11  H   UNL     1       0.359 -11.289   7.632  0.00  0.00    -0.081 HD
BRANCH   8  12
ATOM     12  C   UNL     1       2.116 -12.323   7.579  0.00  0.00    -0.042 C 
BRANCH  12  13
ATOM     13  C   UNL     1       1.901 -12.887   8.960  0.00  0.00    -0.056 A 
ATOM     14  C   UNL     1       2.822 -12.669   9.939  0.00  0.00    +0.002 A 
ATOM     15  C   UNL     1       2.641 -13.183  11.221  0.00  0.00    +0.001 A 
ATOM     16  C   UNL     1       1.538 -13.918  11.533  0.00  0.00    +0.008 A 
ATOM     17  C   UNL     1       0.566 -14.164  10.549  0.00  0.00    -0.018 A 
ATOM     18  C   UNL     1       0.747 -13.636   9.246  0.00  0.00    -0.017 A 
ATOM     19  C   UNL     1      -0.228 -13.877   8.263  0.00  0.00    +0.009 A 
ATOM     20  C   UNL     1      -1.334 -14.606   8.576  0.00  0.00    +0.001 A 
ATOM     21  C   UNL     1      -1.515 -15.120   9.859  0.00  0.00    +0.001 A 
ATOM     22  C   UNL     1      -0.585 -14.918  10.833  0.00  0.00    +0.008 A 
ENDBRANCH  12  13
ENDBRANCH   8  12
ENDBRANCH   2   5
BRANCH   1  23
ATOM     23  C   UNL     1      -0.909  -5.288   5.396  0.00  0.00    +0.100 C 
ATOM     24  C   UNL     1      -2.333  -5.768   5.107  0.00  0.00    +0.033 C 
BRANCH  23  28
ATOM     25  C   UNL     1       0.431  -2.790   2.198  0.00  0.00    +0.030 A 
ATOM     26  C   UNL     1      -0.037  -2.222   3.375  0.00  0.00    +0.023 A 
ATOM     27  C   UNL     1      -0.470  -3.032   4.407  0.00  0.00    +0.007 A 
ATOM     28  C   UNL     1      -0.437  -4.407   4.268  0.00  0.00    -0.027 A 
ATOM     29  C   UNL     1       0.029  -4.976   3.097  0.00  0.00    +0.007 A 
ATOM     30  C   UNL     1       0.458  -4.172   2.060  0.00  0.00    +0.023 A 
BRANCH  25  36
ATOM     31  C   UNL     1       3.428  -2.393  -1.607  0.00  0.00    +0.009 C 
ATOM     32  C   UNL     1       2.839  -1.894  -0.286  0.00  0.00    +0.003 C 
ATOM     33  C   UNL     1       2.657  -0.376  -0.349  0.00  0.00    +0.006 C 
ATOM     34  C   UNL     1       2.098   0.128   0.984  0.00  0.00    +0.019 C 
ATOM     35  C   UNL     1       0.729  -0.513   1.234  0.00  0.00    +0.105 C 
ATOM     36  N   UNL     1       0.869  -1.973   1.153  0.00  0.00    -0.330 N 
ATOM     37  C   UNL     1       1.479  -2.559  -0.049  0.00  0.00    +0.108 C 
ENDBRANCH  25  36
ENDBRANCH  23  28
ENDBRANCH   1  23
TORSDOF 6
