REMARK  Name = ZINC36569693
REMARK  3 active torsions:
REMARK  status: ('A' for Active; 'I' for Inactive)
REMARK    1  A    between atoms: C_12  and  C_16
REMARK    2  A    between atoms: C_22  and  C_25
REMARK    3  A    between atoms: C_25  and  N_27
REMARK                            x       y       z     vdW  Elec       q    Type
REMARK                         _______ _______ _______ _____ _____    ______ ____
ROOT
ATOM      1  C   UNL     1       4.856  -3.522   1.064  0.00  0.00    +0.237 C 
ATOM      2  O   UNL     1       5.513  -2.502   1.033  0.00  0.00    -0.274 OA
ATOM      3  N   UNL     1       5.405  -4.663   1.524  0.00  0.00    -0.299 N 
ATOM      4  C   UNL     1       4.623  -5.907   1.561  0.00  0.00    +0.108 C 
ATOM      5  C   UNL     1       5.401  -7.001   0.823  0.00  0.00    +0.020 C 
ATOM      6  C   UNL     1       6.803  -7.120   1.427  0.00  0.00    +0.016 C 
ATOM      7  C   UNL     1       7.549  -5.796   1.254  0.00  0.00    +0.094 C 
ATOM      8  C   UNL     1       6.797  -4.690   1.991  0.00  0.00    +0.120 C 
ENDROOT
BRANCH   1  19
ATOM      9  C   UNL     1       0.033   1.422  -0.088  0.00  0.00    +0.000 A 
ATOM     10  C   UNL     1       1.223   2.128  -0.099  0.00  0.00    +0.001 A 
ATOM     11  C   UNL     1       2.428   1.458  -0.095  0.00  0.00    +0.013 A 
ATOM     12  C   UNL     1       2.449   0.062  -0.078  0.00  0.00    +0.043 A 
ATOM     13  C   UNL     1       1.240  -0.642  -0.089  0.00  0.00    -0.005 A 
ATOM     14  C   UNL     1       0.044   0.038  -0.083  0.00  0.00    +0.007 A 
ATOM     15  C   UNL     1       1.604  -2.097  -0.133  0.00  0.00    +0.166 C 
ATOM     16  N   UNL     1       3.068  -2.155   0.139  0.00  0.00    -0.269 N 
ATOM     17  C   UNL     1       3.554  -0.916  -0.051  0.00  0.00    +0.249 C 
ATOM     18  O   UNL     1       4.731  -0.642  -0.183  0.00  0.00    -0.270 OA
ATOM     19  C   UNL     1       3.426  -3.511   0.588  0.00  0.00    +0.174 C 
ATOM     20  C   UNL     1       2.489  -3.936   1.754  0.00  0.00    +0.103 C 
ATOM     21  S   UNL     1       0.946  -2.982   1.338  0.00  0.00    -0.131 S 
ENDBRANCH   1  19
BRANCH   7  22
ATOM     22  C   UNL     1       8.940  -5.925   1.819  0.00  0.00    +0.244 C 
ATOM     23  O   UNL     1       9.297  -5.199   2.727  0.00  0.00    -0.273 OA
BRANCH  22  24
ATOM     24  N   UNL     1       9.777  -6.832   1.324  0.00  0.00    -0.147 NA
ATOM     25  C   UNL     1      11.037  -6.877   1.750  0.00  0.00    +0.198 A 
ATOM     26  N   UNL     1      11.553  -6.131   2.762  0.00  0.00    -0.326 N 
ATOM     27  H   UNL     1      11.067  -5.480   3.292  0.00  0.00    +0.169 HD
ATOM     28  C   UNL     1      12.896  -6.462   2.907  0.00  0.00    +0.065 A 
ATOM     29  C   UNL     1      13.893  -6.021   3.766  0.00  0.00    +0.028 A 
ATOM     30  C   UNL     1      15.165  -6.548   3.670  0.00  0.00    +0.002 A 
ATOM     31  C   UNL     1      15.452  -7.514   2.720  0.00  0.00    +0.002 A 
ATOM     32  C   UNL     1      14.467  -7.958   1.860  0.00  0.00    +0.028 A 
ATOM     33  C   UNL     1      13.185  -7.436   1.948  0.00  0.00    +0.065 A 
ATOM     34  N   UNL     1      12.010  -7.680   1.245  0.00  0.00    -0.326 N 
ATOM     35  H   UNL     1      11.904  -8.313   0.518  0.00  0.00    +0.169 HD
ENDBRANCH  22  24
ENDBRANCH   7  22
TORSDOF 3
