REMARK  Name = ZINC36303582
REMARK  16 active torsions:
REMARK  status: ('A' for Active; 'I' for Inactive)
REMARK    1  A    between atoms: C_1  and  C_2
REMARK    2  A    between atoms: C_3  and  C_21
REMARK    3  A    between atoms: C_4  and  O_13
REMARK    4  A    between atoms: N_5  and  C_7
REMARK    5  A    between atoms: O_13  and  C_14
REMARK    6  A    between atoms: C_21  and  N_22
REMARK    7  A    between atoms: N_22  and  C_23
REMARK    8  A    between atoms: N_22  and  C_27
REMARK    9  A    between atoms: C_23  and  C_24
REMARK   10  A    between atoms: C_27  and  C_28
REMARK   11  A    between atoms: C_28  and  C_30
REMARK   12  A    between atoms: C_28  and  O_35
REMARK   13  A    between atoms: C_30  and  O_31
REMARK   14  A    between atoms: O_31  and  C_32
REMARK   15  A    between atoms: C_32  and  C_33
REMARK   16  A    between atoms: C_32  and  C_34
REMARK                            x       y       z     vdW  Elec       q    Type
REMARK                         _______ _______ _______ _____ _____    ______ ____
ROOT
ATOM      1  C   UNL     1       1.110   1.480   0.228  0.00  0.00    +0.068 C 
ATOM      2  C   UNL     1       0.718   0.024   0.242  0.00  0.00    +0.065 A 
ATOM      3  C   UNL     1       0.270  -0.712  -0.859  0.00  0.00    +0.021 A 
ATOM      4  C   UNL     1       0.021  -1.982  -0.439  0.00  0.00    +0.225 A 
ATOM      5  N   UNL     1       0.308  -2.035   0.890  0.00  0.00    -0.200 N 
ATOM      6  N   UNL     1       0.746  -0.765   1.285  0.00  0.00    -0.168 NA
ENDROOT
BRANCH   5   7
ATOM      7  C   UNL     1       0.189  -3.162   1.715  0.00  0.00    +0.069 A 
ATOM      8  C   UNL     1      -0.922  -3.988   1.610  0.00  0.00    +0.028 A 
ATOM      9  C   UNL     1      -1.036  -5.098   2.424  0.00  0.00    +0.002 A 
ATOM     10  C   UNL     1      -0.044  -5.387   3.344  0.00  0.00    +0.000 A 
ATOM     11  C   UNL     1       1.064  -4.566   3.451  0.00  0.00    +0.002 A 
ATOM     12  C   UNL     1       1.185  -3.458   2.636  0.00  0.00    +0.028 A 
ENDBRANCH   5   7
BRANCH   4  13
ATOM     13  O   UNL     1      -0.430  -3.007  -1.205  0.00  0.00    -0.436 OA
BRANCH  13  14
ATOM     14  C   UNL     1      -1.773  -3.136  -1.371  0.00  0.00    +0.149 A 
ATOM     15  C   UNL     1      -2.632  -2.173  -0.861  0.00  0.00    +0.048 A 
ATOM     16  C   UNL     1      -3.996  -2.306  -1.032  0.00  0.00    +0.004 A 
ATOM     17  C   UNL     1      -4.507  -3.398  -1.710  0.00  0.00    +0.002 A 
ATOM     18  C   UNL     1      -3.654  -4.359  -2.219  0.00  0.00    +0.024 A 
ATOM     19  C   UNL     1      -2.287  -4.228  -2.057  0.00  0.00    +0.083 A 
ATOM     20 CL   UNL     1      -1.216  -5.431  -2.703  0.00  0.00    -0.080 Cl
ENDBRANCH  13  14
ENDBRANCH   4  13
BRANCH   3  21
ATOM     21  C   UNL     1       0.092  -0.192  -2.262  0.00  0.00    -0.036 C 
BRANCH  21  22
ATOM     22  N   UNL     1       1.377  -0.251  -2.972  0.00  0.00    +0.384 N 
ATOM     23  H   UNL     1       2.079   0.242  -2.440  0.00  0.00    -0.081 HD
BRANCH  22  24
ATOM     24  C   UNL     1       1.235   0.374  -4.293  0.00  0.00    -0.075 C 
BRANCH  24  25
ATOM     25  C   UNL     1       0.949   1.868  -4.123  0.00  0.00    -0.028 C 
ATOM     26  C   UNL     1      -0.389   2.395  -4.645  0.00  0.00    +0.002 C 
ATOM     27  C   UNL     1       0.906   2.728  -5.388  0.00  0.00    +0.002 C 
ENDBRANCH  24  25
ENDBRANCH  22  24
BRANCH  22  28
ATOM     28  C   UNL     1       1.782  -1.653  -3.135  0.00  0.00    -0.044 C 
BRANCH  28  29
ATOM     29  C   UNL     1       3.177  -1.712  -3.762  0.00  0.00    +0.124 C 
BRANCH  29  30
ATOM     30  O   UNL     1       4.129  -1.146  -2.860  0.00  0.00    -0.391 OA
ATOM     31  H   UNL     1       4.181  -1.599  -2.007  0.00  0.00    +0.210 HD
ENDBRANCH  29  30
BRANCH  29  32
ATOM     32  C   UNL     1       3.547  -3.169  -4.047  0.00  0.00    +0.189 C 
BRANCH  32  33
ATOM     33  O   UNL     1       4.797  -3.216  -4.737  0.00  0.00    -0.375 OA
BRANCH  33  34
ATOM     34  C   UNL     1       5.237  -4.539  -5.053  0.00  0.00    +0.112 C 
ATOM     35  C   UNL     1       4.699  -4.941  -6.428  0.00  0.00    +0.037 C 
ATOM     36  C   UNL     1       6.767  -4.576  -5.073  0.00  0.00    +0.037 C 
ENDBRANCH  33  34
ENDBRANCH  32  33
ENDBRANCH  29  32
ENDBRANCH  28  29
ENDBRANCH  22  28
ENDBRANCH  21  22
ENDBRANCH   3  21
TORSDOF 13
