REMARK  Name = ZINC21196931
REMARK  11 active torsions:
REMARK  status: ('A' for Active; 'I' for Inactive)
REMARK    1  A    between atoms: C_1  and  C_2
REMARK    2  A    between atoms: C_2  and  N_3
REMARK    3  A    between atoms: N_3  and  C_4
REMARK    4  A    between atoms: N_3  and  C_6
REMARK    5  A    between atoms: C_4  and  C_5
REMARK    6  A    between atoms: C_9  and  S_25
REMARK    7  A    between atoms: C_11  and  N_12
REMARK    8  A    between atoms: C_13  and  C_15
REMARK    9  A    between atoms: C_15  and  C_16
REMARK   10  A    between atoms: C_21  and  N_22
REMARK   11  A    between atoms: S_25  and  N_28
REMARK                            x       y       z     vdW  Elec       q    Type
REMARK                         _______ _______ _______ _____ _____    ______ ____
ROOT
ATOM      1  C   UNL     1       5.530  -2.136  -4.237  0.00  0.00    +0.051 A 
ATOM      2  C   UNL     1       4.467  -2.888  -3.757  0.00  0.00    +0.027 A 
ATOM      3  C   UNL     1       3.899  -2.581  -2.535  0.00  0.00    +0.030 A 
ATOM      4  C   UNL     1       4.380  -1.518  -1.793  0.00  0.00    +0.107 A 
ATOM      5  C   UNL     1       5.439  -0.763  -2.263  0.00  0.00    +0.053 A 
ATOM      6  C   UNL     1       6.018  -1.068  -3.485  0.00  0.00    +0.057 A 
ENDROOT
BRANCH   6   7
ATOM      7  N   UNL     1       7.091  -0.304  -3.964  0.00  0.00    -0.284 N 
ATOM      8  C   UNL     1       7.813   0.452  -3.113  0.00  0.00    +0.222 C 
ATOM      9  O   UNL     1       7.595   0.399  -1.921  0.00  0.00    -0.275 OA
ATOM     10  H   UNL     1       7.344  -0.321  -5.034  0.00  0.00    +0.155 HD
BRANCH   8  11
ATOM     11  C   UNL     1       8.890   1.363  -3.642  0.00  0.00    +0.133 C 
BRANCH  11  12
ATOM     12  C   UNL     1       9.541   2.091  -2.494  0.00  0.00    -0.008 A 
ATOM     13  C   UNL     1       9.110   3.357  -2.145  0.00  0.00    +0.006 A 
ATOM     14  C   UNL     1       9.704   4.022  -1.089  0.00  0.00    +0.000 A 
ATOM     15  C   UNL     1      10.737   3.426  -0.389  0.00  0.00    +0.002 A 
ATOM     16  C   UNL     1      11.172   2.163  -0.742  0.00  0.00    +0.033 A 
ATOM     17  C   UNL     1      10.574   1.495  -1.795  0.00  0.00    +0.130 A 
BRANCH  17  18
ATOM     18  N   UNL     1      11.040   0.142  -2.173  0.00  0.00    +0.057 N 
ATOM     19  O   UNL     1      10.237  -0.703  -2.525  0.00  0.00    -0.126 OA
ATOM     20  O   UNL     1      12.228  -0.127  -2.133  0.00  0.00    -0.126 OA
ENDBRANCH  17  18
ENDBRANCH  11  12
ENDBRANCH   8  11
ENDBRANCH   6   7
BRANCH   4  21
ATOM     21  S   UNL     1       3.646  -1.129  -0.239  0.00  0.00    +0.061 S 
ATOM     22  O   UNL     1       4.631  -0.436   0.514  0.00  0.00    -0.153 OA
ATOM     23  O   UNL     1       3.028  -2.320   0.228  0.00  0.00    -0.153 OA
BRANCH  21  24
ATOM     24  N   UNL     1       2.426  -0.047  -0.531  0.00  0.00    -0.177 NA
ATOM     25  C   UNL     1       1.061  -0.515  -0.808  0.00  0.00    +0.109 C 
ATOM     26  C   UNL     1       0.583   0.110  -2.123  0.00  0.00    +0.017 C 
ATOM     27  C   UNL     1       0.721   1.632  -2.039  0.00  0.00    +0.003 C 
ATOM     28  C   UNL     1       2.192   2.002  -1.835  0.00  0.00    +0.017 C 
ATOM     29  C   UNL     1       2.688   1.398  -0.517  0.00  0.00    +0.109 C 
ENDBRANCH  21  24
ENDBRANCH   4  21
BRANCH   1  30
ATOM     30  N   UNL     1       6.110  -2.449  -5.471  0.00  0.00    -0.329 N 
BRANCH  30  32
ATOM     31  C   UNL     1       7.860  -3.885  -4.537  0.00  0.00    +0.024 C 
ATOM     32  C   UNL     1       6.648  -3.816  -5.468  0.00  0.00    +0.102 C 
ENDBRANCH  30  32
BRANCH  30  33
ATOM     33  C   UNL     1       5.150  -2.263  -6.567  0.00  0.00    +0.102 C 
ATOM     34  C   UNL     1       5.899  -2.219  -7.900  0.00  0.00    +0.024 C 
ENDBRANCH  30  33
ENDBRANCH   1  30
TORSDOF 9
