REMARK  Name = ZINC15002253
REMARK  8 active torsions:
REMARK  status: ('A' for Active; 'I' for Inactive)
REMARK    1  A    between atoms: C_1  and  C_2
REMARK    2  A    between atoms: C_2  and  C_3
REMARK    3  A    between atoms: C_2  and  C_4
REMARK    4  A    between atoms: C_2  and  C_5
REMARK    5  A    between atoms: C_8  and  S_11
REMARK    6  A    between atoms: S_11  and  N_14
REMARK    7  A    between atoms: C_17  and  C_20
REMARK    8  A    between atoms: N_22  and  C_23
REMARK                            x       y       z     vdW  Elec       q    Type
REMARK                         _______ _______ _______ _____ _____    ______ ____
ROOT
ATOM      1  N   UNL     1       1.330   2.028  -0.021  0.00  0.00    -0.177 NA
ATOM      2  C   UNL     1      -0.051   1.527  -0.011  0.00  0.00    +0.110 C 
ATOM      3  C   UNL     1      -0.020  -0.005  -0.012  0.00  0.00    +0.030 C 
ATOM      4  C   UNL     1       0.817  -0.493  -1.197  0.00  0.00    +0.078 C 
ATOM      5  C   UNL     1       2.252   0.019  -1.055  0.00  0.00    +0.030 C 
ATOM      6  C   UNL     1       2.246   1.551  -1.065  0.00  0.00    +0.110 C 
ENDROOT
BRANCH   4   7
ATOM      7  C   UNL     1       0.822  -2.000  -1.222  0.00  0.00    +0.220 C 
ATOM      8  O   UNL     1       0.216  -2.622  -0.375  0.00  0.00    -0.275 OA
ATOM      9  N   UNL     1       1.500  -2.656  -2.184  0.00  0.00    -0.283 N 
ATOM     10  H   UNL     1       1.930  -2.160  -2.898  0.00  0.00    +0.155 HD
BRANCH   9  11
ATOM     11  C   UNL     1       1.582  -4.054  -2.154  0.00  0.00    +0.072 A 
ATOM     12  C   UNL     1       0.512  -4.804  -1.685  0.00  0.00    +0.029 A 
ATOM     13  C   UNL     1       0.595  -6.183  -1.654  0.00  0.00    +0.043 A 
ATOM     14  C   UNL     1       1.743  -6.819  -2.093  0.00  0.00    +0.161 A 
ATOM     15  C   UNL     1       2.814  -6.075  -2.563  0.00  0.00    +0.195 A 
ATOM     16  C   UNL     1       2.733  -4.693  -2.599  0.00  0.00    +0.182 A 
ATOM     17  F   UNL     1       3.774  -3.967  -3.063  0.00  0.00    -0.200 F 
ATOM     18  F   UNL     1       3.933  -6.698  -2.991  0.00  0.00    -0.199 F 
ATOM     19  F   UNL     1       1.820  -8.168  -2.062  0.00  0.00    -0.202 F 
ENDBRANCH   9  11
ENDBRANCH   4   7
BRANCH   1  20
ATOM     20  S   UNL     1       1.843   3.109   1.124  0.00  0.00    +0.061 S 
ATOM     21  O   UNL     1       2.947   3.804   0.560  0.00  0.00    -0.153 OA
ATOM     22  O   UNL     1       0.684   3.779   1.599  0.00  0.00    -0.153 OA
BRANCH  20  26
ATOM     23  C   UNL     1       3.467   0.708   4.601  0.00  0.00    -0.042 A 
ATOM     24  C   UNL     1       4.306   1.086   3.570  0.00  0.00    +0.006 A 
ATOM     25  C   UNL     1       3.811   1.819   2.508  0.00  0.00    +0.029 A 
ATOM     26  C   UNL     1       2.475   2.174   2.477  0.00  0.00    +0.105 A 
ATOM     27  C   UNL     1       1.636   1.800   3.510  0.00  0.00    +0.029 A 
ATOM     28  C   UNL     1       2.131   1.063   4.570  0.00  0.00    +0.006 A 
BRANCH  23  30
ATOM     29  C   UNL     1       5.113   0.703   6.455  0.00  0.00    +0.015 C 
ATOM     30  C   UNL     1       4.007  -0.092   5.758  0.00  0.00    -0.013 C 
ATOM     31  C   UNL     1       2.879  -0.376   6.753  0.00  0.00    +0.015 C 
ATOM     32  C   UNL     1       4.577  -1.415   5.242  0.00  0.00    +0.015 C 
ENDBRANCH  23  30
ENDBRANCH  20  26
ENDBRANCH   1  20
TORSDOF 5
