REMARK  Name = ZINC31169640
REMARK  5 active torsions:
REMARK  status: ('A' for Active; 'I' for Inactive)
REMARK    1  A    between atoms: C_1  and  C_2
REMARK    2  A    between atoms: C_6  and  C_18
REMARK    3  A    between atoms: C_6  and  C_19
REMARK    4  A    between atoms: C_10  and  O_17
REMARK    5  A    between atoms: C_12  and  C_14
REMARK                            x       y       z     vdW  Elec       q    Type
REMARK                         _______ _______ _______ _____ _____    ______ ____
ROOT
ATOM      1  C   UNL     1      -0.009   1.526  -0.011  0.00  0.00    +0.016 C 
ATOM      2  C   UNL     1       0.011  -0.004  -0.018  0.00  0.00    -0.010 C 
ATOM      3  C   UNL     1       0.610  -0.504  -1.337  0.00  0.00    +0.011 C 
ATOM      4  C   UNL     1       2.064  -0.048  -1.455  0.00  0.00    +0.001 C 
ATOM      5  C   UNL     1       2.871  -0.641  -0.297  0.00  0.00    +0.007 C 
ATOM      6  C   UNL     1       2.300  -0.122   1.024  0.00  0.00    -0.031 C 
ATOM      7  C   UNL     1       0.844  -0.511   1.157  0.00  0.00    +0.007 C 
ATOM      8  C   UNL     1       0.699  -2.031   1.248  0.00  0.00    +0.041 C 
ATOM      9  C   UNL     1      -0.735  -2.352   1.678  0.00  0.00    +0.152 C 
ATOM     10  C   UNL     1      -1.714  -1.568   0.854  0.00  0.00    +0.065 C 
ATOM     11  C   UNL     1      -1.395  -0.529   0.109  0.00  0.00    -0.007 C 
ATOM     12  C   UNL     1       3.095  -0.716   2.188  0.00  0.00    +0.011 C 
ATOM     13  C   UNL     1       2.415   1.403   1.062  0.00  0.00    +0.011 C 
ENDROOT
BRANCH  10  14
ATOM     14  C   UNL     1      -3.120  -1.986   0.880  0.00  0.00    +0.385 C 
ATOM     15  O   UNL     1      -3.952  -1.375   0.223  0.00  0.00    -0.241 OA
ATOM     16  O   UNL     1      -3.460  -2.946   1.559  0.00  0.00    -0.241 OA
ENDBRANCH  10  14
BRANCH   9  17
ATOM     17  O   UNL     1      -0.982  -3.748   1.498  0.00  0.00    -0.387 OA
ATOM     18  H   UNL     1      -1.873  -4.025   1.750  0.00  0.00    +0.210 HD
ENDBRANCH   9  17
TORSDOF 2
