REMARK  Name = ZINC21889053
REMARK  8 active torsions:
REMARK  status: ('A' for Active; 'I' for Inactive)
REMARK    1  A    between atoms: C_1  and  C_2
REMARK    2  A    between atoms: C_2  and  O_3
REMARK    3  A    between atoms: O_3  and  C_4
REMARK    4  A    between atoms: C_7  and  C_10
REMARK    5  A    between atoms: N_27  and  C_28
REMARK    6  A    between atoms: C_33  and  C_34
REMARK    7  A    between atoms: C_34  and  O_36
REMARK    8  A    between atoms: O_36  and  C_37
REMARK                            x       y       z     vdW  Elec       q    Type
REMARK                         _______ _______ _______ _____ _____    ______ ____
ROOT
ATOM      1  C   UNL     1       1.597  -0.128   6.244  0.00  0.00    +0.155 C 
ATOM      2  C   UNL     1       1.176  -1.540   6.560  0.00  0.00    +0.049 A 
ATOM      3  C   UNL     1       0.713  -2.032   7.720  0.00  0.00    +0.025 A 
ATOM      4  C   UNL     1       0.457  -3.406   7.522  0.00  0.00    +0.020 A 
ATOM      5  C   UNL     1       0.775  -3.700   6.242  0.00  0.00    +0.091 A 
ATOM      6  N   UNL     1       1.214  -2.562   5.647  0.00  0.00    -0.318 N 
ATOM      7  C   UNL     1       1.653  -2.362   4.330  0.00  0.00    +0.051 A 
ATOM      8  C   UNL     1       0.941  -2.862   3.253  0.00  0.00    +0.026 A 
ATOM      9  C   UNL     1       1.373  -2.602   1.966  0.00  0.00    +0.002 A 
ATOM     10  C   UNL     1       2.509  -1.841   1.756  0.00  0.00    +0.000 A 
ATOM     11  C   UNL     1       3.233  -1.359   2.832  0.00  0.00    +0.007 A 
ATOM     12  C   UNL     1       2.821  -1.637   4.119  0.00  0.00    -0.006 A 
ATOM     13  C   UNL     1       3.660  -1.233   5.300  0.00  0.00    +0.147 C 
ATOM     14  N   UNL     1       3.058  -0.107   6.037  0.00  0.00    -0.268 N 
ATOM     15  C   UNL     1       3.815   0.905   6.505  0.00  0.00    +0.308 C 
ATOM     16  O   UNL     1       3.312   1.774   7.192  0.00  0.00    -0.252 OA
ATOM     17  N   UNL     1       5.130   0.955   6.212  0.00  0.00    -0.269 N 
ATOM     18  H   UNL     1       5.567   0.221   5.520  0.00  0.00    +0.156 HD
ENDROOT
BRANCH   1  22
ATOM     19  C   UNL     1      -0.374   1.196   2.691  0.00  0.00    +0.121 A 
ATOM     20  C   UNL     1      -1.042   0.381   3.594  0.00  0.00    +0.046 A 
ATOM     21  C   UNL     1      -0.401  -0.051   4.739  0.00  0.00    +0.009 A 
ATOM     22  C   UNL     1       0.902   0.339   4.991  0.00  0.00    -0.021 A 
ATOM     23  C   UNL     1       1.568   1.156   4.096  0.00  0.00    +0.009 A 
ATOM     24  C   UNL     1       0.933   1.585   2.947  0.00  0.00    +0.046 A 
BRANCH  19  25
ATOM     25  O   UNL     1      -1.001   1.617   1.561  0.00  0.00    -0.492 OA
BRANCH  25  27
ATOM     26  C   UNL     1      -2.881   1.749   0.049  0.00  0.00    +0.048 C 
ATOM     27  C   UNL     1      -2.346   1.178   1.363  0.00  0.00    +0.225 C 
ENDBRANCH  25  27
ENDBRANCH  19  25
ENDBRANCH   1  22
BRANCH  17  28
ATOM     28  C   UNL     1       5.935   1.935   6.787  0.00  0.00    +0.049 A 
ATOM     29  C   UNL     1       5.478   3.243   6.886  0.00  0.00    +0.024 A 
ATOM     30  C   UNL     1       6.275   4.212   7.461  0.00  0.00    +0.002 A 
ATOM     31  C   UNL     1       7.539   3.893   7.932  0.00  0.00    +0.001 A 
ATOM     32  C   UNL     1       8.011   2.602   7.836  0.00  0.00    +0.017 A 
ATOM     33  C   UNL     1       7.214   1.609   7.262  0.00  0.00    +0.080 A 
BRANCH  33  34
ATOM     34  C   UNL     1       7.713   0.226   7.156  0.00  0.00    +0.341 C 
ATOM     35  O   UNL     1       7.044  -0.621   6.598  0.00  0.00    -0.245 OA
BRANCH  34  36
ATOM     36  O   UNL     1       8.912  -0.099   7.678  0.00  0.00    -0.464 OA
ATOM     37  C   UNL     1       9.341  -1.479   7.537  0.00  0.00    +0.280 C 
ENDBRANCH  34  36
ENDBRANCH  33  34
ENDBRANCH  17  28
TORSDOF 6
