REMARK  Name = ZINC35033323
REMARK  5 active torsions:
REMARK  status: ('A' for Active; 'I' for Inactive)
REMARK    1  A    between atoms: C_1  and  C_2
REMARK    2  A    between atoms: N_5  and  C_18
REMARK    3  A    between atoms: C_9  and  C_11
REMARK    4  A    between atoms: C_18  and  C_20
REMARK    5  A    between atoms: C_18  and  C_21
REMARK                            x       y       z     vdW  Elec       q    Type
REMARK                         _______ _______ _______ _____ _____    ______ ____
ROOT
ATOM      1  C   UNL     1      -0.128   1.766   0.024  0.00  0.00    +0.026 C 
ATOM      2  C   UNL     1       0.401   0.406  -0.436  0.00  0.00    +0.057 C 
ATOM      3  C   UNL     1       1.359   0.598  -1.616  0.00  0.00    -0.055 C 
ATOM      4  N   UNL     1       1.968  -0.692  -1.966  0.00  0.00    +0.388 N 
ATOM      5  C   UNL     1       2.800  -1.169  -0.855  0.00  0.00    -0.059 C 
ATOM      6  C   UNL     1       1.914  -1.449   0.363  0.00  0.00    +0.090 C 
ATOM      7  N   UNL     1       1.134  -0.238   0.665  0.00  0.00    -0.298 N 
ATOM      8  C   UNL     1       1.097   0.270   1.913  0.00  0.00    +0.247 C 
ATOM      9  O   UNL     1       0.386   1.225   2.159  0.00  0.00    -0.270 OA
ATOM     10  H   UNL     1       1.240  -1.366  -2.154  0.00  0.00    -0.081 HD
ENDROOT
BRANCH   8  11
ATOM     11  C   UNL     1       1.920  -0.334   2.982  0.00  0.00    +0.037 A 
ATOM     12  C   UNL     1       2.156  -1.710   2.991  0.00  0.00    +0.014 A 
ATOM     13  C   UNL     1       2.925  -2.267   3.991  0.00  0.00    +0.016 A 
ATOM     14  C   UNL     1       3.462  -1.466   4.984  0.00  0.00    +0.018 A 
ATOM     15  C   UNL     1       3.231  -0.100   4.980  0.00  0.00    +0.016 A 
ATOM     16  C   UNL     1       2.469   0.470   3.982  0.00  0.00    +0.014 A 
ATOM     17 BR   UNL     1       4.515  -2.238   6.352  0.00  0.00    -0.050 Br
ENDBRANCH   8  11
BRANCH   4  18
ATOM     18  C   UNL     1       2.800  -0.529  -3.165  0.00  0.00    -0.004 C 
ATOM     19  C   UNL     1       3.998   0.365  -2.837  0.00  0.00    -0.005 C 
BRANCH  18  20
ATOM     20  C   UNL     1       3.292  -1.878  -3.623  0.00  0.00    +0.097 A 
ATOM     21  N   UNL     1       2.826  -2.940  -3.026  0.00  0.00    -0.197 NA
ATOM     22  C   UNL     1       3.217  -4.180  -3.378  0.00  0.00    +0.281 A 
ATOM     23  O   UNL     1       2.773  -5.163  -2.811  0.00  0.00    -0.265 OA
ATOM     24  C   UNL     1       4.198  -4.313  -4.470  0.00  0.00    +0.065 A 
ATOM     25  C   UNL     1       4.660  -5.554  -4.903  0.00  0.00    +0.015 A 
ATOM     26  C   UNL     1       5.577  -5.616  -5.929  0.00  0.00    +0.001 A 
ATOM     27  C   UNL     1       6.040  -4.454  -6.530  0.00  0.00    +0.002 A 
ATOM     28  C   UNL     1       5.592  -3.218  -6.112  0.00  0.00    +0.026 A 
ATOM     29  C   UNL     1       4.668  -3.135  -5.080  0.00  0.00    +0.053 A 
ATOM     30  N   UNL     1       4.183  -1.924  -4.628  0.00  0.00    -0.344 N 
ATOM     31  H   UNL     1       4.490  -1.100  -5.037  0.00  0.00    +0.167 HD
ENDBRANCH  18  20
ENDBRANCH   4  18
TORSDOF 3
