REMARK  Name = ZINC14550703
REMARK  2 active torsions:
REMARK  status: ('A' for Active; 'I' for Inactive)
REMARK    1  A    between atoms: C_3  and  N_24
REMARK    2  A    between atoms: C_6  and  C_7
REMARK                            x       y       z     vdW  Elec       q    Type
REMARK                         _______ _______ _______ _____ _____    ______ ____
ROOT
ATOM      1  C   UNL     1      -0.355   3.063   1.478  0.00  0.00    +0.105 C 
ATOM      2  C   UNL     1      -0.801   1.617   1.241  0.00  0.00    +0.029 C 
ATOM      3  C   UNL     1      -0.013   1.086   0.008  0.00  0.00    +0.033 C 
ATOM      4  C   UNL     1      -0.803   1.616  -1.173  0.00  0.00    -0.030 C 
ATOM      5  C   UNL     1      -2.032   1.896  -0.814  0.00  0.00    -0.023 C 
ATOM      6  C   UNL     1      -2.230   1.596   0.653  0.00  0.00    +0.049 C 
ATOM      7  C   UNL     1      -3.140   2.593   1.296  0.00  0.00    -0.018 A 
ATOM      8  C   UNL     1      -4.501   2.507   1.061  0.00  0.00    +0.026 A 
ATOM      9  C   UNL     1      -5.375   3.408   1.638  0.00  0.00    +0.041 A 
ATOM     10  C   UNL     1      -4.899   4.407   2.468  0.00  0.00    +0.022 A 
ATOM     11  C   UNL     1      -3.545   4.502   2.719  0.00  0.00    +0.024 A 
ATOM     12  C   UNL     1      -2.665   3.596   2.139  0.00  0.00    +0.031 A 
ATOM     13  N   UNL     1      -1.295   3.705   2.402  0.00  0.00    -0.336 N 
ATOM     14 CL   UNL     1      -7.077   3.284   1.321  0.00  0.00    -0.084 Cl
ATOM     15  H   UNL     1      -0.975   4.194   3.176  0.00  0.00    +0.147 HD
ENDROOT
BRANCH   1  21
ATOM     16  C   UNL     1      -1.528   4.292  -0.360  0.00  0.00    +0.008 A 
ATOM     17  C   UNL     1      -1.518   4.980  -1.560  0.00  0.00    +0.033 A 
ATOM     18  C   UNL     1      -0.328   5.177  -2.234  0.00  0.00    +0.126 A 
ATOM     19  C   UNL     1       0.854   4.689  -1.708  0.00  0.00    +0.033 A 
ATOM     20  C   UNL     1       0.845   4.005  -0.507  0.00  0.00    +0.008 A 
ATOM     21  C   UNL     1      -0.345   3.809   0.168  0.00  0.00    -0.027 A 
BRANCH  18  22
ATOM     22  N   UNL     1      -0.319   5.910  -3.520  0.00  0.00    +0.056 N 
ATOM     23  O   UNL     1       0.730   6.083  -4.114  0.00  0.00    -0.126 OA
ATOM     24  O   UNL     1      -1.360   6.340  -3.983  0.00  0.00    -0.126 OA
ENDBRANCH  18  22
ENDBRANCH   1  21
TORSDOF 2
