REMARK  Name = ZINC39532624
REMARK  12 active torsions:
REMARK  status: ('A' for Active; 'I' for Inactive)
REMARK    1  A    between atoms: C_1  and  C_2
REMARK    2  A    between atoms: C_2  and  C_3
REMARK    3  A    between atoms: C_3  and  C_4
REMARK    4  A    between atoms: C_7  and  C_10
REMARK    5  A    between atoms: C_10  and  C_12
REMARK    6  A    between atoms: C_10  and  N_24
REMARK    7  A    between atoms: C_12  and  N_13
REMARK    8  A    between atoms: N_13  and  S_14
REMARK    9  A    between atoms: S_14  and  O_17
REMARK   10  A    between atoms: O_17  and  C_18
REMARK   11  A    between atoms: C_28  and  C_31
REMARK   12  A    between atoms: C_31  and  C_32
REMARK                            x       y       z     vdW  Elec       q    Type
REMARK                         _______ _______ _______ _____ _____    ______ ____
ROOT
ATOM      1  C   UNL     1       0.983  -6.615  -1.111  0.00  0.00    -0.060 C 
ENDROOT
BRANCH   1   2
ATOM      2  N   UNL     1      -0.096  -7.606  -1.002  0.00  0.00    +0.381 N 
ATOM      3  C   UNL     1      -1.024  -7.204   0.063  0.00  0.00    -0.098 C 
ATOM      4  C   UNL     1      -2.147  -8.237   0.177  0.00  0.00    -0.101 C 
ATOM      5  N   UNL     1      -1.574  -9.551   0.498  0.00  0.00    +0.379 N 
ATOM      6  C   UNL     1      -0.646  -9.953  -0.567  0.00  0.00    -0.085 C 
ATOM      7  C   UNL     1       0.478  -8.920  -0.681  0.00  0.00    -0.094 C 
ATOM      8  H   UNL     1      -1.077  -9.496   1.375  0.00  0.00    -0.086 HD
ATOM      9  H   UNL     1      -2.315 -10.232   0.573  0.00  0.00    -0.086 HD
ATOM     10  H   UNL     1      -0.593  -7.661  -1.878  0.00  0.00    -0.081 HD
BRANCH   6  11
ATOM     11  C   UNL     1      -0.049 -11.321  -0.233  0.00  0.00    +0.017 C 
BRANCH  11  12
ATOM     12  C   UNL     1      -1.144 -12.356  -0.211  0.00  0.00    -0.049 A 
ATOM     13  C   UNL     1      -1.784 -12.660   0.976  0.00  0.00    +0.003 A 
ATOM     14  C   UNL     1      -2.789 -13.609   0.996  0.00  0.00    +0.000 A 
ATOM     15  C   UNL     1      -3.155 -14.253  -0.171  0.00  0.00    +0.000 A 
ATOM     16  C   UNL     1      -2.516 -13.948  -1.358  0.00  0.00    +0.000 A 
ATOM     17  C   UNL     1      -1.514 -12.996  -1.379  0.00  0.00    +0.003 A 
ENDBRANCH  11  12
ENDBRANCH   6  11
ENDBRANCH   1   2
BRANCH   1  21
ATOM     18  C   UNL     1      -0.681  -2.798  -2.064  0.00  0.00    -0.047 A 
ATOM     19  C   UNL     1       0.360  -2.892  -1.159  0.00  0.00    +0.004 A 
ATOM     20  C   UNL     1       0.898  -4.127  -0.851  0.00  0.00    +0.002 A 
ATOM     21  C   UNL     1       0.395  -5.269  -1.447  0.00  0.00    -0.063 A 
ATOM     22  C   UNL     1      -0.646  -5.175  -2.351  0.00  0.00    +0.002 A 
ATOM     23  C   UNL     1      -1.188  -3.940  -2.656  0.00  0.00    +0.004 A 
BRANCH  18  24
ATOM     24  C   UNL     1      -1.268  -1.451  -2.400  0.00  0.00    +0.035 C 
BRANCH  24  26
ATOM     25  C   UNL     1      -3.007   0.230  -1.774  0.00  0.00    +0.004 C 
ATOM     26  C   UNL     1      -2.411  -1.137  -1.433  0.00  0.00    +0.001 C 
ENDBRANCH  24  26
ENDBRANCH  18  24
ENDBRANCH   1  21
BRANCH   1  27
ATOM     27  C   UNL     1       1.953  -7.038  -2.216  0.00  0.00    -0.121 C 
BRANCH  27  28
ATOM     28  N   UNL     1       3.073  -6.094  -2.269  0.00  0.00    +0.491 NA
BRANCH  28  29
ATOM     29  S   UNL     1       4.218  -6.234  -3.458  0.00  0.00    +0.066 S 
ATOM     30  O   UNL     1       4.734  -7.556  -3.371  0.00  0.00    -0.159 OA
ATOM     31  O   UNL     1       3.634  -5.721  -4.647  0.00  0.00    -0.159 OA
BRANCH  29  32
ATOM     32  O   UNL     1       5.361  -5.297  -3.095  0.00  0.00    -0.362 OA
BRANCH  32  33
ATOM     33  C   UNL     1       6.119  -5.727  -2.052  0.00  0.00    +0.154 A 
ATOM     34  C   UNL     1       5.726  -5.458  -0.749  0.00  0.00    +0.048 A 
ATOM     35  C   UNL     1       6.499  -5.897   0.308  0.00  0.00    +0.004 A 
ATOM     36  C   UNL     1       7.663  -6.604   0.069  0.00  0.00    +0.000 A 
ATOM     37  C   UNL     1       8.057  -6.873  -1.228  0.00  0.00    +0.004 A 
ATOM     38  C   UNL     1       7.285  -6.441  -2.289  0.00  0.00    +0.048 A 
ENDBRANCH  32  33
ENDBRANCH  29  32
ENDBRANCH  28  29
ENDBRANCH  27  28
ENDBRANCH   1  27
TORSDOF 11
