REMARK  Name = ZINC32124751
REMARK  8 active torsions:
REMARK  status: ('A' for Active; 'I' for Inactive)
REMARK    1  A    between atoms: C_1  and  C_2
REMARK    2  A    between atoms: C_5  and  S_8
REMARK    3  A    between atoms: S_8  and  C_9
REMARK    4  A    between atoms: C_12  and  C_18
REMARK    5  A    between atoms: C_14  and  N_15
REMARK    6  A    between atoms: N_24  and  C_25
REMARK    7  A    between atoms: C_28  and  C_32
REMARK    8  A    between atoms: C_30  and  C_31
REMARK                            x       y       z     vdW  Elec       q    Type
REMARK                         _______ _______ _______ _____ _____    ______ ____
ROOT
ATOM      1  C   UNL     1       7.492   4.220   0.229  0.00  0.00    +0.043 A 
ATOM      2  C   UNL     1       6.620   3.146  -0.030  0.00  0.00    +0.018 A 
ATOM      3  C   UNL     1       5.278   3.324   0.056  0.00  0.00    +0.009 A 
ATOM      4  C   UNL     1       4.755   4.596   0.393  0.00  0.00    -0.022 A 
ATOM      5  C   UNL     1       5.637   5.674   0.652  0.00  0.00    +0.041 A 
ATOM      6  C   UNL     1       6.977   5.484   0.570  0.00  0.00    +0.140 A 
ENDROOT
BRANCH   4   7
ATOM      7  C   UNL     1       3.368   4.787   0.476  0.00  0.00    +0.028 C 
ATOM      8  C   UNL     1       2.525   4.228  -0.493  0.00  0.00    +0.078 C 
ATOM      9  C   UNL     1       2.881   3.565  -1.772  0.00  0.00    +0.256 C 
ATOM     10  O   UNL     1       4.038   3.436  -2.123  0.00  0.00    -0.269 OA
ATOM     11  N   UNL     1       1.877   3.115  -2.508  0.00  0.00    -0.260 N 
ATOM     12  C   UNL     1       0.587   3.290  -2.069  0.00  0.00    +0.166 C 
ATOM     13  N   UNL     1      -0.536   2.919  -2.658  0.00  0.00    -0.225 NA
ATOM     14  S   UNL     1       0.792   4.131  -0.510  0.00  0.00    -0.049 S 
ATOM     15  H   UNL     1       2.079   2.607  -3.462  0.00  0.00    +0.157 HD
BRANCH  13  16
ATOM     16  C   UNL     1      -0.494   2.240  -3.819  0.00  0.00    +0.069 A 
ATOM     17  C   UNL     1       0.301   2.704  -4.884  0.00  0.00    +0.028 A 
ATOM     18  C   UNL     1       0.338   2.009  -6.059  0.00  0.00    +0.005 A 
ATOM     19  C   UNL     1      -0.404   0.846  -6.210  0.00  0.00    -0.050 A 
ATOM     20  C   UNL     1      -1.193   0.375  -5.171  0.00  0.00    +0.008 A 
ATOM     21  C   UNL     1      -1.241   1.056  -3.976  0.00  0.00    -0.025 A 
ATOM     22  C   UNL     1      -2.092   0.542  -2.844  0.00  0.00    +0.046 C 
ATOM     23  C   UNL     1      -0.353   0.090  -7.512  0.00  0.00    +0.044 C 
ENDBRANCH  13  16
ENDBRANCH   4   7
BRANCH   6  24
ATOM     24  N   UNL     1       7.900   6.609   0.840  0.00  0.00    +0.058 N 
ATOM     25  O   UNL     1       7.420   7.793   1.160  0.00  0.00    -0.126 OA
ATOM     26  O   UNL     1       9.202   6.426   0.761  0.00  0.00    -0.126 OA
ENDBRANCH   6  24
BRANCH   1  27
ATOM     27  S   UNL     1       9.235   3.981   0.124  0.00  0.00    -0.087 S 
BRANCH  27  32
ATOM     28  C   UNL     1      10.298   6.379  -5.314  0.00  0.00    +0.044 C 
ATOM     29  C   UNL     1      10.032   5.780  -3.956  0.00  0.00    -0.050 A 
ATOM     30  C   UNL     1      11.067   5.198  -3.245  0.00  0.00    +0.004 A 
ATOM     31  C   UNL     1      10.829   4.649  -2.002  0.00  0.00    +0.015 A 
ATOM     32  C   UNL     1       9.545   4.680  -1.463  0.00  0.00    +0.013 A 
ATOM     33  C   UNL     1       8.505   5.262  -2.186  0.00  0.00    +0.015 A 
ATOM     34  C   UNL     1       8.755   5.814  -3.425  0.00  0.00    +0.004 A 
ENDBRANCH  27  32
ENDBRANCH   1  27
TORSDOF 5
