REMARK  Name = ZINC06783624
REMARK  14 active torsions:
REMARK  status: ('A' for Active; 'I' for Inactive)
REMARK    1  A    between atoms: C_1  and  C_2
REMARK    2  A    between atoms: C_2  and  N_71
REMARK    3  A    between atoms: C_3  and  C_4
REMARK    4  A    between atoms: C_3  and  N_71
REMARK    5  A    between atoms: C_5  and  C_6
REMARK    6  A    between atoms: C_5  and  N_71
REMARK    7  A    between atoms: C_7  and  C_11
REMARK    8  A    between atoms: C_11  and  C_12
REMARK    9  A    between atoms: C_12  and  C_13
REMARK   10  A    between atoms: C_21  and  C_31
REMARK   11  A    between atoms: C_25  and  C_26
REMARK   12  A    between atoms: C_25  and  C_27
REMARK   13  A    between atoms: C_27  and  O_29
REMARK   14  A    between atoms: O_29  and  C_30
REMARK                            x       y       z     vdW  Elec       q    Type
REMARK                         _______ _______ _______ _____ _____    ______ ____
ROOT
ATOM      1  C   UNL     1      -0.192   0.790   0.028  0.00  0.00    +0.021 C 
ATOM      2  C   UNL     1       0.472   2.131   0.239  0.00  0.00    -0.073 C 
ATOM      3  C   UNL     1      -0.239   3.235   0.230  0.00  0.00    +0.008 C 
ATOM      4  C   UNL     1       1.966   2.183   0.455  0.00  0.00    +0.031 C 
ATOM      5  C   UNL     1       2.342   1.171   1.547  0.00  0.00    +0.009 C 
ATOM      6  C   UNL     1       1.773  -0.196   1.169  0.00  0.00    +0.012 C 
ATOM      7  C   UNL     1       0.252  -0.166   1.156  0.00  0.00    -0.022 C 
ATOM      8  C   UNL     1      -0.315  -1.553   0.851  0.00  0.00    +0.007 C 
ATOM      9  C   UNL     1       0.228  -2.577   1.846  0.00  0.00    +0.002 C 
ATOM     10  C   UNL     1       1.744  -2.661   1.710  0.00  0.00    +0.018 C 
ATOM     11  C   UNL     1       2.399  -1.308   1.986  0.00  0.00    +0.068 C 
ATOM     12  C   UNL     1       2.373  -1.016   3.486  0.00  0.00    +0.023 C 
ATOM     13  C   UNL     1      -0.338   0.349   2.469  0.00  0.00    +0.012 C 
ENDROOT
BRANCH  11  14
ATOM     14  C   UNL     1       3.860  -1.443   1.576  0.00  0.00    +0.313 C 
ATOM     15  O   UNL     1       4.314  -0.727   0.715  0.00  0.00    -0.250 OA
BRANCH  14  16
ATOM     16  O   UNL     1       4.643  -2.358   2.170  0.00  0.00    -0.468 OA
ATOM     17  C   UNL     1       6.024  -2.430   1.729  0.00  0.00    +0.280 C 
ENDBRANCH  14  16
ENDBRANCH  11  14
BRANCH   1  18
ATOM     18  C   UNL     1      -1.710   0.969   0.073  0.00  0.00    +0.013 C 
BRANCH  18  19
ATOM     19  C   UNL     1      -2.188   1.603  -1.234  0.00  0.00    +0.039 C 
BRANCH  19  21
ATOM     20  C   UNL     1      -4.491   2.583  -0.752  0.00  0.00    +0.092 A 
ATOM     21  C   UNL     1      -3.695   1.626  -1.261  0.00  0.00    -0.008 A 
ATOM     22  C   UNL     1      -4.543   0.648  -1.830  0.00  0.00    +0.045 A 
ATOM     23  C   UNL     1      -5.806   1.062  -1.627  0.00  0.00    +0.195 A 
ATOM     24  O   UNL     1      -5.769   2.237  -0.977  0.00  0.00    -0.469 OA
BRANCH  20  25
ATOM     25  C   UNL     1      -4.028   3.834  -0.050  0.00  0.00    -0.003 C 
BRANCH  25  26
ATOM     26  N   UNL     1      -4.022   4.980  -0.983  0.00  0.00    +0.384 N 
ATOM     27  H   UNL     1      -3.619   5.796  -0.507  0.00  0.00    -0.081 HD
BRANCH  26  29
ATOM     28  C   UNL     1      -2.916   5.957  -2.933  0.00  0.00    -0.017 C 
ATOM     29  C   UNL     1      -3.198   4.662  -2.169  0.00  0.00    -0.082 C 
ENDBRANCH  26  29
BRANCH  26  30
ATOM     30  C   UNL     1      -5.403   5.300  -1.399  0.00  0.00    -0.082 C 
ATOM     31  C   UNL     1      -6.092   6.062  -0.266  0.00  0.00    -0.017 C 
ENDBRANCH  26  30
ENDBRANCH  25  26
ENDBRANCH  20  25
ENDBRANCH  19  21
ENDBRANCH  18  19
ENDBRANCH   1  18
TORSDOF 9
