REMARK  Name = ZINC08789044
REMARK  6 active torsions:
REMARK  status: ('A' for Active; 'I' for Inactive)
REMARK    1  A    between atoms: C_1  and  O_2
REMARK    2  A    between atoms: O_2  and  C_3
REMARK    3  A    between atoms: C_8  and  C_9
REMARK    4  A    between atoms: C_9  and  N_10
REMARK    5  A    between atoms: C_15  and  C_31
REMARK    6  A    between atoms: C_31  and  C_32
REMARK                            x       y       z     vdW  Elec       q    Type
REMARK                         _______ _______ _______ _____ _____    ______ ____
ROOT
ATOM      1  N   UNL     1       0.507   2.605   2.013  0.00  0.00    -0.237 N 
ATOM      2  C   UNL     1      -0.504   2.021   1.359  0.00  0.00    +0.224 C 
ATOM      3  O   UNL     1      -1.633   1.898   1.783  0.00  0.00    -0.275 OA
ATOM      4  C   UNL     1      -0.019   1.540   0.011  0.00  0.00    +0.073 C 
ATOM      5  C   UNL     1       0.002  -0.004   0.002  0.00  0.00    -0.049 C 
ATOM      6  C   UNL     1       2.250   0.633  -0.036  0.00  0.00    +0.050 C 
ATOM      7  C   UNL     1       1.478   1.958  -0.002  0.00  0.00    +0.088 C 
ATOM      8  C   UNL     1       1.665   2.624   1.343  0.00  0.00    +0.225 C 
ATOM      9  O   UNL     1       2.703   3.100   1.750  0.00  0.00    -0.275 OA
ATOM     10  C   UNL     1       3.498   0.742  -0.864  0.00  0.00    -0.028 A 
ATOM     11  C   UNL     1       3.738   1.066  -2.181  0.00  0.00    +0.004 A 
ATOM     12  C   UNL     1       5.034   1.080  -2.666  0.00  0.00    +0.000 A 
ATOM     13  C   UNL     1       6.087   0.769  -1.825  0.00  0.00    +0.002 A 
ATOM     14  C   UNL     1       5.851   0.445  -0.505  0.00  0.00    +0.023 A 
ATOM     15  C   UNL     1       4.550   0.428  -0.008  0.00  0.00    +0.036 A 
ATOM     16  N   UNL     1       4.064   0.138   1.268  0.00  0.00    -0.286 N 
ATOM     17  C   UNL     1       2.722   0.236   1.335  0.00  0.00    +0.211 C 
ATOM     18  O   UNL     1       2.030   0.042   2.312  0.00  0.00    -0.277 OA
ATOM     19  H   UNL     1       4.627  -0.107   2.019  0.00  0.00    +0.155 HD
ATOM     20  N   UNL     1       1.309  -0.337  -0.570  0.00  0.00    +0.394 N 
ATOM     21  H   UNL     1       1.275  -0.273  -1.594  0.00  0.00    -0.083 HD
ATOM     22  H   UNL     1       1.585  -1.287  -0.295  0.00  0.00    -0.083 HD
ENDROOT
BRANCH   1  23
ATOM     23  C   UNL     1       0.359   3.176   3.354  0.00  0.00    +0.155 C 
BRANCH  23  29
ATOM     24  C   UNL     1      -1.366   4.959   2.990  0.00  0.00    +0.125 A 
ATOM     25  C   UNL     1      -1.734   6.293   2.887  0.00  0.00    +0.046 A 
ATOM     26  C   UNL     1      -0.783   7.284   3.035  0.00  0.00    +0.004 A 
ATOM     27  C   UNL     1       0.535   6.947   3.286  0.00  0.00    +0.001 A 
ATOM     28  C   UNL     1       0.903   5.619   3.393  0.00  0.00    +0.009 A 
ATOM     29  C   UNL     1      -0.044   4.624   3.241  0.00  0.00    +0.012 A 
BRANCH  24  31
ATOM     30  C   UNL     1      -3.642   4.401   2.587  0.00  0.00    +0.277 C 
ATOM     31  O   UNL     1      -2.300   3.983   2.844  0.00  0.00    -0.495 OA
ENDBRANCH  24  31
ENDBRANCH  23  29
ENDBRANCH   1  23
BRANCH   5  32
ATOM     32  C   UNL     1      -1.139  -0.547  -0.860  0.00  0.00    +0.080 C 
BRANCH  32  33
ATOM     33  C   UNL     1      -1.176  -2.050  -0.756  0.00  0.00    +0.209 C 
ATOM     34  O   UNL     1      -0.368  -2.630  -0.061  0.00  0.00    -0.276 OA
ATOM     35  N   UNL     1      -2.106  -2.750  -1.436  0.00  0.00    -0.329 N 
ATOM     36  H   UNL     1      -2.751  -2.287  -1.992  0.00  0.00    +0.145 HD
ATOM     37  H   UNL     1      -2.129  -3.718  -1.369  0.00  0.00    +0.145 HD
ENDBRANCH  32  33
ENDBRANCH   5  32
TORSDOF 5
