REMARK  Name = ZINC04293051
REMARK  11 active torsions:
REMARK  status: ('A' for Active; 'I' for Inactive)
REMARK    1  A    between atoms: C_1  and  C_2
REMARK    2  A    between atoms: C_2  and  C_4
REMARK    3  A    between atoms: C_2  and  C_10
REMARK    4  A    between atoms: C_4  and  C_5
REMARK    5  A    between atoms: C_5  and  C_6
REMARK    6  A    between atoms: C_6  and  O_8
REMARK    7  A    between atoms: O_8  and  C_9
REMARK    8  A    between atoms: C_16  and  C_40
REMARK    9  A    between atoms: C_17  and  C_38
REMARK   10  A    between atoms: C_29  and  C_37
REMARK   11  A    between atoms: C_32  and  C_35
REMARK                            x       y       z     vdW  Elec       q    Type
REMARK                         _______ _______ _______ _____ _____    ______ ____
ROOT
ATOM      1  C   UNL     1      -3.829   3.954  -4.195  0.00  0.00    -0.001 C 
ATOM      2  C   UNL     1      -5.206   3.264  -4.117  0.00  0.00    +0.005 C 
ATOM      3  C   UNL     1      -5.032   1.868  -4.752  0.00  0.00    +0.005 C 
ATOM      4  C   UNL     1      -3.513   1.570  -4.592  0.00  0.00    +0.006 C 
ATOM      5  C   UNL     1      -2.892   2.950  -4.878  0.00  0.00    -0.012 C 
ATOM      6  C   UNL     1      -1.462   3.074  -4.405  0.00  0.00    +0.109 C 
ATOM      7  C   UNL     1      -1.320   2.675  -2.932  0.00  0.00    +0.020 C 
ATOM      8  C   UNL     1      -1.802   1.228  -2.788  0.00  0.00    +0.006 C 
ATOM      9  C   UNL     1      -3.292   1.181  -3.130  0.00  0.00    +0.062 C 
ATOM     10  C   UNL     1      -3.792  -0.224  -2.891  0.00  0.00    +0.137 C 
ATOM     11  O   UNL     1      -4.402  -0.821  -3.746  0.00  0.00    -0.297 OA
ATOM     12  C   UNL     1      -3.504  -0.863  -1.559  0.00  0.00    +0.078 C 
ATOM     13  C   UNL     1      -2.008  -0.732  -1.248  0.00  0.00    +0.003 C 
ATOM     14  C   UNL     1      -1.588   0.736  -1.360  0.00  0.00    -0.025 C 
ATOM     15  C   UNL     1      -2.426   1.577  -0.395  0.00  0.00    +0.008 C 
ATOM     16  C   UNL     1      -2.190   1.093   1.037  0.00  0.00    +0.015 C 
ATOM     17  C   UNL     1      -2.589  -0.379   1.155  0.00  0.00    +0.102 C 
ATOM     18  C   UNL     1      -1.754  -1.216   0.183  0.00  0.00    +0.019 C 
ATOM     19  C   UNL     1      -0.108   0.869  -0.994  0.00  0.00    +0.012 C 
ATOM     20  C   UNL     1      -2.935   3.205  -6.386  0.00  0.00    +0.012 C 
ENDROOT
BRANCH  17  21
ATOM     21  C   UNL     1      -4.050  -0.531   0.820  0.00  0.00    +0.359 C 
ATOM     22  O   UNL     1      -4.761   0.445   0.763  0.00  0.00    -0.246 OA
ATOM     23  O   UNL     1      -4.562  -1.749   0.584  0.00  0.00    -0.246 OA
ENDBRANCH  17  21
BRANCH   6  24
ATOM     24  C   UNL     1      -1.011   4.502  -4.572  0.00  0.00    +0.360 C 
ATOM     25  O   UNL     1      -1.105   5.277  -3.650  0.00  0.00    -0.246 OA
ATOM     26  O   UNL     1      -0.504   4.913  -5.745  0.00  0.00    -0.246 OA
ENDBRANCH   6  24
BRANCH   1  28
ATOM     27  C   UNL     1      -4.963   5.046  -6.136  0.00  0.00    +0.008 C 
ATOM     28  C   UNL     1      -3.926   5.235  -5.027  0.00  0.00    -0.010 C 
BRANCH  28  29
ATOM     29  C   UNL     1      -4.349   6.397  -4.126  0.00  0.00    +0.014 C 
BRANCH  29  30
ATOM     30  C   UNL     1      -4.313   7.702  -4.925  0.00  0.00    +0.121 C 
BRANCH  30  31
ATOM     31  C   UNL     1      -4.730   8.846  -4.038  0.00  0.00    +0.307 C 
ATOM     32  O   UNL     1      -5.026   8.640  -2.885  0.00  0.00    -0.251 OA
BRANCH  31  33
ATOM     33  O   UNL     1      -4.772  10.095  -4.529  0.00  0.00    -0.468 OA
ATOM     34  C   UNL     1      -5.183  11.148  -3.617  0.00  0.00    +0.280 C 
ENDBRANCH  31  33
ENDBRANCH  30  31
ENDBRANCH  29  30
ENDBRANCH  28  29
ENDBRANCH   1  28
TORSDOF 7
