REMARK  Name = ZINC03027143
REMARK  6 active torsions:
REMARK  status: ('A' for Active; 'I' for Inactive)
REMARK    1  A    between atoms: C_1  and  C_2
REMARK    2  A    between atoms: C_2  and  C_3
REMARK    3  A    between atoms: C_6  and  N_9
REMARK    4  A    between atoms: C_16  and  S_18
REMARK    5  A    between atoms: S_18  and  C_19
REMARK    6  A    between atoms: C_19  and  C_20
REMARK                            x       y       z     vdW  Elec       q    Type
REMARK                         _______ _______ _______ _____ _____    ______ ____
ROOT
ATOM      1  N   UNL     1       2.220   0.770  -0.015  0.00  0.00    -0.282 N 
ATOM      2  C   UNL     1       1.366  -0.304  -0.013  0.00  0.00    +0.161 A 
ATOM      3  C   UNL     1       0.002  -0.004   0.002  0.00  0.00    +0.122 A 
ATOM      4  C   UNL     1      -0.968  -0.997   0.006  0.00  0.00    +0.268 A 
ATOM      5  O   UNL     1      -2.155  -0.714   0.019  0.00  0.00    -0.267 OA
ATOM      6  N   UNL     1      -0.562  -2.290  -0.005  0.00  0.00    -0.301 N 
ATOM      7  H   UNL     1      -1.211  -3.011  -0.002  0.00  0.00    +0.171 HD
ATOM      8  C   UNL     1       0.774  -2.561  -0.019  0.00  0.00    +0.171 A 
ATOM      9  N   UNL     1       1.686  -1.622  -0.023  0.00  0.00    -0.204 NA
ATOM     10  S   UNL     1      -0.022   1.770   0.012  0.00  0.00    -0.055 S 
ATOM     11  C   UNL     1       1.745   2.032  -0.004  0.00  0.00    +0.132 A 
ATOM     12  S   UNL     1       2.614   3.507  -0.005  0.00  0.00    -0.024 S 
ENDROOT
BRANCH   1  16
ATOM     13  C   UNL     1       6.337   0.122  -0.058  0.00  0.00    -0.047 A 
ATOM     14  C   UNL     1       5.724   0.736  -1.135  0.00  0.00    +0.005 A 
ATOM     15  C   UNL     1       4.360   0.952  -1.124  0.00  0.00    +0.026 A 
ATOM     16  C   UNL     1       3.604   0.552  -0.029  0.00  0.00    +0.050 A 
ATOM     17  C   UNL     1       4.224  -0.058   1.053  0.00  0.00    +0.026 A 
ATOM     18  C   UNL     1       5.587  -0.277   1.033  0.00  0.00    +0.005 A 
BRANCH  13  20
ATOM     19  C   UNL     1       8.539   1.097   0.536  0.00  0.00    +0.009 C 
ATOM     20  C   UNL     1       7.826  -0.112  -0.073  0.00  0.00    +0.032 C 
ENDBRANCH  13  20
ENDBRANCH   1  16
BRANCH   8  21
ATOM     21  S   UNL     1       1.294  -4.244  -0.033  0.00  0.00    -0.082 S 
BRANCH  21  22
ATOM     22  C   UNL     1       3.090  -4.018  -0.049  0.00  0.00    +0.133 C 
BRANCH  22  23
ATOM     23  C   UNL     1       3.766  -5.365  -0.062  0.00  0.00    +0.059 A 
ATOM     24  C   UNL     1       4.336  -5.840  -1.227  0.00  0.00    +0.094 A 
ATOM     25  C   UNL     1       4.963  -7.091  -1.213  0.00  0.00    +0.259 A 
ATOM     26  O   UNL     1       5.479  -7.537  -2.226  0.00  0.00    -0.267 OA
ATOM     27  N   UNL     1       4.981  -7.800  -0.065  0.00  0.00    -0.267 N 
ATOM     28  C   UNL     1       5.582  -9.023  -0.037  0.00  0.00    +0.116 A 
ATOM     29  C   UNL     1       5.613  -9.752   1.103  0.00  0.00    +0.058 A 
ATOM     30  C   UNL     1       5.023  -9.254   2.274  0.00  0.00    +0.025 A 
ATOM     31  C   UNL     1       4.420  -8.032   2.255  0.00  0.00    +0.048 A 
ATOM     32  C   UNL     1       4.398  -7.289   1.061  0.00  0.00    +0.141 A 
ATOM     33  N   UNL     1       3.808  -6.095   1.042  0.00  0.00    -0.233 NA
ATOM     34 CL   UNL     1       6.383 -11.307   1.115  0.00  0.00    -0.082 Cl
ENDBRANCH  22  23
ENDBRANCH  21  22
ENDBRANCH   8  21
TORSDOF 5
