REMARK  Name = ZINC39561957
REMARK  9 active torsions:
REMARK  status: ('A' for Active; 'I' for Inactive)
REMARK    1  A    between atoms: C_1  and  C_2
REMARK    2  A    between atoms: C_5  and  N_9
REMARK    3  A    between atoms: C_6  and  C_8
REMARK    4  A    between atoms: C_10  and  C_12
REMARK    5  A    between atoms: C_12  and  C_13
REMARK    6  A    between atoms: C_17  and  S_21
REMARK    7  A    between atoms: N_19  and  C_20
REMARK    8  A    between atoms: S_21  and  C_22
REMARK    9  A    between atoms: C_22  and  C_23
REMARK                            x       y       z     vdW  Elec       q    Type
REMARK                         _______ _______ _______ _____ _____    ______ ____
ROOT
ATOM      1  C   UNL     1      -0.236  -6.847  -2.628  0.00  0.00    +0.149 C 
ATOM      2  N   UNL     1      -1.484  -6.351  -3.265  0.00  0.00    -0.237 NA
ATOM      3  N   UNL     1      -1.724  -7.333  -4.334  0.00  0.00    -0.229 NA
ATOM      4  C   UNL     1      -1.328  -8.630  -3.740  0.00  0.00    +0.200 C 
ATOM      5  N   UNL     1      -0.374  -8.322  -2.652  0.00  0.00    -0.264 NA
ATOM      6  C   UNL     1      -0.865  -8.826  -1.363  0.00  0.00    +0.108 C 
ATOM      7  H   UNL     1      -2.247  -6.340  -2.606  0.00  0.00    +0.142 HD
ATOM      8  H   UNL     1      -1.168  -7.123  -5.150  0.00  0.00    +0.143 HD
ENDROOT
BRANCH   1   9
ATOM      9  C   UNL     1      -0.134  -6.343  -1.187  0.00  0.00    +0.132 C 
BRANCH   9  11
ATOM     10  N   UNL     1       0.059  -4.170  -0.021  0.00  0.00    -0.285 N 
ATOM     11  C   UNL     1      -0.040  -4.839  -1.187  0.00  0.00    +0.220 C 
ATOM     12  O   UNL     1      -0.054  -4.230  -2.236  0.00  0.00    -0.275 OA
ATOM     13  H   UNL     1       0.135  -4.658   0.814  0.00  0.00    +0.155 HD
BRANCH  10  18
ATOM     14  C   UNL     1       0.025   1.503   0.005  0.00  0.00    +0.044 C 
ATOM     15  C   UNL     1       0.034  -0.004  -0.002  0.00  0.00    -0.050 A 
ATOM     16  C   UNL     1       0.632  -0.685  -1.046  0.00  0.00    +0.005 A 
ATOM     17  C   UNL     1       0.641  -2.066  -1.055  0.00  0.00    +0.024 A 
ATOM     18  C   UNL     1       0.051  -2.771  -0.014  0.00  0.00    +0.036 A 
ATOM     19  C   UNL     1      -0.548  -2.083   1.033  0.00  0.00    -0.029 A 
ATOM     20  C   UNL     1      -0.550  -0.702   1.039  0.00  0.00    +0.008 A 
ATOM     21  C   UNL     1      -1.190  -2.843   2.165  0.00  0.00    +0.045 C 
ENDBRANCH  10  18
ENDBRANCH   9  11
ENDBRANCH   1   9
BRANCH   4  22
ATOM     22  S   UNL     1      -0.525  -9.668  -4.993  0.00  0.00    -0.117 S 
BRANCH  22  23
ATOM     23  C   UNL     1       0.889  -8.675  -5.545  0.00  0.00    +0.146 C 
BRANCH  23  24
ATOM     24  C   UNL     1       1.652  -9.432  -6.601  0.00  0.00    +0.120 A 
ATOM     25  N   UNL     1       2.757  -8.851  -7.139  0.00  0.00    -0.310 N 
ATOM     26  H   UNL     1       3.032  -7.971  -6.838  0.00  0.00    +0.170 HD
ATOM     27  C   UNL     1       3.477  -9.489  -8.090  0.00  0.00    +0.259 A 
ATOM     28  O   UNL     1       4.469  -8.981  -8.580  0.00  0.00    -0.267 OA
ATOM     29  C   UNL     1       3.015 -10.821  -8.509  0.00  0.00    +0.065 A 
ATOM     30  C   UNL     1       3.685 -11.561  -9.482  0.00  0.00    +0.015 A 
ATOM     31  C   UNL     1       3.208 -12.804  -9.837  0.00  0.00    +0.001 A 
ATOM     32  C   UNL     1       2.068 -13.321  -9.235  0.00  0.00    +0.002 A 
ATOM     33  C   UNL     1       1.392 -12.606  -8.273  0.00  0.00    +0.028 A 
ATOM     34  C   UNL     1       1.856 -11.344  -7.895  0.00  0.00    +0.078 A 
ATOM     35  N   UNL     1       1.224 -10.607  -6.948  0.00  0.00    -0.233 NA
ENDBRANCH  23  24
ENDBRANCH  22  23
ENDBRANCH   4  22
TORSDOF 6
