REMARK  Name = ZINC35423437
REMARK  8 active torsions:
REMARK  status: ('A' for Active; 'I' for Inactive)
REMARK    1  A    between atoms: C_1  and  C_2
REMARK    2  A    between atoms: C_2  and  C_4
REMARK    3  A    between atoms: C_2  and  N_29
REMARK    4  A    between atoms: C_4  and  C_5
REMARK    5  A    between atoms: C_5  and  N_6
REMARK    6  A    between atoms: C_7  and  C_9
REMARK    7  A    between atoms: C_12  and  C_14
REMARK    8  A    between atoms: C_14  and  N_15
REMARK                            x       y       z     vdW  Elec       q    Type
REMARK                         _______ _______ _______ _____ _____    ______ ____
ROOT
ATOM      1  C   UNL     1       2.283  -4.453  -3.542  0.00  0.00    +0.189 A 
ATOM      2  C   UNL     1       2.631  -5.755  -3.761  0.00  0.00    +0.055 A 
ATOM      3  C   UNL     1       3.204  -5.809  -5.042  0.00  0.00    +0.047 A 
ATOM      4  C   UNL     1       3.179  -4.554  -5.542  0.00  0.00    +0.126 A 
ATOM      5  O   UNL     1       2.619  -3.741  -4.637  0.00  0.00    -0.453 OA
ENDROOT
BRANCH   1   7
ATOM      6  N   UNL     1       1.349  -2.612  -2.245  0.00  0.00    -0.309 N 
ATOM      7  C   UNL     1       1.647  -3.924  -2.331  0.00  0.00    +0.279 C 
ATOM      8  O   UNL     1       1.390  -4.668  -1.403  0.00  0.00    -0.267 OA
ATOM      9  H   UNL     1       1.554  -2.019  -2.984  0.00  0.00    +0.149 HD
BRANCH   6  10
ATOM     10  C   UNL     1       0.715  -2.083  -1.035  0.00  0.00    +0.103 C 
BRANCH  10  11
ATOM     11  C   UNL     1       0.486  -0.579  -1.195  0.00  0.00    +0.003 C 
BRANCH  11  13
ATOM     12  C   UNL     1       0.842  -0.151   1.240  0.00  0.00    -0.013 C 
ATOM     13  C   UNL     1      -0.147  -0.020   0.081  0.00  0.00    -0.070 C 
BRANCH  13  14
ATOM     14  N   UNL     1      -0.484   1.395  -0.119  0.00  0.00    +0.381 N 
ATOM     15  C   UNL     1      -1.469   1.537  -1.221  0.00  0.00    -0.079 C 
ATOM     16  C   UNL     1      -2.123   2.913  -0.938  0.00  0.00    -0.020 C 
ATOM     17  C   UNL     1      -2.208   2.944   0.606  0.00  0.00    -0.020 C 
ATOM     18  C   UNL     1      -1.147   1.937   1.087  0.00  0.00    -0.079 C 
ATOM     19  H   UNL     1       0.349   1.926  -0.325  0.00  0.00    -0.081 HD
ENDBRANCH  13  14
ENDBRANCH  11  13
ENDBRANCH  10  11
ENDBRANCH   6  10
ENDBRANCH   1   7
BRANCH   4  20
ATOM     20  C   UNL     1       3.694  -4.139  -6.896  0.00  0.00    +0.201 C 
BRANCH  20  21
ATOM     21  N   UNL     1       2.615  -4.246  -7.882  0.00  0.00    -0.283 N 
ATOM     22  C   UNL     1       2.427  -5.440  -8.569  0.00  0.00    +0.161 A 
ATOM     23  C   UNL     1       1.404  -5.559  -9.512  0.00  0.00    +0.090 A 
ATOM     24  C   UNL     1       1.234  -6.761 -10.186  0.00  0.00    +0.031 A 
ATOM     25  C   UNL     1       2.097  -7.808  -9.893  0.00  0.00    +0.022 A 
ATOM     26  C   UNL     1       3.088  -7.621  -8.949  0.00  0.00    +0.113 A 
ATOM     27  N   UNL     1       3.227  -6.469  -8.324  0.00  0.00    -0.236 NA
ATOM     28  N   UNL     1       0.555  -4.481  -9.779  0.00  0.00    -0.309 N 
ATOM     29  C   UNL     1      -0.493  -4.332 -10.627  0.00  0.00    +0.092 A 
ATOM     30  C   UNL     1      -0.983  -3.074 -10.503  0.00  0.00    +0.020 A 
ATOM     31  C   UNL     1      -0.217  -2.406  -9.543  0.00  0.00    +0.033 A 
ATOM     32  C   UNL     1       0.738  -3.293  -9.100  0.00  0.00    +0.112 A 
ATOM     33  C   UNL     1       1.812  -3.188  -8.110  0.00  0.00    +0.277 A 
ATOM     34  O   UNL     1       1.982  -2.149  -7.500  0.00  0.00    -0.265 OA
ENDBRANCH  20  21
ENDBRANCH   4  20
TORSDOF 7
