REMARK  Name = ZINC40106833
REMARK  11 active torsions:
REMARK  status: ('A' for Active; 'I' for Inactive)
REMARK    1  A    between atoms: C_1  and  C_2
REMARK    2  A    between atoms: C_3  and  C_11
REMARK    3  A    between atoms: C_4  and  C_10
REMARK    4  A    between atoms: C_6  and  S_8
REMARK    5  A    between atoms: S_8  and  C_9
REMARK    6  A    between atoms: C_11  and  C_12
REMARK    7  A    between atoms: C_12  and  C_13
REMARK    8  A    between atoms: N_15  and  C_16
REMARK    9  A    between atoms: C_16  and  C_17
REMARK   10  A    between atoms: C_25  and  C_32
REMARK   11  A    between atoms: C_28  and  C_31
REMARK                            x       y       z     vdW  Elec       q    Type
REMARK                         _______ _______ _______ _____ _____    ______ ____
ROOT
ATOM      1  C   UNL     1       1.407   1.014  -4.298  0.00  0.00    +0.214 C 
ATOM      2  O   UNL     1       0.351   1.311  -4.814  0.00  0.00    -0.276 OA
ATOM      3  N   UNL     1       2.567   1.363  -4.889  0.00  0.00    -0.311 N 
ATOM      4  H   UNL     1       3.413   1.126  -4.476  0.00  0.00    +0.149 HD
ENDROOT
BRANCH   1   5
ATOM      5  C   UNL     1       1.423   0.256  -2.996  0.00  0.00    +0.100 C 
BRANCH   5   6
ATOM      6  C   UNL     1      -0.014  -0.012  -2.545  0.00  0.00    +0.048 C 
BRANCH   6   9
ATOM      7  C   UNL     1      -0.007   1.409   0.004  0.00  0.00    +0.066 C 
ATOM      8  C   UNL     1       0.005  -0.097  -0.031  0.00  0.00    +0.046 A 
ATOM      9  C   UNL     1       0.001  -0.771  -1.243  0.00  0.00    -0.005 A 
ATOM     10  C   UNL     1       0.012  -2.157  -1.231  0.00  0.00    +0.046 A 
ATOM     11  N   UNL     1       0.025  -2.792  -0.071  0.00  0.00    -0.227 NA
ATOM     12  C   UNL     1       0.028  -2.118   1.070  0.00  0.00    +0.188 A 
ATOM     13  N   UNL     1       0.024  -0.793   1.094  0.00  0.00    -0.227 NA
ATOM     14  C   UNL     1       0.008  -2.931  -2.524  0.00  0.00    +0.066 C 
BRANCH  12  15
ATOM     15  S   UNL     1       0.045  -3.005   2.593  0.00  0.00    -0.089 S 
ATOM     16  C   UNL     1       0.045  -1.705   3.858  0.00  0.00    +0.093 C 
ENDBRANCH  12  15
ENDBRANCH   6   9
ENDBRANCH   5   6
ENDBRANCH   1   5
BRANCH   3  17
ATOM     17  C   UNL     1       2.552   2.100  -6.155  0.00  0.00    +0.141 C 
BRANCH  17  18
ATOM     18  C   UNL     1       3.968   2.365  -6.599  0.00  0.00    -0.014 A 
ATOM     19  C   UNL     1       4.625   3.521  -6.198  0.00  0.00    +0.010 A 
ATOM     20  C   UNL     1       5.923   3.725  -6.628  0.00  0.00    +0.042 A 
ATOM     21  C   UNL     1       6.524   2.771  -7.443  0.00  0.00    +0.099 A 
ATOM     22  N   UNL     1       5.864   1.681  -7.804  0.00  0.00    -0.349 N 
ATOM     23  C   UNL     1       4.627   1.458  -7.404  0.00  0.00    +0.089 A 
ATOM     24  N   UNL     1       7.829   2.963  -7.883  0.00  0.00    -0.312 N 
ATOM     25  C   UNL     1       8.544   4.219  -7.606  0.00  0.00    +0.137 C 
ATOM     26  C   UNL     1       9.133   4.740  -8.922  0.00  0.00    +0.133 C 
ATOM     27  O   UNL     1       9.894   3.700  -9.541  0.00  0.00    -0.371 OA
ATOM     28  C   UNL     1       9.125   2.551  -9.905  0.00  0.00    +0.133 C 
ATOM     29  C   UNL     1       8.537   1.915  -8.634  0.00  0.00    +0.137 C 
ATOM     30  C   UNL     1      10.026   1.537 -10.612  0.00  0.00    +0.039 C 
ATOM     31  C   UNL     1      10.042   5.938  -8.636  0.00  0.00    +0.039 C 
ATOM     32  H   UNL     1       6.303   1.030  -8.373  0.00  0.00    +0.167 HD
ENDBRANCH  17  18
ENDBRANCH   3  17
TORSDOF 6
