REMARK  Name = ZINC12664693
REMARK  9 active torsions:
REMARK  status: ('A' for Active; 'I' for Inactive)
REMARK    1  A    between atoms: C_1  and  C_2
REMARK    2  A    between atoms: C_2  and  O_3
REMARK    3  A    between atoms: O_3  and  C_4
REMARK    4  A    between atoms: C_4  and  C_5
REMARK    5  A    between atoms: C_5  and  N_6
REMARK    6  A    between atoms: N_15  and  C_16
REMARK    7  A    between atoms: C_16  and  C_18
REMARK    8  A    between atoms: N_23  and  S_25
REMARK    9  A    between atoms: S_25  and  C_28
REMARK                            x       y       z     vdW  Elec       q    Type
REMARK                         _______ _______ _______ _____ _____    ______ ____
ROOT
ATOM      1  C   UNL     1       3.355   7.403  -3.739  0.00  0.00    +0.243 C 
ATOM      2  O   UNL     1       2.166   7.641  -3.839  0.00  0.00    -0.273 OA
ENDROOT
BRANCH   1  12
ATOM      3  N   UNL     1       4.577  10.083  -5.811  0.00  0.00    -0.319 N 
ATOM      4  C   UNL     1       3.963  11.092  -6.531  0.00  0.00    +0.058 A 
ATOM      5  C   UNL     1       4.563  12.091  -7.315  0.00  0.00    +0.028 A 
ATOM      6  C   UNL     1       3.797  13.029  -7.965  0.00  0.00    +0.022 A 
ATOM      7  C   UNL     1       2.414  13.019  -7.868  0.00  0.00    +0.042 A 
ATOM      8  C   UNL     1       1.797  12.046  -7.101  0.00  0.00    +0.037 A 
ATOM      9  C   UNL     1       2.563  11.107  -6.451  0.00  0.00    +0.040 A 
ATOM     10  S   UNL     1       2.201   9.726  -5.396  0.00  0.00    -0.052 S 
ATOM     11  C   UNL     1       3.826   9.196  -5.107  0.00  0.00    +0.166 A 
ATOM     12  N   UNL     1       4.240   8.169  -4.367  0.00  0.00    -0.156 NA
ATOM     13 CL   UNL     1       1.467  14.214  -8.699  0.00  0.00    -0.084 Cl
BRANCH   3  14
ATOM     14  C   UNL     1       6.037   9.969  -5.811  0.00  0.00    +0.152 C 
BRANCH  14  15
ATOM     15  C   UNL     1       6.478   9.069  -6.968  0.00  0.00    +0.181 C 
BRANCH  15  16
ATOM     16  O   UNL     1       7.902   8.957  -6.968  0.00  0.00    -0.378 OA
BRANCH  16  18
ATOM     17  C   UNL     1       9.947   8.086  -7.918  0.00  0.00    +0.034 C 
ATOM     18  C   UNL     1       8.420   8.134  -8.015  0.00  0.00    +0.156 C 
ENDBRANCH  16  18
ENDBRANCH  15  16
ENDBRANCH  14  15
ENDBRANCH   3  14
ENDBRANCH   1  12
BRANCH   1  19
ATOM     19  C   UNL     1       3.823   6.241  -2.902  0.00  0.00    +0.093 C 
ATOM     20  C   UNL     1       4.598   5.257  -3.781  0.00  0.00    +0.015 C 
ATOM     21  C   UNL     1       5.103   4.093  -2.925  0.00  0.00    +0.018 C 
ATOM     22  C   UNL     1       3.910   3.359  -2.314  0.00  0.00    +0.109 C 
ATOM     23  N   UNL     1       3.075   4.326  -1.587  0.00  0.00    -0.176 NA
ATOM     24  C   UNL     1       2.612   5.529  -2.292  0.00  0.00    +0.122 C 
BRANCH  23  25
ATOM     25  S   UNL     1       2.670   4.067  -0.003  0.00  0.00    +0.061 S 
ATOM     26  O   UNL     1       2.387   5.342   0.557  0.00  0.00    -0.153 OA
ATOM     27  O   UNL     1       3.662   3.202   0.534  0.00  0.00    -0.153 OA
BRANCH  25  28
ATOM     28  C   UNL     1       1.156   3.165   0.008  0.00  0.00    +0.105 A 
ATOM     29  C   UNL     1       1.175   1.783   0.000  0.00  0.00    +0.028 A 
ATOM     30  C   UNL     1      -0.013   1.076   0.008  0.00  0.00    +0.002 A 
ATOM     31  C   UNL     1      -1.219   1.751   0.017  0.00  0.00    +0.000 A 
ATOM     32  C   UNL     1      -1.238   3.133   0.030  0.00  0.00    +0.002 A 
ATOM     33  C   UNL     1      -0.050   3.840   0.022  0.00  0.00    +0.028 A 
ENDBRANCH  25  28
ENDBRANCH  23  25
ENDBRANCH   1  19
TORSDOF 8
