REMARK  Name = ZINC13501165
REMARK  10 active torsions:
REMARK  status: ('A' for Active; 'I' for Inactive)
REMARK    1  A    between atoms: C_1  and  C_2
REMARK    2  A    between atoms: C_2  and  C_3
REMARK    3  A    between atoms: C_3  and  C_5
REMARK    4  A    between atoms: C_3  and  N_69
REMARK    5  A    between atoms: N_9  and  C_10
REMARK    6  A    between atoms: C_10  and  C_11
REMARK    7  A    between atoms: C_18  and  C_19
REMARK    8  A    between atoms: C_18  and  N_69
REMARK    9  A    between atoms: C_23  and  C_31
REMARK   10  A    between atoms: C_32  and  N_69
REMARK                            x       y       z     vdW  Elec       q    Type
REMARK                         _______ _______ _______ _____ _____    ______ ____
ROOT
ATOM      1  N   UNL     1      -3.202   1.011  -1.369  0.00  0.00    +0.391 N 
ATOM      2  H   UNL     1      -2.395   0.749  -1.948  0.00  0.00    -0.080 HD
ENDROOT
BRANCH   1   3
ATOM      3  C   UNL     1      -3.781   2.266  -1.894  0.00  0.00    -0.067 C 
ATOM      4  C   UNL     1      -5.088   2.597  -1.171  0.00  0.00    -0.015 C 
ATOM      5  C   UNL     1      -5.668   3.896  -1.734  0.00  0.00    -0.002 C 
ATOM      6  C   UNL     1      -5.941   3.727  -3.230  0.00  0.00    -0.000 C 
ATOM      7  C   UNL     1      -4.634   3.396  -3.953  0.00  0.00    -0.002 C 
ATOM      8  C   UNL     1      -4.054   2.097  -3.390  0.00  0.00    -0.015 C 
ENDBRANCH   1   3
BRANCH   1   9
ATOM      9  C   UNL     1      -4.207  -0.071  -1.428  0.00  0.00    +0.003 C 
BRANCH   9  10
ATOM     10  C   UNL     1      -5.186   0.056  -0.290  0.00  0.00    +0.138 A 
ATOM     11  N   UNL     1      -4.896   0.199   0.980  0.00  0.00    -0.115 NA
ATOM     12  N   UNL     1      -6.003   0.274   1.635  0.00  0.00    -0.023 NA
ATOM     13  N   UNL     1      -6.992   0.175   0.817  0.00  0.00    -0.044 NA
ATOM     14  N   UNL     1      -6.529   0.039  -0.380  0.00  0.00    -0.226 N 
BRANCH  14  15
ATOM     15  C   UNL     1      -7.317  -0.107  -1.606  0.00  0.00    +0.182 C 
BRANCH  15  16
ATOM     16  C   UNL     1      -7.581  -1.568  -1.863  0.00  0.00    -0.026 A 
ATOM     17  C   UNL     1      -6.695  -2.306  -2.626  0.00  0.00    +0.008 A 
ATOM     18  C   UNL     1      -6.933  -3.647  -2.858  0.00  0.00    +0.038 A 
ATOM     19  C   UNL     1      -8.064  -4.250  -2.335  0.00  0.00    +0.123 A 
ATOM     20  C   UNL     1      -8.954  -3.509  -1.575  0.00  0.00    +0.038 A 
ATOM     21  C   UNL     1      -8.711  -2.169  -1.340  0.00  0.00    +0.008 A 
ATOM     22  F   UNL     1      -8.300  -5.560  -2.566  0.00  0.00    -0.205 F 
ENDBRANCH  15  16
ENDBRANCH  14  15
ENDBRANCH   9  10
BRANCH   9  24
ATOM     23  C   UNL     1      -2.592  -1.606  -2.559  0.00  0.00    +0.002 C 
ATOM     24  C   UNL     1      -3.484  -1.416  -1.331  0.00  0.00    -0.011 C 
ENDBRANCH   9  24
ENDBRANCH   1   9
BRANCH   1  25
ATOM     25  C   UNL     1      -2.751   1.207   0.024  0.00  0.00    -0.036 C 
BRANCH  25  26
ATOM     26  C   UNL     1      -1.486   2.026   0.013  0.00  0.00    +0.001 A 
ATOM     27  C   UNL     1      -1.516   3.322   0.410  0.00  0.00    +0.017 A 
ATOM     28  C   UNL     1      -0.271   4.091   0.383  0.00  0.00    -0.001 A 
ATOM     29  C   UNL     1      -0.241   5.433   0.778  0.00  0.00    +0.013 A 
ATOM     30  C   UNL     1       0.937   6.123   0.742  0.00  0.00    -0.050 A 
ATOM     31  C   UNL     1       2.105   5.505   0.316  0.00  0.00    +0.005 A 
ATOM     32  C   UNL     1       2.099   4.184  -0.077  0.00  0.00    +0.026 A 
ATOM     33  C   UNL     1       0.911   3.461  -0.048  0.00  0.00    +0.049 A 
ATOM     34  N   UNL     1       0.876   2.138  -0.435  0.00  0.00    -0.322 N 
ATOM     35  H   UNL     1       1.692   1.705  -0.732  0.00  0.00    +0.169 HD
ATOM     36  C   UNL     1      -0.273   1.439  -0.406  0.00  0.00    +0.251 A 
ATOM     37  O   UNL     1      -0.267   0.272  -0.755  0.00  0.00    -0.268 OA
ATOM     38  C   UNL     1       0.970   7.569   1.167  0.00  0.00    +0.044 C 
ENDBRANCH  25  26
ENDBRANCH   1  25
TORSDOF 8
