REMARK  Name = ZINC36500741
REMARK  19 active torsions:
REMARK  status: ('A' for Active; 'I' for Inactive)
REMARK    1  A    between atoms: C_1  and  C_2
REMARK    2  A    between atoms: C_2  and  C_3
REMARK    3  A    between atoms: C_2  and  C_4
REMARK    4  A    between atoms: C_2  and  C_5
REMARK    5  A    between atoms: C_5  and  C_6
REMARK    6  A    between atoms: C_6  and  C_7
REMARK    7  A    between atoms: C_6  and  C_8
REMARK    8  A    between atoms: C_6  and  N_9
REMARK    9  A    between atoms: C_10  and  C_12
REMARK   10  A    between atoms: C_12  and  C_14
REMARK   11  A    between atoms: C_12  and  N_23
REMARK   12  A    between atoms: C_15  and  O_22
REMARK   13  A    between atoms: C_17  and  O_21
REMARK   14  A    between atoms: C_19  and  O_20
REMARK   15  A    between atoms: N_23  and  C_24
REMARK   16  A    between atoms: C_24  and  C_25
REMARK   17  A    between atoms: C_30  and  C_32
REMARK   18  A    between atoms: C_36  and  O_39
REMARK   19  A    between atoms: C_37  and  O_38
REMARK                            x       y       z     vdW  Elec       q    Type
REMARK                         _______ _______ _______ _____ _____    ______ ____
ROOT
ATOM      1  C   UNL     1       5.239  -0.653  -3.886  0.00  0.00    +0.200 C 
ENDROOT
BRANCH   1   2
ATOM      2  C   UNL     1       5.259  -2.157  -3.784  0.00  0.00    +0.065 A 
ATOM      3  C   UNL     1       5.974  -2.773  -2.768  0.00  0.00    +0.129 A 
ATOM      4  C   UNL     1       5.993  -4.156  -2.674  0.00  0.00    +0.091 A 
ATOM      5  C   UNL     1       5.297  -4.924  -3.597  0.00  0.00    +0.124 A 
ATOM      6  C   UNL     1       4.582  -4.307  -4.612  0.00  0.00    +0.091 A 
ATOM      7  C   UNL     1       4.559  -2.924  -4.704  0.00  0.00    +0.129 A 
BRANCH   7   8
ATOM      8  O   UNL     1       3.855  -2.320  -5.697  0.00  0.00    -0.506 OA
ATOM      9  H   UNL     1       4.364  -2.170  -6.505  0.00  0.00    +0.292 HD
ENDBRANCH   7   8
BRANCH   5  10
ATOM     10  O   UNL     1       5.316  -6.279  -3.505  0.00  0.00    -0.507 OA
ATOM     11  H   UNL     1       4.607  -6.647  -2.960  0.00  0.00    +0.292 HD
ENDBRANCH   5  10
BRANCH   3  12
ATOM     12  O   UNL     1       6.655  -2.021  -1.864  0.00  0.00    -0.506 OA
ATOM     13  H   UNL     1       6.164  -1.842  -1.051  0.00  0.00    +0.292 HD
ENDBRANCH   3  12
ENDBRANCH   1   2
BRANCH   1  15
ATOM     14  N   UNL     1       3.285  -0.402  -2.390  0.00  0.00    -0.308 N 
ATOM     15  C   UNL     1       4.563  -0.076  -2.669  0.00  0.00    +0.239 C 
ATOM     16  O   UNL     1       5.170   0.680  -1.940  0.00  0.00    -0.273 OA
ATOM     17  H   UNL     1       2.800  -1.007  -2.972  0.00  0.00    +0.149 HD
BRANCH  14  18
ATOM     18  C   UNL     1       2.629   0.159  -1.206  0.00  0.00    +0.030 C 
ATOM     19  C   UNL     1       2.812   1.678  -1.192  0.00  0.00    +0.031 C 
ATOM     20  C   UNL     1       3.252  -0.441   0.056  0.00  0.00    +0.031 C 
BRANCH  18  21
ATOM     21  C   UNL     1       1.136  -0.174  -1.245  0.00  0.00    +0.031 C 
BRANCH  21  23
ATOM     22  C   UNL     1       0.949  -1.092  -3.561  0.00  0.00    +0.010 C 
ATOM     23  C   UNL     1       0.592   0.085  -2.652  0.00  0.00    -0.036 C 
ATOM     24  C   UNL     1       1.213   1.367  -3.210  0.00  0.00    +0.010 C 
ATOM     25  C   UNL     1      -0.928   0.240  -2.590  0.00  0.00    +0.010 C 
ENDBRANCH  21  23
ENDBRANCH  18  21
ENDBRANCH  14  18
ENDBRANCH   1  15
BRANCH   1  26
ATOM     26  N   UNL     1       6.612  -0.150  -3.967  0.00  0.00    -0.274 N 
ATOM     27  C   UNL     1       6.851   1.174  -3.885  0.00  0.00    +0.252 C 
ATOM     28  O   UNL     1       7.993   1.581  -3.788  0.00  0.00    -0.270 OA
BRANCH  27  29
ATOM     29  C   UNL     1       5.727   2.129  -3.913  0.00  0.00    +0.082 A 
ATOM     30  C   UNL     1       4.424   1.674  -4.133  0.00  0.00    +0.017 A 
ATOM     31  C   UNL     1       3.377   2.569  -4.158  0.00  0.00    +0.005 A 
ATOM     32  C   UNL     1       3.607   3.922  -3.966  0.00  0.00    +0.049 A 
ATOM     33  C   UNL     1       4.893   4.388  -3.748  0.00  0.00    +0.159 A 
ATOM     34  C   UNL     1       5.960   3.495  -3.714  0.00  0.00    +0.171 A 
BRANCH  34  35
ATOM     35  O   UNL     1       7.221   3.947  -3.494  0.00  0.00    -0.503 OA
ATOM     36  H   UNL     1       7.699   4.186  -4.300  0.00  0.00    +0.292 HD
ENDBRANCH  34  35
BRANCH  33  37
ATOM     37  O   UNL     1       5.111   5.717  -3.561  0.00  0.00    -0.503 OA
ATOM     38  H   UNL     1       5.064   5.997  -2.636  0.00  0.00    +0.292 HD
ENDBRANCH  33  37
ENDBRANCH  27  29
BRANCH  26  39
ATOM     39  C   UNL     1       7.726  -1.086  -4.137  0.00  0.00    +0.183 C 
BRANCH  39  40
ATOM     40  C   UNL     1       8.512  -0.714  -5.368  0.00  0.00    +0.122 A 
ATOM     41  C   UNL     1       9.623   0.044  -5.392  0.00  0.00    +0.046 A 
ATOM     42  C   UNL     1      10.026   0.138  -6.744  0.00  0.00    +0.041 A 
ATOM     43  C   UNL     1       9.137  -0.569  -7.465  0.00  0.00    +0.195 A 
ATOM     44  O   UNL     1       8.226  -1.087  -6.625  0.00  0.00    -0.466 OA
ENDBRANCH  39  40
ENDBRANCH  26  39
ENDBRANCH   1  26
TORSDOF 14
