REMARK  Name = ZINC63374921
REMARK  8 active torsions:
REMARK  status: ('A' for Active; 'I' for Inactive)
REMARK    1  A    between atoms: C_1  and  C_2
REMARK    2  A    between atoms: C_2  and  C_4
REMARK    3  A    between atoms: C_2  and  C_35
REMARK    4  A    between atoms: C_4  and  N_5
REMARK    5  A    between atoms: C_11  and  C_27
REMARK    6  A    between atoms: C_23  and  C_26
REMARK    7  A    between atoms: C_32  and  O_33
REMARK    8  A    between atoms: O_33  and  C_34
REMARK                            x       y       z     vdW  Elec       q    Type
REMARK                         _______ _______ _______ _____ _____    ______ ____
ROOT
ATOM      1  N   UNL     1      -2.171  -0.255  -1.092  0.00  0.00    -0.290 N 
ATOM      2  C   UNL     1      -2.795   1.050  -1.236  0.00  0.00    +0.203 C 
ATOM      3  C   UNL     1      -3.534   1.181  -2.527  0.00  0.00    +0.234 C 
ATOM      4  O   UNL     1      -4.096   2.232  -2.747  0.00  0.00    -0.274 OA
ATOM      5  N   UNL     1      -3.622   0.224  -3.458  0.00  0.00    -0.283 N 
ATOM      6  C   UNL     1      -4.425   0.502  -4.665  0.00  0.00    +0.121 C 
ATOM      7  C   UNL     1      -3.534   0.366  -5.912  0.00  0.00    +0.068 C 
ATOM      8  C   UNL     1      -2.757  -0.917  -5.752  0.00  0.00    -0.027 C 
ATOM      9  C   UNL     1      -2.599  -1.957  -6.560  0.00  0.00    -0.000 A 
ATOM     10  C   UNL     1      -3.023  -2.193  -7.949  0.00  0.00    +0.010 A 
ATOM     11  C   UNL     1      -2.707  -3.406  -8.475  0.00  0.00    +0.001 A 
ATOM     12  C   UNL     1      -2.019  -4.396  -7.766  0.00  0.00    +0.002 A 
ATOM     13  C   UNL     1      -1.583  -4.261  -6.489  0.00  0.00    +0.026 A 
ATOM     14  C   UNL     1      -1.848  -3.025  -5.831  0.00  0.00    +0.043 A 
ATOM     15  N   UNL     1      -1.528  -2.622  -4.637  0.00  0.00    -0.375 N 
ATOM     16  C   UNL     1      -1.976  -1.238  -4.482  0.00  0.00    +0.139 C 
ATOM     17  C   UNL     1      -2.958  -1.073  -3.318  0.00  0.00    +0.135 C 
ATOM     18  C   UNL     1      -2.234  -1.208  -2.020  0.00  0.00    +0.242 C 
ATOM     19  O   UNL     1      -1.669  -2.257  -1.793  0.00  0.00    -0.273 OA
ATOM     20  C   UNL     1      -4.012  -2.179  -3.401  0.00  0.00    +0.044 C 
ATOM     21  H   UNL     1      -1.071  -3.149  -3.963  0.00  0.00    +0.160 HD
ENDROOT
BRANCH   7  22
ATOM     22  C   UNL     1      -2.588   1.536  -5.998  0.00  0.00    +0.003 A 
ATOM     23  C   UNL     1      -1.683   1.771  -4.981  0.00  0.00    +0.008 A 
ATOM     24  C   UNL     1      -0.815   2.844  -5.060  0.00  0.00    +0.001 A 
ATOM     25  C   UNL     1      -0.850   3.686  -6.157  0.00  0.00    +0.004 A 
ATOM     26  C   UNL     1      -1.753   3.455  -7.176  0.00  0.00    +0.046 A 
ATOM     27  C   UNL     1      -2.621   2.376  -7.102  0.00  0.00    +0.124 A 
BRANCH  27  28
ATOM     28  O   UNL     1      -3.506   2.144  -8.107  0.00  0.00    -0.495 OA
ATOM     29  C   UNL     1      -3.484   3.049  -9.213  0.00  0.00    +0.277 C 
ENDBRANCH  27  28
ENDBRANCH   7  22
BRANCH   1  30
ATOM     30  C   UNL     1      -1.427  -0.534   0.139  0.00  0.00    +0.116 C 
BRANCH  30  32
ATOM     31  C   UNL     1       0.262   1.225  -0.406  0.00  0.00    +0.014 C 
ATOM     32  C   UNL     1       0.061  -0.259  -0.091  0.00  0.00    +0.033 C 
BRANCH  32  33
ATOM     33  C   UNL     1       0.836  -0.620   1.150  0.00  0.00    -0.043 A 
ATOM     34  C   UNL     1       0.556   0.012   2.347  0.00  0.00    +0.004 A 
ATOM     35  C   UNL     1       1.267  -0.319   3.486  0.00  0.00    +0.000 A 
ATOM     36  C   UNL     1       2.258  -1.281   3.426  0.00  0.00    +0.000 A 
ATOM     37  C   UNL     1       2.537  -1.913   2.229  0.00  0.00    +0.000 A 
ATOM     38  C   UNL     1       1.823  -1.585   1.092  0.00  0.00    +0.004 A 
ENDBRANCH  32  33
ENDBRANCH  30  32
ENDBRANCH   1  30
TORSDOF 5
