REMARK  Name = ZINC44021205
REMARK  4 active torsions:
REMARK  status: ('A' for Active; 'I' for Inactive)
REMARK    1  A    between atoms: C_1  and  C_2
REMARK    2  A    between atoms: C_5  and  N_9
REMARK    3  A    between atoms: N_9  and  C_10
REMARK    4  A    between atoms: N_14  and  C_19
REMARK                            x       y       z     vdW  Elec       q    Type
REMARK                         _______ _______ _______ _____ _____    ______ ____
ROOT
ATOM      1  C   UNL     1       0.175  -4.863   1.156  0.00  0.00    +0.109 A 
ATOM      2  C   UNL     1       0.390  -6.213   1.145  0.00  0.00    +0.112 A 
ATOM      3  C   UNL     1       0.510  -6.895   2.366  0.00  0.00    +0.259 A 
ATOM      4  O   UNL     1       0.703  -8.099   2.380  0.00  0.00    -0.267 OA
ATOM      5  N   UNL     1       0.411  -6.211   3.523  0.00  0.00    -0.255 N 
ATOM      6  C   UNL     1       0.198  -4.882   3.516  0.00  0.00    +0.331 A 
ATOM      7  O   UNL     1       0.111  -4.285   4.571  0.00  0.00    -0.246 OA
ATOM      8  N   UNL     1       0.086  -4.204   2.359  0.00  0.00    -0.295 N 
ATOM      9  H   UNL     1      -0.064  -3.246   2.374  0.00  0.00    +0.172 HD
ENDROOT
BRANCH   5  10
ATOM     10  C   UNL     1       0.535  -6.920   4.799  0.00  0.00    +0.054 C 
ATOM     11  C   UNL     1       1.705  -6.337   5.594  0.00  0.00    +0.032 C 
ATOM     12  C   UNL     1       1.835  -7.077   6.927  0.00  0.00    -0.008 C 
ATOM     13  C   UNL     1       2.088  -8.563   6.662  0.00  0.00    +0.007 C 
ATOM     14  C   UNL     1       0.919  -9.146   5.867  0.00  0.00    -0.008 C 
ATOM     15  C   UNL     1       0.789  -8.405   4.534  0.00  0.00    +0.032 C 
ATOM     16  C   UNL     1      -0.374  -8.984   6.668  0.00  0.00    +0.007 C 
ATOM     17  C   UNL     1      -0.628  -7.498   6.933  0.00  0.00    -0.008 C 
ATOM     18  C   UNL     1       0.542  -6.915   7.728  0.00  0.00    +0.007 C 
ATOM     19  C   UNL     1      -0.758  -6.758   5.600  0.00  0.00    +0.032 C 
ENDBRANCH   5  10
BRANCH   1  20
ATOM     20  N   UNL     1       0.054  -4.171  -0.023  0.00  0.00    -0.301 N 
ATOM     21  H   UNL     1       0.209  -4.621  -0.868  0.00  0.00    +0.154 HD
BRANCH  20  26
ATOM     22  C   UNL     1      -1.358   1.324   0.050  0.00  0.00    +0.047 C 
ATOM     23  C   UNL     1      -0.983  -0.136   0.030  0.00  0.00    -0.015 A 
ATOM     24  C   UNL     1      -1.598  -1.018   0.899  0.00  0.00    +0.008 A 
ATOM     25  C   UNL     1      -1.256  -2.356   0.883  0.00  0.00    +0.024 A 
ATOM     26  C   UNL     1      -0.294  -2.817  -0.006  0.00  0.00    +0.035 A 
ATOM     27  C   UNL     1       0.323  -1.930  -0.878  0.00  0.00    +0.062 A 
ATOM     28  C   UNL     1      -0.027  -0.591  -0.863  0.00  0.00    +0.128 A 
ATOM     29  F   UNL     1       0.568   0.272  -1.714  0.00  0.00    -0.205 F 
ENDBRANCH  20  26
ENDBRANCH   1  20
TORSDOF 3
