REMARK  Name = ZINC28535095
REMARK  8 active torsions:
REMARK  status: ('A' for Active; 'I' for Inactive)
REMARK    1  A    between atoms: C_1  and  C_2
REMARK    2  A    between atoms: C_6  and  C_8
REMARK    3  A    between atoms: C_8  and  S_9
REMARK    4  A    between atoms: S_9  and  C_10
REMARK    5  A    between atoms: N_16  and  N_17
REMARK    6  A    between atoms: N_22  and  C_23
REMARK    7  A    between atoms: C_27  and  C_30
REMARK    8  A    between atoms: C_28  and  C_29
REMARK                            x       y       z     vdW  Elec       q    Type
REMARK                         _______ _______ _______ _____ _____    ______ ____
ROOT
ATOM      1  C   UNL     1      -3.476   2.280  -0.171  0.00  0.00    +0.213 A 
ATOM      2  N   UNL     1      -4.703   1.845  -0.379  0.00  0.00    -0.120 NA
ATOM      3  N   UNL     1      -4.996   0.594  -0.381  0.00  0.00    -0.126 NA
ATOM      4  C   UNL     1      -4.077  -0.325  -0.179  0.00  0.00    +0.212 A 
ATOM      5  C   UNL     1      -2.732   0.075   0.045  0.00  0.00    +0.314 A 
ATOM      6  O   UNL     1      -1.855  -0.751   0.236  0.00  0.00    -0.262 OA
ATOM      7  N   UNL     1      -2.454   1.399   0.042  0.00  0.00    -0.184 N 
ATOM      8  N   UNL     1      -4.419  -1.678  -0.186  0.00  0.00    -0.293 N 
ATOM      9  H   UNL     1      -3.633  -2.445  -0.116  0.00  0.00    +0.154 HD
ENDROOT
BRANCH   8  10
ATOM     10  C   UNL     1      -5.759  -2.059  -0.281  0.00  0.00    +0.036 A 
ATOM     11  C   UNL     1      -6.755  -1.237   0.232  0.00  0.00    +0.023 A 
ATOM     12  C   UNL     1      -8.079  -1.617   0.136  0.00  0.00    +0.002 A 
ATOM     13  C   UNL     1      -8.414  -2.814  -0.470  0.00  0.00    +0.004 A 
ATOM     14  C   UNL     1      -7.426  -3.635  -0.981  0.00  0.00    -0.046 A 
ATOM     15  C   UNL     1      -6.100  -3.259  -0.894  0.00  0.00    -0.026 A 
ATOM     16  C   UNL     1      -5.024  -4.151  -1.458  0.00  0.00    +0.046 C 
ATOM     17  C   UNL     1      -7.796  -4.939  -1.640  0.00  0.00    +0.044 C 
ENDBRANCH   8  10
BRANCH   7  18
ATOM     18  N   UNL     1      -1.148   1.857   0.258  0.00  0.00    -0.258 N 
ATOM     19  C   UNL     1      -0.743   2.643   1.295  0.00  0.00    +0.111 A 
ATOM     20  C   UNL     1       0.581   2.867   1.163  0.00  0.00    +0.021 A 
ATOM     21  C   UNL     1       1.007   2.198  -0.002  0.00  0.00    +0.021 A 
ATOM     22  C   UNL     1      -0.072   1.592  -0.537  0.00  0.00    +0.111 A 
ENDBRANCH   7  18
BRANCH   1  23
ATOM     23  S   UNL     1      -3.150   4.011  -0.174  0.00  0.00    -0.080 S 
BRANCH  23  24
ATOM     24  C   UNL     1      -4.815   4.644  -0.493  0.00  0.00    +0.112 C 
BRANCH  24  30
ATOM     25  C   UNL     1      -5.153   9.062   1.834  0.00  0.00    +0.044 C 
ATOM     26  C   UNL     1      -4.941   8.263   0.574  0.00  0.00    -0.050 A 
ATOM     27  C   UNL     1      -4.716   8.912  -0.626  0.00  0.00    +0.003 A 
ATOM     28  C   UNL     1      -4.522   8.180  -1.782  0.00  0.00    +0.001 A 
ATOM     29  C   UNL     1      -4.554   6.799  -1.739  0.00  0.00    +0.004 A 
ATOM     30  C   UNL     1      -4.780   6.150  -0.540  0.00  0.00    -0.037 A 
ATOM     31  C   UNL     1      -4.979   6.882   0.616  0.00  0.00    +0.007 A 
ENDBRANCH  24  30
ENDBRANCH  23  24
ENDBRANCH   1  23
TORSDOF 5
