REMARK  Name = ZINC09542466
REMARK  11 active torsions:
REMARK  status: ('A' for Active; 'I' for Inactive)
REMARK    1  A    between atoms: C_1  and  C_2
REMARK    2  A    between atoms: C_2  and  C_3
REMARK    3  A    between atoms: C_6  and  C_9
REMARK    4  A    between atoms: C_11  and  C_26
REMARK    5  A    between atoms: C_13  and  C_16
REMARK    6  A    between atoms: C_20  and  O_23
REMARK    7  A    between atoms: C_21  and  O_22
REMARK    8  A    between atoms: O_23  and  C_24
REMARK    9  A    between atoms: C_24  and  C_25
REMARK   10  A    between atoms: C_31  and  O_32
REMARK   11  A    between atoms: O_32  and  C_33
REMARK                            x       y       z     vdW  Elec       q    Type
REMARK                         _______ _______ _______ _____ _____    ______ ____
ROOT
ATOM      1  C   UNL     1      -2.651  -0.343  -1.944  0.00  0.00    +0.040 C 
ATOM      2  N   UNL     1      -2.294  -0.042  -0.753  0.00  0.00    -0.298 NA
ATOM      3  C   UNL     1      -1.292  -0.776   0.011  0.00  0.00    +0.084 C 
ATOM      4  C   UNL     1      -0.799  -1.988  -2.015  0.00  0.00    -0.028 C 
ATOM      5  C   UNL     1      -2.082  -1.508  -2.703  0.00  0.00    +0.044 C 
ATOM      6  N   UNL     1      -1.067  -2.109  -0.569  0.00  0.00    +0.401 N 
ATOM      7  H   UNL     1      -1.903  -2.688  -0.425  0.00  0.00    -0.081 HD
ATOM      8  H   UNL     1      -0.262  -2.549  -0.109  0.00  0.00    -0.081 HD
ENDROOT
BRANCH   3   9
ATOM      9  C   UNL     1       0.002  -0.004   0.002  0.00  0.00    +0.002 A 
ATOM     10  C   UNL     1       1.208  -0.678  -0.013  0.00  0.00    +0.022 A 
ATOM     11  C   UNL     1       2.397   0.030  -0.020  0.00  0.00    +0.018 A 
ATOM     12  C   UNL     1       2.380   1.414  -0.012  0.00  0.00    +0.019 A 
ATOM     13  C   UNL     1       1.176   2.091   0.002  0.00  0.00    +0.047 A 
ATOM     14  C   UNL     1      -0.017   1.383   0.010  0.00  0.00    +0.123 A 
ATOM     15 BR   UNL     1       4.046  -0.894  -0.040  0.00  0.00    -0.050 Br
BRANCH  14  16
ATOM     16  O   UNL     1      -1.202   2.047   0.019  0.00  0.00    -0.495 OA
ATOM     17  C   UNL     1      -1.146   3.475   0.026  0.00  0.00    +0.277 C 
ENDBRANCH  14  16
ENDBRANCH   3   9
BRANCH   1  21
ATOM     18  C   UNL     1      -5.586   2.067  -3.843  0.00  0.00    -0.048 A 
ATOM     19  C   UNL     1      -5.178   2.366  -2.555  0.00  0.00    +0.004 A 
ATOM     20  C   UNL     1      -4.225   1.587  -1.932  0.00  0.00    +0.010 A 
ATOM     21  C   UNL     1      -3.672   0.495  -2.604  0.00  0.00    -0.004 A 
ATOM     22  C   UNL     1      -4.084   0.203  -3.906  0.00  0.00    +0.010 A 
ATOM     23  C   UNL     1      -5.042   0.987  -4.515  0.00  0.00    +0.004 A 
BRANCH  18  25
ATOM     24  C   UNL     1      -5.940   4.062  -5.272  0.00  0.00    +0.009 C 
ATOM     25  C   UNL     1      -6.627   2.922  -4.518  0.00  0.00    +0.032 C 
ENDBRANCH  18  25
ENDBRANCH   1  21
BRANCH   4  26
ATOM     26  C   UNL     1      -0.398  -3.331  -2.568  0.00  0.00    -0.016 A 
ATOM     27  C   UNL     1      -0.805  -4.490  -1.933  0.00  0.00    +0.006 A 
ATOM     28  C   UNL     1      -0.439  -5.723  -2.437  0.00  0.00    +0.004 A 
ATOM     29  C   UNL     1       0.336  -5.804  -3.580  0.00  0.00    +0.049 A 
ATOM     30  C   UNL     1       0.748  -4.647  -4.221  0.00  0.00    +0.162 A 
ATOM     31  C   UNL     1       0.375  -3.405  -3.716  0.00  0.00    +0.160 A 
BRANCH  31  32
ATOM     32  O   UNL     1       0.772  -2.267  -4.345  0.00  0.00    -0.503 OA
ATOM     33  H   UNL     1       1.620  -1.921  -4.034  0.00  0.00    +0.292 HD
ENDBRANCH  31  32
BRANCH  30  34
ATOM     34  O   UNL     1       1.510  -4.725  -5.344  0.00  0.00    -0.489 OA
BRANCH  34  35
ATOM     35  C   UNL     1       1.849  -6.033  -5.809  0.00  0.00    +0.226 C 
ATOM     36  C   UNL     1       2.703  -5.920  -7.073  0.00  0.00    +0.048 C 
ENDBRANCH  34  35
ENDBRANCH  30  34
ENDBRANCH   4  26
TORSDOF 8
