REMARK  Name = ZINC67569596
REMARK  6 active torsions:
REMARK  status: ('A' for Active; 'I' for Inactive)
REMARK    1  A    between atoms: C_4  and  C_7
REMARK    2  A    between atoms: C_7  and  N_8
REMARK    3  A    between atoms: C_13  and  C_15
REMARK    4  A    between atoms: C_15  and  N_16
REMARK    5  A    between atoms: N_19  and  C_20
REMARK    6  A    between atoms: C_20  and  C_21
REMARK                            x       y       z     vdW  Elec       q    Type
REMARK                         _______ _______ _______ _____ _____    ______ ____
ROOT
ATOM      1  N   UNL     1       5.953  -0.209  -0.509  0.00  0.00    -0.301 N 
ATOM      2  C   UNL     1       6.714   0.561  -1.312  0.00  0.00    +0.300 C 
ATOM      3  O   UNL     1       7.843   0.861  -0.974  0.00  0.00    -0.253 OA
ATOM      4  N   UNL     1       6.225   0.997  -2.489  0.00  0.00    -0.292 N 
ATOM      5  H   UNL     1       5.052  -0.448  -0.778  0.00  0.00    +0.150 HD
ATOM      6  H   UNL     1       5.324   0.757  -2.759  0.00  0.00    +0.151 HD
ENDROOT
BRANCH   1   7
ATOM      7  C   UNL     1       6.485  -0.683   0.771  0.00  0.00    +0.090 C 
BRANCH   7  13
ATOM      8  N   UNL     1       5.141  -2.708   0.485  0.00  0.00    +0.385 N 
ATOM      9  C   UNL     1       4.232  -3.664   1.129  0.00  0.00    -0.078 C 
ATOM     10  C   UNL     1       2.917  -2.965   1.482  0.00  0.00    -0.019 C 
ATOM     11  C   UNL     1       3.203  -1.805   2.441  0.00  0.00    -0.003 C 
ATOM     12  C   UNL     1       4.210  -0.853   1.788  0.00  0.00    -0.014 C 
ATOM     13  C   UNL     1       5.476  -1.630   1.424  0.00  0.00    -0.051 C 
ATOM     14  H   UNL     1       4.691  -2.316  -0.329  0.00  0.00    -0.081 HD
BRANCH   8  15
ATOM     15  C   UNL     1       6.370  -3.401   0.078  0.00  0.00    -0.043 C 
BRANCH  15  19
ATOM     16  C   UNL     1       5.448  -6.287  -2.934  0.00  0.00    +0.000 A 
ATOM     17  C   UNL     1       5.781  -4.994  -3.294  0.00  0.00    +0.000 A 
ATOM     18  C   UNL     1       6.079  -4.061  -2.319  0.00  0.00    +0.002 A 
ATOM     19  C   UNL     1       6.044  -4.419  -0.985  0.00  0.00    -0.064 A 
ATOM     20  C   UNL     1       5.710  -5.711  -0.625  0.00  0.00    +0.002 A 
ATOM     21  C   UNL     1       5.413  -6.646  -1.599  0.00  0.00    +0.000 A 
ENDBRANCH  15  19
ENDBRANCH   8  15
ENDBRANCH   7  13
ENDBRANCH   1   7
BRANCH   4  22
ATOM     22  C   UNL     1       7.052   1.833  -3.362  0.00  0.00    +0.182 C 
BRANCH  22  23
ATOM     23  C   UNL     1       6.277   2.183  -4.606  0.00  0.00    +0.151 A 
ATOM     24  N   UNL     1       6.244   1.498  -5.718  0.00  0.00    -0.133 NA
ATOM     25  N   UNL     1       5.473   2.084  -6.567  0.00  0.00    -0.134 NA
ATOM     26  C   UNL     1       4.979   3.164  -6.032  0.00  0.00    +0.133 A 
ATOM     27  N   UNL     1       5.480   3.260  -4.778  0.00  0.00    -0.314 N 
ATOM     28  C   UNL     1       5.218   4.330  -3.815  0.00  0.00    +0.125 C 
ATOM     29  C   UNL     1       3.836   4.931  -4.086  0.00  0.00    +0.022 C 
ATOM     30  C   UNL     1       3.959   6.075  -5.092  0.00  0.00    +0.002 C 
ATOM     31  C   UNL     1       4.510   5.562  -6.419  0.00  0.00    +0.008 C 
ATOM     32  C   UNL     1       4.019   4.137  -6.666  0.00  0.00    +0.076 C 
ENDBRANCH  22  23
ENDBRANCH   4  22
TORSDOF 6
