REMARK  Name = ZINC01467662
REMARK  9 active torsions:
REMARK  status: ('A' for Active; 'I' for Inactive)
REMARK    1  A    between atoms: C_1  and  C_2
REMARK    2  A    between atoms: C_2  and  O_3
REMARK    3  A    between atoms: O_3  and  C_4
REMARK    4  A    between atoms: C_4  and  C_6
REMARK    5  A    between atoms: C_7  and  C_34
REMARK    6  A    between atoms: C_12  and  C_14
REMARK    7  A    between atoms: C_15  and  C_16
REMARK    8  A    between atoms: N_18  and  C_28
REMARK    9  A    between atoms: C_20  and  C_21
REMARK                            x       y       z     vdW  Elec       q    Type
REMARK                         _______ _______ _______ _____ _____    ______ ____
ROOT
ATOM      1  C   UNL     1       5.514  -0.680  -9.697  0.00  0.00    +0.021 A 
ATOM      2  C   UNL     1       5.905  -1.812 -10.388  0.00  0.00    +0.123 A 
ATOM      3  N   UNL     1       6.540  -1.413 -11.505  0.00  0.00    -0.239 N 
ATOM      4  N   UNL     1       6.570  -0.016 -11.556  0.00  0.00    -0.166 NA
ATOM      5  C   UNL     1       5.961   0.467 -10.496  0.00  0.00    +0.100 A 
ENDROOT
BRANCH   5   6
ATOM      6  C   UNL     1       5.766   1.899 -10.168  0.00  0.00    +0.003 A 
ATOM      7  C   UNL     1       4.605   2.316  -9.519  0.00  0.00    +0.013 A 
ATOM      8  C   UNL     1       4.428   3.650  -9.215  0.00  0.00    +0.039 A 
ATOM      9  C   UNL     1       5.402   4.575  -9.555  0.00  0.00    +0.123 A 
ATOM     10  C   UNL     1       6.558   4.165 -10.200  0.00  0.00    +0.039 A 
ATOM     11  C   UNL     1       6.747   2.833 -10.502  0.00  0.00    +0.013 A 
ATOM     12  F   UNL     1       5.224   5.880  -9.256  0.00  0.00    -0.205 F 
ENDBRANCH   5   6
BRANCH   3  13
ATOM     13  C   UNL     1       7.088  -2.267 -12.471  0.00  0.00    +0.065 A 
ATOM     14  C   UNL     1       6.994  -3.643 -12.316  0.00  0.00    +0.028 A 
ATOM     15  C   UNL     1       7.535  -4.483 -13.270  0.00  0.00    +0.002 A 
ATOM     16  C   UNL     1       8.172  -3.953 -14.378  0.00  0.00    +0.000 A 
ATOM     17  C   UNL     1       8.268  -2.583 -14.534  0.00  0.00    +0.002 A 
ATOM     18  C   UNL     1       7.723  -1.738 -13.588  0.00  0.00    +0.028 A 
ENDBRANCH   3  13
BRANCH   1  20
ATOM     19  C   UNL     1       4.443  -1.785  -7.800  0.00  0.00    +0.068 C 
ATOM     20  C   UNL     1       4.790  -0.635  -8.422  0.00  0.00    +0.016 C 
BRANCH  19  27
ATOM     21  C   UNL     1       1.447  -2.343  -2.514  0.00  0.00    +0.120 A 
ATOM     22  C   UNL     1       1.663  -3.665  -2.882  0.00  0.00    +0.062 A 
ATOM     23  N   UNL     1       2.302  -3.858  -4.008  0.00  0.00    -0.229 NA
ATOM     24  C   UNL     1       2.717  -2.845  -4.748  0.00  0.00    +0.166 A 
ATOM     25  S   UNL     1       2.212  -1.492  -3.885  0.00  0.00    -0.045 S 
ATOM     26  N   UNL     1       3.399  -2.888  -5.949  0.00  0.00    -0.261 N 
ATOM     27  C   UNL     1       3.744  -1.742  -6.569  0.00  0.00    +0.243 C 
ATOM     28  O   UNL     1       3.455  -0.669  -6.070  0.00  0.00    -0.270 OA
ATOM     29  C   UNL     1       1.187  -4.815  -2.032  0.00  0.00    +0.067 C 
ATOM     30  H   UNL     1       3.629  -3.742  -6.346  0.00  0.00    +0.157 HD
BRANCH  21  31
ATOM     31  C   UNL     1       0.776  -1.800  -1.335  0.00  0.00    +0.348 C 
ATOM     32  O   UNL     1       0.312  -2.553  -0.499  0.00  0.00    -0.244 OA
BRANCH  31  33
ATOM     33  O   UNL     1       0.671  -0.465  -1.174  0.00  0.00    -0.461 OA
BRANCH  33  35
ATOM     34  C   UNL     1      -0.019   1.526   0.010  0.00  0.00    +0.048 C 
ATOM     35  C   UNL     1       0.002  -0.004   0.002  0.00  0.00    +0.229 C 
ENDBRANCH  33  35
ENDBRANCH  31  33
ENDBRANCH  21  31
ENDBRANCH  19  27
ENDBRANCH   1  20
TORSDOF 7
