REMARK  Name = ZINC55118863
REMARK  12 active torsions:
REMARK  status: ('A' for Active; 'I' for Inactive)
REMARK    1  A    between atoms: C_1  and  C_2
REMARK    2  A    between atoms: C_4  and  C_28
REMARK    3  A    between atoms: C_5  and  C_9
REMARK    4  A    between atoms: C_7  and  C_8
REMARK    5  A    between atoms: C_9  and  N_10
REMARK    6  A    between atoms: C_17  and  C_21
REMARK    7  A    between atoms: C_21  and  C_22
REMARK    8  A    between atoms: C_21  and  C_23
REMARK    9  A    between atoms: C_21  and  O_27
REMARK   10  A    between atoms: C_23  and  N_24
REMARK   11  A    between atoms: N_24  and  C_25
REMARK   12  A    between atoms: N_24  and  C_26
REMARK                            x       y       z     vdW  Elec       q    Type
REMARK                         _______ _______ _______ _____ _____    ______ ____
ROOT
ATOM      1  N   UNL     1       2.172  -4.554  -0.145  0.00  0.00    -0.291 NA
ATOM      2  C   UNL     1       3.174  -4.207   0.859  0.00  0.00    +0.126 C 
ATOM      3  C   UNL     1       4.596  -4.475   0.415  0.00  0.00    +0.244 C 
ATOM      4  O   UNL     1       4.814  -5.879   0.231  0.00  0.00    -0.490 OA
ATOM      5  C   UNL     1       4.466  -6.367  -0.991  0.00  0.00    +0.125 A 
ATOM      6  C   UNL     1       5.444  -6.805  -1.873  0.00  0.00    +0.046 A 
ATOM      7  C   UNL     1       5.080  -7.277  -3.119  0.00  0.00    +0.010 A 
ATOM      8  C   UNL     1       3.748  -7.311  -3.489  0.00  0.00    -0.018 A 
ATOM      9  C   UNL     1       2.772  -6.883  -2.607  0.00  0.00    +0.015 A 
ATOM     10  C   UNL     1       3.134  -6.422  -1.358  0.00  0.00    +0.009 A 
ATOM     11  C   UNL     1       2.071  -6.002  -0.362  0.00  0.00    +0.123 C 
ENDROOT
BRANCH   8  12
ATOM     12  C   UNL     1       3.359  -7.816  -4.854  0.00  0.00    +0.074 C 
ATOM     13  C   UNL     1       3.339  -6.649  -5.843  0.00  0.00    +0.044 C 
BRANCH  12  14
ATOM     14  O   UNL     1       2.060  -8.409  -4.791  0.00  0.00    -0.386 OA
ATOM     15  H   UNL     1       1.998  -9.157  -4.182  0.00  0.00    +0.211 HD
ENDBRANCH  12  14
BRANCH  12  16
ATOM     16  C   UNL     1       4.374  -8.862  -5.320  0.00  0.00    -0.040 C 
BRANCH  16  17
ATOM     17  N   UNL     1       4.078  -9.248  -6.706  0.00  0.00    +0.378 N 
ATOM     18  C   UNL     1       5.139 -10.134  -7.205  0.00  0.00    -0.096 C 
ATOM     19  C   UNL     1       2.790  -9.953  -6.753  0.00  0.00    -0.096 C 
ATOM     20  H   UNL     1       4.031  -8.422  -7.283  0.00  0.00    -0.083 HD
ENDBRANCH  16  17
ENDBRANCH  12  16
ENDBRANCH   8  12
BRANCH   1  21
ATOM     21  C   UNL     1       0.864  -3.980   0.196  0.00  0.00    +0.120 C 
BRANCH  21  26
ATOM     22  C   UNL     1       1.203   1.788   0.097  0.00  0.00    +0.044 C 
ATOM     23  C   UNL     1       1.115   0.284   0.123  0.00  0.00    -0.047 A 
ATOM     24  C   UNL     1       0.978  -0.421  -1.059  0.00  0.00    +0.007 A 
ATOM     25  C   UNL     1       0.897  -1.800  -1.035  0.00  0.00    -0.046 A 
ATOM     26  C   UNL     1       0.953  -2.476   0.170  0.00  0.00    -0.030 A 
ATOM     27  C   UNL     1       1.091  -1.771   1.351  0.00  0.00    +0.008 A 
ATOM     28  C   UNL     1       1.177  -0.391   1.327  0.00  0.00    -0.047 A 
ATOM     29  C   UNL     1       1.332   0.376   2.615  0.00  0.00    +0.044 C 
ATOM     30  C   UNL     1       0.747  -2.568  -2.323  0.00  0.00    +0.044 C 
ENDBRANCH  21  26
ENDBRANCH   1  21
TORSDOF 6
