REMARK  Name = ZINC64870032
REMARK  4 active torsions:
REMARK  status: ('A' for Active; 'I' for Inactive)
REMARK    1  A    between atoms: C_1  and  C_2
REMARK    2  A    between atoms: C_5  and  N_8
REMARK    3  A    between atoms: C_14  and  C_21
REMARK    4  A    between atoms: C_24  and  C_28
REMARK                            x       y       z     vdW  Elec       q    Type
REMARK                         _______ _______ _______ _____ _____    ______ ____
ROOT
ATOM      1  N   UNL     1       0.149  -4.171  -0.025  0.00  0.00    -0.229 N 
ATOM      2  C   UNL     1       0.172  -4.839   1.148  0.00  0.00    +0.269 A 
ATOM      3  O   UNL     1       0.180  -4.241   2.207  0.00  0.00    -0.266 OA
ATOM      4  C   UNL     1       0.186  -6.312   1.112  0.00  0.00    +0.063 A 
ATOM      5  C   UNL     1       0.209  -7.073   2.279  0.00  0.00    +0.016 A 
ATOM      6  C   UNL     1       0.221  -8.449   2.192  0.00  0.00    +0.008 A 
ATOM      7  C   UNL     1       0.210  -9.075   0.955  0.00  0.00    -0.000 A 
ATOM      8  C   UNL     1       0.187  -8.332  -0.209  0.00  0.00    +0.034 A 
ATOM      9  C   UNL     1       0.174  -6.947  -0.142  0.00  0.00    +0.056 A 
ATOM     10  N   UNL     1       0.151  -6.164  -1.286  0.00  0.00    -0.307 N 
ATOM     11  H   UNL     1       0.143  -6.588  -2.159  0.00  0.00    +0.170 HD
ATOM     12  C   UNL     1       0.134  -4.823  -1.198  0.00  0.00    +0.334 A 
ATOM     13  O   UNL     1       0.109  -4.173  -2.225  0.00  0.00    -0.246 OA
ENDROOT
BRANCH   1  18
ATOM     14  C   UNL     1       0.093   1.504   0.006  0.00  0.00    +0.044 C 
ATOM     15  C   UNL     1       0.108  -0.003  -0.002  0.00  0.00    -0.050 A 
ATOM     16  C   UNL     1      -1.083  -0.705  -0.032  0.00  0.00    +0.005 A 
ATOM     17  C   UNL     1      -1.073  -2.086  -0.040  0.00  0.00    +0.026 A 
ATOM     18  C   UNL     1       0.135  -2.769  -0.018  0.00  0.00    +0.054 A 
ATOM     19  C   UNL     1       1.330  -2.062   0.012  0.00  0.00    +0.026 A 
ATOM     20  C   UNL     1       1.313  -0.681   0.015  0.00  0.00    +0.005 A 
ENDBRANCH   1  18
BRANCH   7  21
ATOM     21  C   UNL     1       0.223 -10.580   0.879  0.00  0.00    +0.242 C 
ATOM     22  N   UNL     1       1.338 -11.030   0.016  0.00  0.00    -0.265 NA
ATOM     23  C   UNL     1       0.779 -12.199  -0.716  0.00  0.00    +0.180 C 
ATOM     24  N   UNL     1      -0.630 -11.783  -0.944  0.00  0.00    -0.177 NA
ATOM     25  O   UNL     1      -0.996 -11.050   0.285  0.00  0.00    -0.274 OA
ATOM     26  H   UNL     1       1.617 -10.302  -0.625  0.00  0.00    +0.127 HD
ATOM     27  H   UNL     1      -1.227 -12.586  -1.075  0.00  0.00    +0.156 HD
BRANCH  23  28
ATOM     28  C   UNL     1       1.500 -12.408  -2.023  0.00  0.00    -0.014 A 
ATOM     29  C   UNL     1       2.830 -12.052  -2.143  0.00  0.00    +0.007 A 
ATOM     30  C   UNL     1       3.491 -12.243  -3.342  0.00  0.00    +0.015 A 
ATOM     31  C   UNL     1       2.821 -12.792  -4.421  0.00  0.00    +0.018 A 
ATOM     32  C   UNL     1       1.490 -13.149  -4.300  0.00  0.00    +0.015 A 
ATOM     33  C   UNL     1       0.832 -12.961  -3.099  0.00  0.00    +0.007 A 
ATOM     34 BR   UNL     1       3.725 -13.054  -6.061  0.00  0.00    -0.050 Br
ENDBRANCH  23  28
ENDBRANCH   7  21
TORSDOF 3
