REMARK  Name = ZINC15866347
REMARK  7 active torsions:
REMARK  status: ('A' for Active; 'I' for Inactive)
REMARK    1  A    between atoms: C_1  and  C_2
REMARK    2  A    between atoms: C_5  and  C_9
REMARK    3  A    between atoms: C_7  and  C_8
REMARK    4  A    between atoms: C_12  and  C_20
REMARK    5  A    between atoms: C_23  and  C_26
REMARK    6  A    between atoms: C_26  and  C_27
REMARK    7  A    between atoms: C_26  and  C_28
REMARK                            x       y       z     vdW  Elec       q    Type
REMARK                         _______ _______ _______ _____ _____    ______ ____
ROOT
ATOM      1  C   UNL     1       2.417   0.032   0.286  0.00  0.00    +0.106 C 
ATOM      2  C   UNL     1       2.369   1.359  -0.481  0.00  0.00    +0.059 C 
ATOM      3  C   UNL     1       1.177   2.195   0.003  0.00  0.00    +0.144 C 
ATOM      4  N   UNL     1      -0.016   1.353   0.009  0.00  0.00    -0.206 N 
ATOM      5  C   UNL     1       0.002  -0.004   0.002  0.00  0.00    +0.236 A 
ATOM      6  N   UNL     1      -1.237  -0.409   0.008  0.00  0.00    -0.092 NA
ATOM      7  N   UNL     1      -2.037   0.602   0.021  0.00  0.00    -0.021 NA
ATOM      8  N   UNL     1      -1.365   1.708   0.018  0.00  0.00    -0.042 NA
ATOM      9  N   UNL     1       1.186  -0.728  -0.008  0.00  0.00    -0.305 N 
ATOM     10  H   UNL     1       1.204  -1.680  -0.196  0.00  0.00    +0.150 HD
ENDROOT
BRANCH   1  15
ATOM     11  C   UNL     1       7.027  -3.017  -1.400  0.00  0.00    +0.044 C 
ATOM     12  C   UNL     1       5.825  -2.221  -0.960  0.00  0.00    -0.048 A 
ATOM     13  C   UNL     1       4.685  -2.203  -1.742  0.00  0.00    +0.004 A 
ATOM     14  C   UNL     1       3.580  -1.477  -1.337  0.00  0.00    +0.006 A 
ATOM     15  C   UNL     1       3.619  -0.763  -0.154  0.00  0.00    -0.027 A 
ATOM     16  C   UNL     1       4.759  -0.782   0.628  0.00  0.00    +0.009 A 
ATOM     17  C   UNL     1       5.862  -1.511   0.225  0.00  0.00    -0.047 A 
ATOM     18  C   UNL     1       7.104  -1.531   1.077  0.00  0.00    +0.044 C 
ENDBRANCH   1  15
BRANCH   3  19
ATOM     19  C   UNL     1       0.967   3.361  -0.929  0.00  0.00    -0.023 A 
ATOM     20  C   UNL     1       0.715   3.138  -2.270  0.00  0.00    +0.006 A 
ATOM     21  C   UNL     1       0.518   4.207  -3.123  0.00  0.00    +0.004 A 
ATOM     22  C   UNL     1       0.582   5.500  -2.638  0.00  0.00    -0.045 A 
ATOM     23  C   UNL     1       0.839   5.723  -1.298  0.00  0.00    +0.004 A 
ATOM     24  C   UNL     1       1.031   4.654  -0.443  0.00  0.00    +0.006 A 
BRANCH  22  25
ATOM     25  C   UNL     1       0.373   6.666  -3.569  0.00  0.00    +0.013 C 
ATOM     26  C   UNL     1       1.431   6.633  -4.674  0.00  0.00    +0.012 C 
ATOM     27  C   UNL     1      -1.020   6.575  -4.195  0.00  0.00    +0.012 C 
ENDBRANCH  22  25
ENDBRANCH   3  19
TORSDOF 3
