REMARK  Name = ZINC10249275
REMARK  9 active torsions:
REMARK  status: ('A' for Active; 'I' for Inactive)
REMARK    1  A    between atoms: C_1  and  C_2
REMARK    2  A    between atoms: C_5  and  C_38
REMARK    3  A    between atoms: N_14  and  C_15
REMARK    4  A    between atoms: C_15  and  C_16
REMARK    5  A    between atoms: C_16  and  C_18
REMARK    6  A    between atoms: C_16  and  C_19
REMARK    7  A    between atoms: C_19  and  S_20
REMARK    8  A    between atoms: S_20  and  C_21
REMARK    9  A    between atoms: N_36  and  C_37
REMARK                            x       y       z     vdW  Elec       q    Type
REMARK                         _______ _______ _______ _____ _____    ______ ____
ROOT
ATOM      1  C   UNL     1       6.398   8.483  -4.010  0.00  0.00    +0.009 C 
ATOM      2  C   UNL     1       7.655   9.332  -3.804  0.00  0.00    +0.004 C 
ATOM      3  C   UNL     1       7.622  10.532  -4.756  0.00  0.00    +0.009 C 
ATOM      4  C   UNL     1       6.410  11.405  -4.422  0.00  0.00    +0.004 C 
ATOM      5  C   UNL     1       6.493  11.847  -2.960  0.00  0.00    +0.111 C 
ATOM      6  N   UNL     1       6.520  10.664  -2.090  0.00  0.00    -0.300 N 
ATOM      7  C   UNL     1       7.701   9.835  -2.360  0.00  0.00    +0.111 C 
ATOM      8  C   UNL     1       6.464  11.026  -0.764  0.00  0.00    +0.201 A 
ATOM      9  N   UNL     1       6.846  12.188  -0.274  0.00  0.00    -0.196 NA
ATOM     10  C   UNL     1       6.663  12.208   1.047  0.00  0.00    +0.170 A 
ATOM     11  C   UNL     1       6.125  10.980   1.415  0.00  0.00    +0.153 A 
ATOM     12  N   UNL     1       6.002  10.241   0.245  0.00  0.00    -0.306 N 
ATOM     13  C   UNL     1       5.833  10.736   2.768  0.00  0.00    +0.280 A 
ATOM     14  O   UNL     1       5.360   9.667   3.113  0.00  0.00    -0.265 OA
ATOM     15  N   UNL     1       6.080  11.698   3.681  0.00  0.00    -0.273 N 
ATOM     16  H   UNL     1       5.874  11.527   4.645  0.00  0.00    +0.173 HD
ATOM     17  C   UNL     1       6.601  12.882   3.315  0.00  0.00    +0.331 A 
ATOM     18  O   UNL     1       6.811  13.726   4.165  0.00  0.00    -0.246 OA
ATOM     19  N   UNL     1       6.896  13.156   2.030  0.00  0.00    -0.280 N 
ATOM     20  C   UNL     1       7.462  14.459   1.672  0.00  0.00    +0.155 C 
ATOM     21  C   UNL     1       6.403  12.638  -5.329  0.00  0.00    +0.009 C 
ENDROOT
BRANCH  12  22
ATOM     22  C   UNL     1       5.481   8.877   0.124  0.00  0.00    +0.129 C 
BRANCH  22  23
ATOM     23  C   UNL     1       3.955   8.921   0.027  0.00  0.00    +0.016 C 
ATOM     24  C   UNL     1       3.546   9.627  -1.267  0.00  0.00    +0.010 C 
BRANCH  23  25
ATOM     25  C   UNL     1       3.403   7.494   0.026  0.00  0.00    +0.081 C 
BRANCH  25  26
ATOM     26  S   UNL     1       1.594   7.546   0.060  0.00  0.00    -0.098 S 
BRANCH  26  27
ATOM     27  C   UNL     1       1.238   5.821   0.052  0.00  0.00    +0.136 A 
ATOM     28  N   UNL     1       0.069   5.220   0.069  0.00  0.00    -0.233 NA
ATOM     29  C   UNL     1      -0.056   3.875   0.060  0.00  0.00    +0.079 A 
ATOM     30  C   UNL     1      -1.244   3.108   0.076  0.00  0.00    +0.029 A 
ATOM     31  C   UNL     1      -1.194   1.739   0.057  0.00  0.00    +0.002 A 
ATOM     32  C   UNL     1       0.015   1.058   0.034  0.00  0.00    +0.001 A 
ATOM     33  C   UNL     1       1.196   1.776   0.018  0.00  0.00    +0.017 A 
ATOM     34  C   UNL     1       1.156   3.148   0.031  0.00  0.00    +0.040 A 
ATOM     35  S   UNL     1       2.374   4.441   0.019  0.00  0.00    -0.061 S 
ENDBRANCH  26  27
ENDBRANCH  25  26
ENDBRANCH  23  25
ENDBRANCH  22  23
ENDBRANCH  12  22
TORSDOF 5
