REMARK  Name = ZINC39167746
REMARK  5 active torsions:
REMARK  status: ('A' for Active; 'I' for Inactive)
REMARK    1  A    between atoms: C_7  and  C_10
REMARK    2  A    between atoms: N_11  and  N_12
REMARK    3  A    between atoms: C_13  and  C_15
REMARK    4  A    between atoms: N_19  and  C_21
REMARK    5  A    between atoms: C_21  and  C_22
REMARK                            x       y       z     vdW  Elec       q    Type
REMARK                         _______ _______ _______ _____ _____    ______ ____
ROOT
ATOM      1  N   UNL     1       0.255  -5.437  -0.030  0.00  0.00    -0.205 N 
ATOM      2  C   UNL     1       0.733  -6.697  -0.041  0.00  0.00    +0.256 C 
ATOM      3  O   UNL     1       1.930  -6.892  -0.054  0.00  0.00    -0.272 OA
ATOM      4  H   UNL     1      -0.702  -5.281  -0.020  0.00  0.00    +0.177 HD
ENDROOT
BRANCH   2   5
ATOM      5  C   UNL     1      -0.220  -7.864  -0.038  0.00  0.00    +0.198 C 
ATOM      6  C   UNL     1      -1.063  -7.863  -1.296  0.00  0.00    +0.038 C 
ATOM      7  C   UNL     1      -0.798  -8.986  -1.933  0.00  0.00    +0.101 C 
ATOM      8  N   UNL     1       0.130  -9.754  -1.253  0.00  0.00    -0.268 N 
ATOM      9  N   UNL     1       0.523  -9.139  -0.096  0.00  0.00    -0.223 NA
ATOM     10 BR   UNL     1      -2.264  -6.511  -1.846  0.00  0.00    -0.051 Br
ATOM     11  H   UNL     1       1.519  -8.977  -0.092  0.00  0.00    +0.146 HD
BRANCH   8  12
ATOM     12  C   UNL     1       0.624 -11.054  -1.710  0.00  0.00    +0.158 C 
BRANCH  12  13
ATOM     13  C   UNL     1      -0.326 -12.137  -1.267  0.00  0.00    -0.029 A 
ATOM     14  C   UNL     1      -0.148 -12.753  -0.042  0.00  0.00    +0.006 A 
ATOM     15  C   UNL     1      -1.019 -13.746   0.365  0.00  0.00    +0.020 A 
ATOM     16  C   UNL     1      -2.068 -14.124  -0.454  0.00  0.00    +0.041 A 
ATOM     17  C   UNL     1      -2.246 -13.507  -1.679  0.00  0.00    +0.020 A 
ATOM     18  C   UNL     1      -1.377 -12.510  -2.083  0.00  0.00    +0.006 A 
ATOM     19 CL   UNL     1      -3.162 -15.371   0.057  0.00  0.00    -0.084 Cl
ENDBRANCH  12  13
ENDBRANCH   8  12
ENDBRANCH   2   5
BRANCH   1  21
ATOM     20  C   UNL     1       0.677  -3.128  -0.022  0.00  0.00    +0.136 C 
ATOM     21  N   UNL     1       1.141  -4.352  -0.033  0.00  0.00    -0.188 NA
BRANCH  20  28
ATOM     22  C   UNL     1      -0.016   1.353   0.009  0.00  0.00    +0.001 A 
ATOM     23  C   UNL     1       1.164   2.102   0.002  0.00  0.00    +0.002 A 
ATOM     24  C   UNL     1       2.384   1.514  -0.013  0.00  0.00    +0.026 A 
ATOM     25  C   UNL     1       2.485   0.097  -0.022  0.00  0.00    +0.043 A 
ATOM     26  N   UNL     1       3.531  -0.702  -0.037  0.00  0.00    -0.380 N 
ATOM     27  C   UNL     1       3.076  -2.096  -0.040  0.00  0.00    +0.150 C 
ATOM     28  C   UNL     1       1.565  -2.042  -0.024  0.00  0.00    +0.000 C 
ATOM     29  C   UNL     1       1.238  -0.688  -0.013  0.00  0.00    +0.004 A 
ATOM     30  C   UNL     1       0.002  -0.004   0.002  0.00  0.00    +0.010 A 
ATOM     31  H   UNL     1       4.458  -0.414  -0.045  0.00  0.00    +0.160 HD
ENDBRANCH  20  28
ENDBRANCH   1  21
TORSDOF 5
