REMARK  Name = ZINC13630297
REMARK  11 active torsions:
REMARK  status: ('A' for Active; 'I' for Inactive)
REMARK    1  A    between atoms: C_4  and  C_7
REMARK    2  A    between atoms: C_7  and  C_8
REMARK    3  A    between atoms: C_8  and  O_9
REMARK    4  A    between atoms: O_9  and  C_10
REMARK    5  A    between atoms: C_15  and  C_16
REMARK    6  A    between atoms: N_18  and  C_19
REMARK    7  A    between atoms: C_19  and  N_21
REMARK    8  A    between atoms: N_21  and  N_22
REMARK    9  A    between atoms: C_23  and  C_25
REMARK   10  A    between atoms: N_30  and  C_32
REMARK   11  A    between atoms: C_32  and  C_33
REMARK                            x       y       z     vdW  Elec       q    Type
REMARK                         _______ _______ _______ _____ _____    ______ ____
ROOT
ATOM      1  C   UNL     1      -0.021   1.708   0.011  0.00  0.00    +0.153 C 
ATOM      2  S   UNL     1       0.002  -0.004   0.002  0.00  0.00    -0.017 S 
ENDROOT
BRANCH   1   5
ATOM      3  C   UNL     1       2.313   1.740  -0.011  0.00  0.00    +0.253 C 
ATOM      4  O   UNL     1       2.329   0.524  -0.017  0.00  0.00    -0.270 OA
ATOM      5  N   UNL     1       1.137   2.397   0.004  0.00  0.00    -0.263 N 
ATOM      6  H   UNL     1       1.124   3.367   0.009  0.00  0.00    +0.157 HD
BRANCH   3  12
ATOM      7  C   UNL     1       4.805   1.814  -0.034  0.00  0.00    +0.133 A 
ATOM      8  C   UNL     1       5.991   2.534  -0.042  0.00  0.00    +0.046 A 
ATOM      9  C   UNL     1       5.962   3.914  -0.035  0.00  0.00    +0.004 A 
ATOM     10  C   UNL     1       4.753   4.590  -0.020  0.00  0.00    +0.001 A 
ATOM     11  C   UNL     1       3.566   3.892  -0.017  0.00  0.00    +0.017 A 
ATOM     12  C   UNL     1       3.580   2.494  -0.019  0.00  0.00    +0.079 A 
BRANCH   7  13
ATOM     13  O   UNL     1       4.832   0.458  -0.041  0.00  0.00    -0.491 OA
BRANCH  13  14
ATOM     14  C   UNL     1       6.118  -0.166  -0.056  0.00  0.00    +0.233 C 
BRANCH  14  15
ATOM     15  C   UNL     1       5.947  -1.686  -0.062  0.00  0.00    +0.076 C 
BRANCH  15  19
ATOM     16  C   UNL     1       9.790  -3.550  -0.109  0.00  0.00    +0.000 A 
ATOM     17  C   UNL     1       9.180  -3.255   1.096  0.00  0.00    +0.000 A 
ATOM     18  C   UNL     1       7.937  -2.651   1.111  0.00  0.00    +0.004 A 
ATOM     19  C   UNL     1       7.303  -2.344  -0.078  0.00  0.00    -0.044 A 
ATOM     20  C   UNL     1       7.910  -2.645  -1.283  0.00  0.00    +0.004 A 
ATOM     21  C   UNL     1       9.156  -3.244  -1.298  0.00  0.00    +0.000 A 
ENDBRANCH  15  19
ENDBRANCH  14  15
ENDBRANCH  13  14
ENDBRANCH   7  13
ENDBRANCH   3  12
ENDBRANCH   1   5
BRANCH   1  22
ATOM     22  N   UNL     1      -1.197   2.366   0.021  0.00  0.00    -0.246 N 
ATOM     23  H   UNL     1      -2.031   1.869   0.022  0.00  0.00    +0.172 HD
BRANCH  22  24
ATOM     24  N   UNL     1      -1.216   3.767   0.028  0.00  0.00    -0.235 N 
ATOM     25  C   UNL     1      -2.393   4.425   0.037  0.00  0.00    +0.234 C 
ATOM     26  O   UNL     1      -3.435   3.804   0.039  0.00  0.00    -0.274 OA
ATOM     27  H   UNL     1      -0.383   4.263   0.027  0.00  0.00    +0.173 HD
BRANCH  25  28
ATOM     28  C   UNL     1      -2.413   5.931   0.046  0.00  0.00    +0.102 C 
ATOM     29  C   UNL     1      -1.737   6.501  -1.223  0.00  0.00    +0.110 C 
ATOM     30  C   UNL     1      -2.566   7.717  -1.571  0.00  0.00    +0.217 C 
ATOM     31  O   UNL     1      -2.220   8.602  -2.325  0.00  0.00    -0.276 OA
ATOM     32  N   UNL     1      -3.744   7.674  -0.925  0.00  0.00    -0.293 N 
ATOM     33  C   UNL     1      -3.855   6.465  -0.100  0.00  0.00    +0.121 C 
BRANCH  32  34
ATOM     34  C   UNL     1      -4.783   8.701  -1.030  0.00  0.00    +0.182 C 
BRANCH  34  35
ATOM     35  C   UNL     1      -5.715   8.359  -2.163  0.00  0.00    +0.122 A 
ATOM     36  C   UNL     1      -6.829   7.610  -2.067  0.00  0.00    +0.046 A 
ATOM     37  C   UNL     1      -7.394   7.548  -3.361  0.00  0.00    +0.041 A 
ATOM     38  C   UNL     1      -6.588   8.256  -4.173  0.00  0.00    +0.195 A 
ATOM     39  O   UNL     1      -5.573   8.745  -3.442  0.00  0.00    -0.466 OA
ENDBRANCH  34  35
ENDBRANCH  32  34
ENDBRANCH  25  28
ENDBRANCH  22  24
ENDBRANCH   1  22
TORSDOF 11
