REMARK  Name = ZINC40018307
REMARK  8 active torsions:
REMARK  status: ('A' for Active; 'I' for Inactive)
REMARK    1  A    between atoms: C_1  and  C_2
REMARK    2  A    between atoms: C_7  and  N_8
REMARK    3  A    between atoms: C_9  and  S_23
REMARK    4  A    between atoms: C_13  and  C_14
REMARK    5  A    between atoms: S_23  and  C_24
REMARK    6  A    between atoms: C_24  and  C_25
REMARK    7  A    between atoms: C_29  and  C_36
REMARK    8  A    between atoms: C_32  and  C_35
REMARK                            x       y       z     vdW  Elec       q    Type
REMARK                         _______ _______ _______ _____ _____    ______ ____
ROOT
ATOM      1  N   UNL     1       0.026  -0.016   2.416  0.00  0.00    -0.254 N 
ATOM      2  C   UNL     1      -1.153   0.397   3.195  0.00  0.00    +0.241 C 
ATOM      3  N   UNL     1      -0.588   1.078   4.372  0.00  0.00    -0.237 N 
ATOM      4  N   UNL     1       0.804   1.031   4.229  0.00  0.00    -0.169 NA
ATOM      5  C   UNL     1       1.147   0.410   3.132  0.00  0.00    +0.151 C 
ATOM      6  H   UNL     1      -1.083   1.481   5.103  0.00  0.00    +0.171 HD
ENDROOT
BRANCH   5   7
ATOM      7  C   UNL     1       2.474   0.202   2.723  0.00  0.00    +0.022 C 
ATOM      8  C   UNL     1       3.634   0.596   3.390  0.00  0.00    +0.006 A 
ATOM      9  C   UNL     1       3.849   1.281   4.605  0.00  0.00    +0.010 A 
ATOM     10  C   UNL     1       5.117   1.534   5.020  0.00  0.00    +0.001 A 
ATOM     11  C   UNL     1       6.225   1.132   4.272  0.00  0.00    +0.002 A 
ATOM     12  C   UNL     1       6.093   0.470   3.096  0.00  0.00    +0.026 A 
ATOM     13  C   UNL     1       4.799   0.169   2.598  0.00  0.00    +0.043 A 
ATOM     14  N   UNL     1       4.409  -0.453   1.502  0.00  0.00    -0.380 N 
ATOM     15  C   UNL     1       2.944  -0.502   1.469  0.00  0.00    +0.152 C 
ATOM     16  H   UNL     1       4.999  -0.824   0.827  0.00  0.00    +0.160 HD
ENDBRANCH   5   7
BRANCH   1  23
ATOM     17  C   UNL     1      -0.018   1.503   0.010  0.00  0.00    +0.045 C 
ATOM     18  C   UNL     1       0.002  -0.004   0.002  0.00  0.00    -0.029 A 
ATOM     19  C   UNL     1       0.006  -0.689  -1.197  0.00  0.00    +0.005 A 
ATOM     20  C   UNL     1       0.024  -2.071  -1.206  0.00  0.00    +0.000 A 
ATOM     21  C   UNL     1       0.040  -2.773  -0.014  0.00  0.00    +0.002 A 
ATOM     22  C   UNL     1       0.035  -2.095   1.188  0.00  0.00    +0.024 A 
ATOM     23  C   UNL     1       0.023  -0.706   1.201  0.00  0.00    +0.041 A 
ENDBRANCH   1  23
BRANCH   2  24
ATOM     24  S   UNL     1      -2.120  -1.052   3.700  0.00  0.00    -0.108 S 
BRANCH  24  25
ATOM     25  C   UNL     1      -0.962  -2.026   4.700  0.00  0.00    +0.168 C 
BRANCH  25  26
ATOM     26  C   UNL     1      -1.648  -3.275   5.189  0.00  0.00    +0.226 C 
ATOM     27  O   UNL     1      -2.804  -3.488   4.893  0.00  0.00    -0.275 OA
ATOM     28  N   UNL     1      -0.976  -4.157   5.957  0.00  0.00    -0.296 N 
ATOM     29  C   UNL     1       0.426  -3.918   6.335  0.00  0.00    +0.139 C 
ATOM     30  C   UNL     1       1.236  -5.178   6.009  0.00  0.00    +0.133 C 
ATOM     31  O   UNL     1       0.602  -6.312   6.605  0.00  0.00    -0.371 OA
ATOM     32  C   UNL     1      -0.713  -6.574   6.110  0.00  0.00    +0.133 C 
ATOM     33  C   UNL     1      -1.625  -5.383   6.446  0.00  0.00    +0.139 C 
ATOM     34  C   UNL     1      -1.264  -7.841   6.769  0.00  0.00    +0.039 C 
ATOM     35  C   UNL     1       2.653  -5.032   6.566  0.00  0.00    +0.039 C 
ENDBRANCH  25  26
ENDBRANCH  24  25
ENDBRANCH   2  24
TORSDOF 5
