REMARK  Name = ZINC03418587
REMARK  6 active torsions:
REMARK  status: ('A' for Active; 'I' for Inactive)
REMARK    1  A    between atoms: C_1  and  N_2
REMARK    2  A    between atoms: N_2  and  C_3
REMARK    3  A    between atoms: N_2  and  C_4
REMARK    4  A    between atoms: C_7  and  C_10
REMARK    5  A    between atoms: C_13  and  C_25
REMARK    6  A    between atoms: C_29  and  N_31
REMARK                            x       y       z     vdW  Elec       q    Type
REMARK                         _______ _______ _______ _____ _____    ______ ____
ROOT
ATOM      1  C   UNL     1      -2.797  -1.048   0.087  0.00  0.00    +0.034 C 
ATOM      2  C   UNL     1      -3.284  -2.457  -0.280  0.00  0.00    -0.068 C 
ATOM      3  C   UNL     1      -1.131  -3.551  -0.002  0.00  0.00    +0.007 C 
ATOM      4  C   UNL     1      -0.540  -2.161  -0.037  0.00  0.00    +0.011 A 
ATOM      5  C   UNL     1      -1.292  -1.042   0.005  0.00  0.00    -0.015 A 
ATOM      6  C   UNL     1      -0.385   0.097  -0.045  0.00  0.00    +0.004 A 
ATOM      7  C   UNL     1      -0.552   1.484  -0.035  0.00  0.00    +0.010 A 
ATOM      8  C   UNL     1       0.539   2.302  -0.095  0.00  0.00    +0.001 A 
ATOM      9  C   UNL     1       1.819   1.767  -0.168  0.00  0.00    +0.002 A 
ATOM     10  C   UNL     1       2.009   0.403  -0.179  0.00  0.00    +0.026 A 
ATOM     11  C   UNL     1       0.912  -0.450  -0.118  0.00  0.00    +0.047 A 
ATOM     12  N   UNL     1       0.780  -1.822  -0.113  0.00  0.00    -0.359 N 
ATOM     13  H   UNL     1       1.515  -2.453  -0.155  0.00  0.00    +0.166 HD
ATOM     14  N   UNL     1      -2.523  -3.461   0.492  0.00  0.00    +0.388 N 
ATOM     15  H   UNL     1      -2.976  -4.377   0.393  0.00  0.00    -0.084 HD
ATOM     16  H   UNL     1      -2.513  -3.189   1.482  0.00  0.00    -0.084 HD
ENDROOT
BRANCH   3  17
ATOM     17  C   UNL     1      -1.117  -4.144  -1.388  0.00  0.00    -0.054 A 
ATOM     18  C   UNL     1      -2.043  -5.109  -1.736  0.00  0.00    +0.004 A 
ATOM     19  C   UNL     1      -2.034  -5.649  -3.008  0.00  0.00    +0.022 A 
ATOM     20  C   UNL     1      -1.090  -5.232  -3.930  0.00  0.00    +0.071 A 
ATOM     21  C   UNL     1      -0.160  -4.270  -3.579  0.00  0.00    +0.145 A 
ATOM     22  C   UNL     1      -0.173  -3.727  -2.308  0.00  0.00    +0.036 A 
ATOM     23 CL   UNL     1      -1.073  -5.915  -5.525  0.00  0.00    -0.081 Cl
BRANCH  21  24
ATOM     24  N   UNL     1       0.850  -3.822  -4.564  0.00  0.00    +0.058 N 
ATOM     25  O   UNL     1       1.669  -2.975  -4.255  0.00  0.00    -0.126 OA
ATOM     26  O   UNL     1       0.862  -4.301  -5.684  0.00  0.00    -0.126 OA
ENDBRANCH  21  24
ENDBRANCH   3  17
BRANCH   1  30
ATOM     27  C   UNL     1      -4.405   1.801  -2.664  0.00  0.00    +0.029 A 
ATOM     28  C   UNL     1      -4.662   1.924  -1.304  0.00  0.00    +0.023 A 
ATOM     29  C   UNL     1      -4.141   1.002  -0.418  0.00  0.00    +0.006 A 
ATOM     30  C   UNL     1      -3.364  -0.043  -0.883  0.00  0.00    -0.042 A 
ATOM     31  C   UNL     1      -3.102  -0.166  -2.235  0.00  0.00    +0.006 A 
ATOM     32  C   UNL     1      -3.624   0.750  -3.127  0.00  0.00    +0.023 A 
BRANCH  27  34
ATOM     33  C   UNL     1      -5.755   3.839  -3.072  0.00  0.00    +0.129 C 
ATOM     34  N   UNL     1      -4.931   2.732  -3.563  0.00  0.00    -0.336 N 
ATOM     35  C   UNL     1      -4.659   2.600  -4.996  0.00  0.00    +0.129 C 
ENDBRANCH  27  34
ENDBRANCH   1  30
TORSDOF 4
