REMARK  Name = ZINC64798042
REMARK  9 active torsions:
REMARK  status: ('A' for Active; 'I' for Inactive)
REMARK    1  A    between atoms: C_1  and  C_2
REMARK    2  A    between atoms: C_2  and  O_3
REMARK    3  A    between atoms: O_3  and  C_4
REMARK    4  A    between atoms: C_6  and  C_15
REMARK    5  A    between atoms: C_9  and  O_10
REMARK    6  A    between atoms: O_10  and  C_11
REMARK    7  A    between atoms: C_11  and  C_12
REMARK    8  A    between atoms: C_25  and  S_26
REMARK    9  A    between atoms: S_26  and  C_29
REMARK                            x       y       z     vdW  Elec       q    Type
REMARK                         _______ _______ _______ _____ _____    ______ ____
ROOT
ATOM      1  C   UNL     1       0.701  -4.787   0.222  0.00  0.00    +0.066 C 
ATOM      2  C   UNL     1      -0.483  -5.513  -0.431  0.00  0.00    +0.109 C 
ATOM      3  C   UNL     1      -1.000  -6.598   0.470  0.00  0.00    +0.218 C 
ATOM      4  O   UNL     1      -2.197  -6.787   0.520  0.00  0.00    -0.275 OA
ATOM      5  N   UNL     1      -0.199  -7.370   1.225  0.00  0.00    -0.283 N 
ATOM      6  C   UNL     1       1.179  -7.025   1.340  0.00  0.00    +0.070 A 
ATOM      7  C   UNL     1       1.581  -5.809   0.859  0.00  0.00    +0.021 A 
ATOM      8  S   UNL     1       3.320  -5.782   1.182  0.00  0.00    -0.097 S 
ATOM      9  C   UNL     1       3.443  -7.380   1.975  0.00  0.00    +0.074 A 
ATOM     10  C   UNL     1       2.161  -7.820   1.925  0.00  0.00    +0.122 A 
ATOM     11  H   UNL     1      -0.553  -8.149   1.683  0.00  0.00    +0.155 HD
ENDROOT
BRANCH   1  14
ATOM     12  C   UNL     1       2.334  -1.965  -1.687  0.00  0.00    +0.162 A 
ATOM     13  C   UNL     1       1.623  -2.661  -0.723  0.00  0.00    +0.053 A 
ATOM     14  C   UNL     1       1.475  -4.031  -0.827  0.00  0.00    -0.035 A 
ATOM     15  C   UNL     1       2.037  -4.711  -1.893  0.00  0.00    +0.008 A 
ATOM     16  C   UNL     1       2.748  -4.022  -2.857  0.00  0.00    +0.050 A 
ATOM     17  C   UNL     1       2.895  -2.648  -2.762  0.00  0.00    +0.163 A 
BRANCH  12  18
ATOM     18  O   UNL     1       2.480  -0.617  -1.585  0.00  0.00    -0.489 OA
BRANCH  18  20
ATOM     19  C   UNL     1       2.146   1.523  -0.512  0.00  0.00    +0.048 C 
ATOM     20  C   UNL     1       1.878   0.018  -0.455  0.00  0.00    +0.226 C 
ENDBRANCH  18  20
ENDBRANCH  12  18
BRANCH  17  21
ATOM     21  O   UNL     1       3.589  -1.969  -3.713  0.00  0.00    -0.479 OA
BRANCH  21  22
ATOM     22  C   UNL     1       4.137  -2.735  -4.788  0.00  0.00    +0.324 C 
BRANCH  22  23
ATOM     23  C   UNL     1       4.866  -1.820  -5.737  0.00  0.00    +0.248 C 
ATOM     24  O   UNL     1       4.913  -0.628  -5.515  0.00  0.00    -0.272 OA
ATOM     25  N   UNL     1       5.467  -2.325  -6.833  0.00  0.00    -0.327 N 
ATOM     26  H   UNL     1       5.430  -3.278  -7.010  0.00  0.00    +0.145 HD
ATOM     27  H   UNL     1       5.937  -1.736  -7.444  0.00  0.00    +0.145 HD
ENDBRANCH  22  23
ENDBRANCH  21  22
ENDBRANCH  17  21
ENDBRANCH   1  14
BRANCH  10  28
ATOM     28  S   UNL     1       1.739  -9.392   2.601  0.00  0.00    +0.027 S 
ATOM     29  O   UNL     1       2.943  -9.955   3.102  0.00  0.00    -0.164 OA
ATOM     30  O   UNL     1       0.595  -9.188   3.420  0.00  0.00    -0.164 OA
BRANCH  28  31
ATOM     31  C   UNL     1       1.224 -10.414   1.261  0.00  0.00    +0.094 A 
ATOM     32  C   UNL     1      -0.122 -10.549   0.973  0.00  0.00    +0.027 A 
ATOM     33  C   UNL     1      -0.526 -11.351  -0.078  0.00  0.00    +0.002 A 
ATOM     34  C   UNL     1       0.415 -12.017  -0.841  0.00  0.00    +0.000 A 
ATOM     35  C   UNL     1       1.760 -11.881  -0.553  0.00  0.00    +0.002 A 
ATOM     36  C   UNL     1       2.165 -11.076   0.496  0.00  0.00    +0.027 A 
ENDBRANCH  28  31
ENDBRANCH  10  28
TORSDOF 8
