REMARK  Name = ZINC38617159
REMARK  12 active torsions:
REMARK  status: ('A' for Active; 'I' for Inactive)
REMARK    1  A    between atoms: C_1  and  C_2
REMARK    2  A    between atoms: C_3  and  C_33
REMARK    3  A    between atoms: N_6  and  C_30
REMARK    4  A    between atoms: C_8  and  C_9
REMARK    5  A    between atoms: C_9  and  C_11
REMARK    6  A    between atoms: C_11  and  C_12
REMARK    7  A    between atoms: C_12  and  N_13
REMARK    8  A    between atoms: C_17  and  C_18
REMARK    9  A    between atoms: C_21  and  O_24
REMARK   10  A    between atoms: O_24  and  C_25
REMARK   11  A    between atoms: C_30  and  C_31
REMARK   12  A    between atoms: C_30  and  C_32
REMARK                            x       y       z     vdW  Elec       q    Type
REMARK                         _______ _______ _______ _____ _____    ______ ____
ROOT
ATOM      1  C   UNL     1      -0.339   1.332   4.558  0.00  0.00    +0.099 C 
ENDROOT
BRANCH   1   2
ATOM      2  C   UNL     1       0.005  -0.097   4.889  0.00  0.00    +0.170 C 
ATOM      3  O   UNL     1       0.641  -0.351   5.892  0.00  0.00    -0.292 OA
BRANCH   2  11
ATOM      4  C   UNL     1       0.949  -2.801   5.377  0.00  0.00    +0.046 C 
ATOM      5  C   UNL     1       0.024  -2.493   4.228  0.00  0.00    -0.012 A 
ATOM      6  C   UNL     1      -0.405  -3.503   3.375  0.00  0.00    +0.120 A 
ATOM      7  C   UNL     1      -1.304  -3.161   2.271  0.00  0.00    +0.272 A 
ATOM      8  O   UNL     1      -1.694  -4.029   1.511  0.00  0.00    -0.266 OA
ATOM      9  N   UNL     1      -1.699  -1.886   2.098  0.00  0.00    -0.272 N 
ATOM     10  C   UNL     1      -1.280  -0.903   2.930  0.00  0.00    +0.265 A 
ATOM     11  C   UNL     1      -0.425  -1.178   4.003  0.00  0.00    +0.086 A 
ATOM     12  O   UNL     1      -1.697   0.360   2.724  0.00  0.00    -0.267 OA
BRANCH   9  13
ATOM     13  C   UNL     1      -2.598  -1.555   0.990  0.00  0.00    +0.088 C 
ATOM     14  C   UNL     1      -1.931  -1.927  -0.336  0.00  0.00    +0.031 C 
ATOM     15  C   UNL     1      -3.904  -2.338   1.141  0.00  0.00    +0.031 C 
ENDBRANCH   9  13
BRANCH   6  16
ATOM     16  C   UNL     1       0.025  -4.854   3.572  0.00  0.00    +0.105 C 
ATOM     17  N   UNL     1       0.365  -5.927   3.729  0.00  0.00    -0.191 NA
ENDBRANCH   6  16
ENDBRANCH   2  11
ENDBRANCH   1   2
BRANCH   1  18
ATOM     18  C   UNL     1       0.099   2.243   5.707  0.00  0.00    +0.123 C 
BRANCH  18  19
ATOM     19  N   UNL     1      -0.236   3.632   5.384  0.00  0.00    -0.255 N 
ATOM     20  C   UNL     1       0.646   4.376   4.739  0.00  0.00    +0.258 C 
ATOM     21  O   UNL     1       1.731   3.937   4.405  0.00  0.00    -0.269 OA
ATOM     22  C   UNL     1       0.248   5.767   4.443  0.00  0.00    +0.077 C 
ATOM     23  C   UNL     1       0.937   6.747   3.803  0.00  0.00    +0.028 C 
ATOM     24  S   UNL     1      -1.390   5.806   5.158  0.00  0.00    -0.061 S 
ATOM     25  C   UNL     1      -1.439   4.121   5.747  0.00  0.00    +0.121 C 
ATOM     26  S   UNL     1      -2.706   3.321   6.575  0.00  0.00    -0.027 S 
BRANCH  23  27
ATOM     27  C   UNL     1       0.390   8.108   3.742  0.00  0.00    -0.024 A 
ATOM     28  C   UNL     1      -0.768   8.434   4.460  0.00  0.00    +0.011 A 
ATOM     29  C   UNL     1      -1.276   9.711   4.399  0.00  0.00    +0.046 A 
ATOM     30  C   UNL     1      -0.642  10.678   3.626  0.00  0.00    +0.120 A 
ATOM     31  C   UNL     1       0.507  10.360   2.911  0.00  0.00    +0.046 A 
ATOM     32  C   UNL     1       1.028   9.087   2.970  0.00  0.00    +0.011 A 
BRANCH  30  33
ATOM     33  O   UNL     1      -1.148  11.937   3.569  0.00  0.00    -0.495 OA
ATOM     34  C   UNL     1      -0.448  12.881   2.756  0.00  0.00    +0.277 C 
ENDBRANCH  30  33
ENDBRANCH  23  27
ENDBRANCH  18  19
ENDBRANCH   1  18
TORSDOF 8
