REMARK  Name = ZINC38891875
REMARK  9 active torsions:
REMARK  status: ('A' for Active; 'I' for Inactive)
REMARK    1  A    between atoms: C_1  and  C_2
REMARK    2  A    between atoms: C_5  and  C_8
REMARK    3  A    between atoms: C_10  and  C_13
REMARK    4  A    between atoms: C_13  and  N_14
REMARK    5  A    between atoms: C_18  and  C_21
REMARK    6  A    between atoms: N_23  and  C_24
REMARK    7  A    between atoms: C_24  and  C_25
REMARK    8  A    between atoms: C_28  and  C_31
REMARK    9  A    between atoms: C_31  and  N_32
REMARK                            x       y       z     vdW  Elec       q    Type
REMARK                         _______ _______ _______ _____ _____    ______ ____
ROOT
ATOM      1  N   UNL     1      -1.278  -7.884   1.946  0.00  0.00    +0.386 N 
ATOM      2  C   UNL     1      -1.931  -8.356   0.719  0.00  0.00    -0.078 C 
ATOM      3  C   UNL     1      -3.392  -8.700   1.014  0.00  0.00    -0.018 C 
ATOM      4  C   UNL     1      -3.447  -9.799   2.079  0.00  0.00    +0.009 C 
ATOM      5  C   UNL     1      -2.699  -9.325   3.328  0.00  0.00    +0.058 C 
ATOM      6  C   UNL     1      -1.264  -8.958   2.947  0.00  0.00    -0.065 C 
ATOM      7  H   UNL     1      -1.785  -7.092   2.312  0.00  0.00    -0.081 HD
ENDROOT
BRANCH   5   8
ATOM      8  C   UNL     1      -2.682 -10.428   4.354  0.00  0.00    +0.215 C 
ATOM      9  O   UNL     1      -1.625 -10.876   4.746  0.00  0.00    -0.276 OA
ATOM     10  N   UNL     1      -3.842 -10.918   4.836  0.00  0.00    -0.311 N 
ATOM     11  H   UNL     1      -4.687 -10.561   4.522  0.00  0.00    +0.149 HD
BRANCH  10  12
ATOM     12  C   UNL     1      -3.825 -11.991   5.833  0.00  0.00    +0.139 C 
BRANCH  12  13
ATOM     13  C   UNL     1      -5.240 -12.355   6.203  0.00  0.00    -0.030 A 
ATOM     14  C   UNL     1      -5.871 -11.703   7.246  0.00  0.00    +0.005 A 
ATOM     15  C   UNL     1      -7.169 -12.036   7.586  0.00  0.00    +0.006 A 
ATOM     16  C   UNL     1      -7.836 -13.021   6.882  0.00  0.00    -0.028 A 
ATOM     17  C   UNL     1      -7.205 -13.673   5.839  0.00  0.00    +0.006 A 
ATOM     18  C   UNL     1      -5.909 -13.337   5.497  0.00  0.00    +0.005 A 
BRANCH  16  19
ATOM     19  C   UNL     1      -9.251 -13.386   7.253  0.00  0.00    +0.157 C 
BRANCH  19  20
ATOM     20  N   UNL     1     -10.185 -12.553   6.492  0.00  0.00    -0.332 N 
ATOM     21  C   UNL     1     -10.682 -11.335   6.872  0.00  0.00    +0.107 A 
ATOM     22  C   UNL     1     -11.499 -10.922   5.884  0.00  0.00    +0.130 A 
ATOM     23  N   UNL     1     -11.501 -11.863   4.927  0.00  0.00    -0.244 NA
ATOM     24  C   UNL     1     -10.712 -12.840   5.282  0.00  0.00    +0.199 A 
ENDBRANCH  19  20
ENDBRANCH  16  19
ENDBRANCH  12  13
ENDBRANCH  10  12
ENDBRANCH   5   8
BRANCH   1  25
ATOM     25  C   UNL     1       0.102  -7.482   1.642  0.00  0.00    +0.022 C 
BRANCH  25  28
ATOM     26  C   UNL     1       0.059  -4.256  -0.021  0.00  0.00    +0.202 A 
ATOM     27  N   UNL     1       0.070  -5.047   1.067  0.00  0.00    -0.193 NA
ATOM     28  C   UNL     1       0.086  -6.299   0.708  0.00  0.00    +0.211 A 
ATOM     29  O   UNL     1       0.086  -6.357  -0.630  0.00  0.00    -0.340 OA
ATOM     30  N   UNL     1       0.064  -5.015  -1.090  0.00  0.00    -0.056 NA
BRANCH  26  35
ATOM     31  C   UNL     1      -0.018   1.503   0.010  0.00  0.00    +0.044 C 
ATOM     32  C   UNL     1       0.002  -0.004   0.002  0.00  0.00    -0.050 A 
ATOM     33  C   UNL     1       0.006  -0.686  -1.201  0.00  0.00    +0.004 A 
ATOM     34  C   UNL     1       0.024  -2.067  -1.214  0.00  0.00    +0.012 A 
ATOM     35  C   UNL     1       0.040  -2.772  -0.013  0.00  0.00    +0.022 A 
ATOM     36  C   UNL     1       0.036  -2.080   1.196  0.00  0.00    +0.012 A 
ATOM     37  C   UNL     1       0.023  -0.700   1.198  0.00  0.00    +0.004 A 
ENDBRANCH  26  35
ENDBRANCH  25  28
ENDBRANCH   1  25
TORSDOF 8
