REMARK  Name = ZINC06860001
REMARK  7 active torsions:
REMARK  status: ('A' for Active; 'I' for Inactive)
REMARK    1  A    between atoms: C_1  and  C_2
REMARK    2  A    between atoms: C_7  and  N_12
REMARK    3  A    between atoms: C_9  and  C_11
REMARK    4  A    between atoms: N_12  and  C_13
REMARK    5  A    between atoms: C_13  and  C_14
REMARK    6  A    between atoms: N_21  and  C_22
REMARK    7  A    between atoms: C_22  and  C_23
REMARK                            x       y       z     vdW  Elec       q    Type
REMARK                         _______ _______ _______ _____ _____    ______ ____
ROOT
ATOM      1  N   UNL     1       1.901   3.705   1.386  0.00  0.00    -0.275 N 
ATOM      2  C   UNL     1       0.868   4.279   2.034  0.00  0.00    +0.303 C 
ATOM      3  O   UNL     1       1.005   4.657   3.182  0.00  0.00    -0.253 OA
ATOM      4  N   UNL     1      -0.317   4.433   1.411  0.00  0.00    -0.294 N 
ATOM      5  H   UNL     1      -0.427   4.131   0.496  0.00  0.00    +0.151 HD
ENDROOT
BRANCH   1  11
ATOM      6  C   UNL     1       5.614   6.102   3.601  0.00  0.00    +0.008 C 
ATOM      7  C   UNL     1       5.074   4.732   3.186  0.00  0.00    -0.009 C 
ATOM      8  C   UNL     1       4.887   3.859   4.428  0.00  0.00    +0.003 C 
ATOM      9  C   UNL     1       4.347   2.489   4.013  0.00  0.00    +0.002 C 
ATOM     10  C   UNL     1       3.002   2.664   3.306  0.00  0.00    +0.023 C 
ATOM     11  C   UNL     1       3.189   3.537   2.063  0.00  0.00    +0.081 C 
ATOM     12  C   UNL     1       3.728   4.907   2.478  0.00  0.00    +0.009 C 
ATOM     13  C   UNL     1       3.915   5.780   1.236  0.00  0.00    +0.009 C 
ENDBRANCH   1  11
BRANCH   1  14
ATOM     14  C   UNL     1       1.735   3.249   0.003  0.00  0.00    +0.183 C 
BRANCH  14  15
ATOM     15  C   UNL     1       1.265   1.817  -0.000  0.00  0.00    +0.122 A 
ATOM     16  C   UNL     1      -0.017   1.410   0.010  0.00  0.00    +0.046 A 
ATOM     17  C   UNL     1       0.002  -0.004   0.002  0.00  0.00    +0.041 A 
ATOM     18  C   UNL     1       1.295  -0.376  -0.012  0.00  0.00    +0.195 A 
ATOM     19  O   UNL     1       2.055   0.731  -0.014  0.00  0.00    -0.466 OA
ENDBRANCH  14  15
ENDBRANCH   1  14
BRANCH   4  20
ATOM     20  C   UNL     1      -1.440   5.056   2.116  0.00  0.00    +0.165 C 
BRANCH  20  21
ATOM     21  C   UNL     1      -2.639   5.109   1.205  0.00  0.00    +0.108 A 
ATOM     22  C   UNL     1      -3.673   4.078   1.071  0.00  0.00    +0.046 A 
ATOM     23  C   UNL     1      -3.881   2.835   1.673  0.00  0.00    +0.013 A 
ATOM     24  C   UNL     1      -4.970   2.087   1.328  0.00  0.00    +0.001 A 
ATOM     25  C   UNL     1      -5.874   2.553   0.383  0.00  0.00    +0.004 A 
ATOM     26  C   UNL     1      -5.687   3.776  -0.223  0.00  0.00    +0.049 A 
ATOM     27  C   UNL     1      -4.585   4.553   0.114  0.00  0.00    +0.168 A 
ATOM     28  O   UNL     1      -4.141   5.759  -0.292  0.00  0.00    -0.354 OA
ATOM     29  N   UNL     1      -2.949   6.076   0.398  0.00  0.00    -0.080 NA
ENDBRANCH  20  21
ENDBRANCH   4  20
TORSDOF 5
