REMARK  Name = ZINC63515228
REMARK  11 active torsions:
REMARK  status: ('A' for Active; 'I' for Inactive)
REMARK    1  A    between atoms: C_1  and  C_2
REMARK    2  A    between atoms: C_4  and  S_12
REMARK    3  A    between atoms: C_5  and  C_11
REMARK    4  A    between atoms: C_6  and  C_10
REMARK    5  A    between atoms: C_7  and  O_8
REMARK    6  A    between atoms: O_8  and  C_9
REMARK    7  A    between atoms: S_12  and  N_15
REMARK    8  A    between atoms: N_15  and  C_16
REMARK    9  A    between atoms: C_16  and  C_17
REMARK   10  A    between atoms: C_17  and  C_18
REMARK   11  A    between atoms: C_26  and  C_28
REMARK                            x       y       z     vdW  Elec       q    Type
REMARK                         _______ _______ _______ _____ _____    ______ ____
ROOT
ATOM      1  N   UNL     1       1.333  -3.790  -2.756  0.00  0.00    -0.190 NA
ATOM      2  H   UNL     1       2.106  -3.572  -3.299  0.00  0.00    +0.148 HD
ENDROOT
BRANCH   1   3
ATOM      3  S   UNL     1      -0.046  -2.879  -2.872  0.00  0.00    +0.059 S 
ATOM      4  O   UNL     1       0.191  -1.912  -3.886  0.00  0.00    -0.153 OA
ATOM      5  O   UNL     1      -0.408  -2.520  -1.546  0.00  0.00    -0.153 OA
BRANCH   3   9
ATOM      6  C   UNL     1      -4.631  -5.320  -2.298  0.00  0.00    +0.047 C 
ATOM      7  C   UNL     1      -3.426  -5.032  -3.156  0.00  0.00    -0.007 A 
ATOM      8  C   UNL     1      -2.425  -4.203  -2.687  0.00  0.00    +0.035 A 
ATOM      9  C   UNL     1      -1.320  -3.938  -3.474  0.00  0.00    +0.109 A 
ATOM     10  C   UNL     1      -1.212  -4.501  -4.732  0.00  0.00    -0.018 A 
ATOM     11  C   UNL     1      -2.210  -5.331  -5.206  0.00  0.00    -0.004 A 
ATOM     12  C   UNL     1      -3.318  -5.603  -4.416  0.00  0.00    +0.126 A 
ATOM     13  C   UNL     1      -2.093  -5.944  -6.577  0.00  0.00    +0.048 C 
ATOM     14  C   UNL     1      -0.006  -4.209  -5.587  0.00  0.00    +0.046 C 
BRANCH  12  15
ATOM     15  O   UNL     1      -4.298  -6.423  -4.877  0.00  0.00    -0.495 OA
ATOM     16  C   UNL     1      -5.367  -5.812  -5.604  0.00  0.00    +0.277 C 
ENDBRANCH  12  15
ENDBRANCH   3   9
ENDBRANCH   1   3
BRANCH   1  17
ATOM     17  C   UNL     1       1.385  -4.925  -1.831  0.00  0.00    +0.110 C 
BRANCH  17  18
ATOM     18  C   UNL     1       2.577  -5.816  -2.183  0.00  0.00    +0.050 C 
BRANCH  18  19
ATOM     19  C   UNL     1       2.624  -6.989  -1.239  0.00  0.00    -0.037 C 
ATOM     20  C   UNL     1       1.761  -7.259  -0.233  0.00  0.00    +0.000 A 
ATOM     21  C   UNL     1       0.567  -6.566   0.264  0.00  0.00    +0.025 A 
ATOM     22  C   UNL     1      -0.107  -7.090   1.314  0.00  0.00    +0.019 A 
ATOM     23  C   UNL     1       0.308  -8.277   1.937  0.00  0.00    +0.017 A 
ATOM     24  C   UNL     1       1.395  -8.969   1.537  0.00  0.00    +0.027 A 
ATOM     25  C   UNL     1       2.177  -8.509   0.442  0.00  0.00    +0.043 A 
ATOM     26  N   UNL     1       3.255  -8.994  -0.125  0.00  0.00    -0.378 N 
ATOM     27  C   UNL     1       3.642  -8.108  -1.229  0.00  0.00    +0.103 C 
ATOM     28  C   UNL     1       3.605  -8.867  -2.556  0.00  0.00    +0.035 C 
ATOM     29 BR   UNL     1      -1.646  -6.201   1.958  0.00  0.00    -0.050 Br
ATOM     30  H   UNL     1       3.717  -9.805   0.139  0.00  0.00    +0.160 HD
ENDBRANCH  18  19
ENDBRANCH  17  18
ENDBRANCH   1  17
TORSDOF 6
