REMARK  Name = ZINC39669160
REMARK  6 active torsions:
REMARK  status: ('A' for Active; 'I' for Inactive)
REMARK    1  A    between atoms: C_4  and  O_7
REMARK    2  A    between atoms: O_7  and  C_8
REMARK    3  A    between atoms: C_11  and  C_14
REMARK    4  A    between atoms: C_18  and  C_27
REMARK    5  A    between atoms: N_29  and  C_30
REMARK    6  A    between atoms: C_30  and  C_31
REMARK                            x       y       z     vdW  Elec       q    Type
REMARK                         _______ _______ _______ _____ _____    ______ ____
ROOT
ATOM      1  C   UNL     1       3.156  -6.145  -0.426  0.00  0.00    +0.248 C 
ATOM      2  O   UNL     1       4.137  -6.860  -0.362  0.00  0.00    -0.270 OA
ATOM      3  N   UNL     1       1.938  -6.687  -0.621  0.00  0.00    -0.296 N 
ATOM      4  C   UNL     1       0.630  -5.991  -0.667  0.00  0.00    +0.121 C 
ATOM      5  C   UNL     1      -0.149  -6.699  -1.798  0.00  0.00    +0.100 C 
ATOM      6  C   UNL     1       0.492  -8.093  -1.904  0.00  0.00    -0.004 C 
ATOM      7  C   UNL     1       1.604  -8.114  -0.844  0.00  0.00    +0.115 C 
ATOM      8  C   UNL     1       1.091  -8.294  -3.292  0.00  0.00    -0.010 C 
ATOM      9  C   UNL     1       1.673  -9.707  -3.392  0.00  0.00    -0.082 C 
ATOM     10  N   UNL     1       0.613 -10.693  -3.146  0.00  0.00    +0.379 N 
ATOM     11  C   UNL     1       0.106 -10.552  -1.776  0.00  0.00    -0.082 C 
ATOM     12  C   UNL     1      -0.542  -9.175  -1.608  0.00  0.00    -0.010 C 
ATOM     13  H   UNL     1      -0.141 -10.543  -3.800  0.00  0.00    -0.086 HD
ATOM     14  H   UNL     1       0.984 -11.623  -3.272  0.00  0.00    -0.086 HD
ENDROOT
BRANCH   1  18
ATOM     15  C   UNL     1       3.637  -1.985  -0.075  0.00  0.00    +0.220 A 
ATOM     16  C   UNL     1       2.471  -2.558   0.426  0.00  0.00    +0.068 A 
ATOM     17  C   UNL     1       2.292  -3.922   0.322  0.00  0.00    +0.020 A 
ATOM     18  C   UNL     1       3.299  -4.682  -0.290  0.00  0.00    +0.055 A 
ATOM     19  C   UNL     1       4.439  -4.035  -0.767  0.00  0.00    +0.127 A 
ATOM     20  N   UNL     1       4.568  -2.729  -0.652  0.00  0.00    -0.220 NA
BRANCH  15  21
ATOM     21  O   UNL     1       3.819  -0.646   0.025  0.00  0.00    -0.438 OA
BRANCH  21  25
ATOM     22  C   UNL     1       7.147   0.996  -1.778  0.00  0.00    +0.000 A 
ATOM     23  C   UNL     1       6.155   0.422  -2.552  0.00  0.00    +0.004 A 
ATOM     24  C   UNL     1       5.040  -0.128  -1.950  0.00  0.00    +0.046 A 
ATOM     25  C   UNL     1       4.916  -0.106  -0.569  0.00  0.00    +0.130 A 
ATOM     26  C   UNL     1       5.913   0.470   0.206  0.00  0.00    +0.046 A 
ATOM     27  C   UNL     1       7.026   1.020  -0.400  0.00  0.00    +0.004 A 
ENDBRANCH  21  25
ENDBRANCH  15  21
ENDBRANCH   1  18
BRANCH   5  28
ATOM     28  C   UNL     1      -1.608  -6.816  -1.436  0.00  0.00    +0.218 C 
ATOM     29  O   UNL     1      -1.945  -6.822  -0.271  0.00  0.00    -0.275 OA
ATOM     30  N   UNL     1      -2.537  -6.915  -2.406  0.00  0.00    -0.312 N 
ATOM     31  H   UNL     1      -2.268  -6.910  -3.338  0.00  0.00    +0.149 HD
BRANCH  30  32
ATOM     32  C   UNL     1      -3.955  -7.029  -2.055  0.00  0.00    +0.140 C 
BRANCH  32  33
ATOM     33  C   UNL     1      -4.791  -7.126  -3.332  0.00  0.00    +0.165 C 
ATOM     34  C   UNL     1      -6.254  -7.111  -2.973  0.00  0.00    -0.014 A 
ATOM     35  C   UNL     1      -6.697  -6.207  -2.020  0.00  0.00    +0.006 A 
ATOM     36  C   UNL     1      -8.031  -6.162  -1.669  0.00  0.00    +0.000 A 
ATOM     37  C   UNL     1      -8.931  -7.023  -2.271  0.00  0.00    +0.000 A 
ATOM     38  C   UNL     1      -8.491  -7.925  -3.219  0.00  0.00    +0.004 A 
ATOM     39  C   UNL     1      -7.151  -7.973  -3.569  0.00  0.00    -0.040 A 
ATOM     40  C   UNL     1      -6.706  -8.980  -4.598  0.00  0.00    +0.063 C 
ATOM     41  C   UNL     1      -5.326  -8.596  -5.134  0.00  0.00    +0.165 C 
ATOM     42  O   UNL     1      -4.466  -8.334  -4.020  0.00  0.00    -0.370 OA
ENDBRANCH  32  33
ENDBRANCH  30  32
ENDBRANCH   5  28
TORSDOF 6
