REMARK  Name = ZINC19042510
REMARK  5 active torsions:
REMARK  status: ('A' for Active; 'I' for Inactive)
REMARK    1  A    between atoms: C_1  and  C_2
REMARK    2  A    between atoms: C_6  and  C_13
REMARK    3  A    between atoms: C_13  and  O_14
REMARK    4  A    between atoms: O_14  and  C_15
REMARK    5  A    between atoms: C_20  and  C_21
REMARK                            x       y       z     vdW  Elec       q    Type
REMARK                         _______ _______ _______ _____ _____    ______ ____
ROOT
ATOM      1  C   UNL     1      -0.017   1.425   0.010  0.00  0.00    +0.265 C 
ENDROOT
BRANCH   1   7
ATOM      2  C   UNL     1      -1.389   7.508   2.320  0.00  0.00    +0.044 C 
ATOM      3  C   UNL     1      -1.215   6.037   2.041  0.00  0.00    -0.047 A 
ATOM      4  C   UNL     1      -0.558   5.630   0.888  0.00  0.00    +0.004 A 
ATOM      5  C   UNL     1      -0.391   4.301   0.618  0.00  0.00    +0.012 A 
ATOM      6  C   UNL     1      -0.880   3.344   1.514  0.00  0.00    +0.024 A 
ATOM      7  C   UNL     1      -0.723   1.911   1.250  0.00  0.00    +0.007 A 
ATOM      8  C   UNL     1      -1.225   1.034   2.155  0.00  0.00    +0.099 A 
ATOM      9  C   UNL     1      -1.881   1.515   3.309  0.00  0.00    +0.338 A 
ATOM     10  O   UNL     1      -2.328   0.717   4.114  0.00  0.00    -0.245 OA
ATOM     11  O   UNL     1      -2.027   2.829   3.541  0.00  0.00    -0.422 OA
ATOM     12  C   UNL     1      -1.550   3.753   2.680  0.00  0.00    +0.140 A 
ATOM     13  C   UNL     1      -1.709   5.109   2.934  0.00  0.00    +0.050 A 
ENDBRANCH   1   7
BRANCH   1  14
ATOM     14  O   UNL     1       0.002  -0.004   0.002  0.00  0.00    -0.487 OA
BRANCH  14  15
ATOM     15  C   UNL     1       0.605  -0.606  -1.054  0.00  0.00    +0.133 A 
ATOM     16  C   UNL     1       1.167   0.160  -2.064  0.00  0.00    +0.048 A 
ATOM     17  C   UNL     1       1.781  -0.454  -3.138  0.00  0.00    +0.023 A 
ATOM     18  C   UNL     1       1.840  -1.837  -3.216  0.00  0.00    +0.042 A 
ATOM     19  C   UNL     1       1.285  -2.613  -2.220  0.00  0.00    +0.036 A 
ATOM     20  C   UNL     1       0.666  -2.004  -1.125  0.00  0.00    +0.079 A 
ATOM     21 CL   UNL     1       2.614  -2.594  -4.572  0.00  0.00    -0.084 Cl
BRANCH  20  22
ATOM     22  C   UNL     1       0.077  -2.829  -0.053  0.00  0.00    +0.245 C 
ATOM     23  O   UNL     1      -0.464  -2.295   0.896  0.00  0.00    -0.270 OA
ATOM     24  N   UNL     1       0.139  -4.173  -0.126  0.00  0.00    -0.325 N 
ATOM     25  H   UNL     1       0.570  -4.598  -0.883  0.00  0.00    +0.145 HD
ATOM     26  H   UNL     1      -0.249  -4.715   0.579  0.00  0.00    +0.145 HD
ENDBRANCH  20  22
ENDBRANCH  14  15
ENDBRANCH   1  14
TORSDOF 4
