REMARK  Name = ZINC29567041
REMARK  11 active torsions:
REMARK  status: ('A' for Active; 'I' for Inactive)
REMARK    1  A    between atoms: C_1  and  C_2
REMARK    2  A    between atoms: C_5  and  N_9
REMARK    3  A    between atoms: C_6  and  C_8
REMARK    4  A    between atoms: C_13  and  C_15
REMARK    5  A    between atoms: C_15  and  C_17
REMARK    6  A    between atoms: C_15  and  N_18
REMARK    7  A    between atoms: N_18  and  C_19
REMARK    8  A    between atoms: C_22  and  N_25
REMARK    9  A    between atoms: C_26  and  C_28
REMARK   10  A    between atoms: C_28  and  C_29
REMARK   11  A    between atoms: C_28  and  C_30
REMARK                            x       y       z     vdW  Elec       q    Type
REMARK                         _______ _______ _______ _____ _____    ______ ____
ROOT
ATOM      1  C   UNL     1      -6.037   2.094  -0.409  0.00  0.00    +0.154 C 
ATOM      2  C   UNL     1      -6.025   2.988  -1.650  0.00  0.00    +0.038 C 
ENDROOT
BRANCH   1   7
ATOM      3  N   UNL     1      -1.245   2.034  -0.035  0.00  0.00    -0.269 N 
ATOM      4  C   UNL     1      -2.405   1.356  -0.134  0.00  0.00    +0.310 C 
ATOM      5  O   UNL     1      -2.398   0.140  -0.149  0.00  0.00    -0.252 OA
ATOM      6  N   UNL     1      -3.572   2.025  -0.217  0.00  0.00    -0.238 N 
ATOM      7  C   UNL     1      -4.732   1.346  -0.316  0.00  0.00    +0.240 C 
ATOM      8  O   UNL     1      -4.726   0.134  -0.330  0.00  0.00    -0.273 OA
ATOM      9  H   UNL     1      -1.255   3.131   0.053  0.00  0.00    +0.156 HD
ATOM     10  H   UNL     1      -3.578   3.124  -0.204  0.00  0.00    +0.159 HD
BRANCH   3  15
ATOM     11  C   UNL     1       3.686  -0.771  -0.093  0.00  0.00    +0.044 C 
ATOM     12  C   UNL     1       2.377  -0.025  -0.076  0.00  0.00    -0.050 A 
ATOM     13  C   UNL     1       1.268  -0.590   0.527  0.00  0.00    +0.005 A 
ATOM     14  C   UNL     1       0.067   0.090   0.544  0.00  0.00    +0.024 A 
ATOM     15  C   UNL     1      -0.027   1.345  -0.046  0.00  0.00    +0.038 A 
ATOM     16  C   UNL     1       1.088   1.910  -0.650  0.00  0.00    -0.029 A 
ATOM     17  C   UNL     1       2.286   1.223  -0.664  0.00  0.00    +0.008 A 
ATOM     18  C   UNL     1       0.990   3.270  -1.291  0.00  0.00    +0.045 C 
ENDBRANCH   3  15
ENDBRANCH   1   7
BRANCH   1  19
ATOM     19  N   UNL     1      -7.142   1.137  -0.506  0.00  0.00    -0.333 N 
ATOM     20  H   UNL     1      -6.963   0.129  -0.909  0.00  0.00    +0.147 HD
BRANCH  19  21
ATOM     21  C   UNL     1      -8.425   1.506  -0.088  0.00  0.00    +0.028 A 
ATOM     22  C   UNL     1      -8.651   2.776   0.425  0.00  0.00    +0.025 A 
ATOM     23  C   UNL     1      -9.918   3.142   0.831  0.00  0.00    +0.025 A 
ATOM     24  C   UNL     1     -10.966   2.235   0.739  0.00  0.00    +0.034 A 
ATOM     25  C   UNL     1     -10.740   0.962   0.231  0.00  0.00    +0.025 A 
ATOM     26  C   UNL     1      -9.473   0.599  -0.181  0.00  0.00    +0.025 A 
BRANCH  24  27
ATOM     27  N   UNL     1     -12.251   2.604   1.157  0.00  0.00    -0.285 N 
ATOM     28  C   UNL     1     -13.058   1.694   1.738  0.00  0.00    +0.220 C 
ATOM     29  O   UNL     1     -12.704   0.537   1.824  0.00  0.00    -0.275 OA
ATOM     30  H   UNL     1     -12.602   3.637   1.011  0.00  0.00    +0.155 HD
BRANCH  28  31
ATOM     31  C   UNL     1     -14.400   2.115   2.281  0.00  0.00    +0.069 C 
ATOM     32  C   UNL     1     -15.110   0.900   2.883  0.00  0.00    +0.017 C 
ATOM     33  C   UNL     1     -14.202   3.178   3.363  0.00  0.00    +0.017 C 
ENDBRANCH  28  31
ENDBRANCH  24  27
ENDBRANCH  19  21
ENDBRANCH   1  19
TORSDOF 6
