REMARK  Name = ZINC13576836
REMARK  8 active torsions:
REMARK  status: ('A' for Active; 'I' for Inactive)
REMARK    1  A    between atoms: C_1  and  C_2
REMARK    2  A    between atoms: C_5  and  N_8
REMARK    3  A    between atoms: C_11  and  S_16
REMARK    4  A    between atoms: S_16  and  C_17
REMARK    5  A    between atoms: N_18  and  C_19
REMARK    6  A    between atoms: C_23  and  C_25
REMARK    7  A    between atoms: N_26  and  C_27
REMARK    8  A    between atoms: C_31  and  C_33
REMARK                            x       y       z     vdW  Elec       q    Type
REMARK                         _______ _______ _______ _____ _____    ______ ____
ROOT
ATOM      1  C   UNL     1      -1.133  -8.850   1.745  0.00  0.00    +0.160 C 
ATOM      2  N   UNL     1      -0.181  -9.332   0.979  0.00  0.00    -0.226 NA
ATOM      3  N   UNL     1      -2.148  -9.670   2.178  0.00  0.00    -0.294 N 
ATOM      4  H   UNL     1      -2.897  -9.298   2.670  0.00  0.00    +0.154 HD
ENDROOT
BRANCH   2   5
ATOM      5  C   UNL     1       0.781  -8.497   0.475  0.00  0.00    +0.067 A 
ATOM      6  C   UNL     1       0.413  -7.357  -0.243  0.00  0.00    +0.028 A 
ATOM      7  C   UNL     1       1.387  -6.520  -0.748  0.00  0.00    +0.002 A 
ATOM      8  C   UNL     1       2.725  -6.809  -0.544  0.00  0.00    +0.003 A 
ATOM      9  C   UNL     1       3.096  -7.937   0.166  0.00  0.00    -0.048 A 
ATOM     10  C   UNL     1       2.132  -8.779   0.682  0.00  0.00    +0.031 A 
ATOM     11  C   UNL     1       4.556  -8.243   0.382  0.00  0.00    +0.044 C 
ENDBRANCH   2   5
BRANCH   3  12
ATOM     12  C   UNL     1      -2.102 -11.041   1.908  0.00  0.00    +0.033 A 
ATOM     13  C   UNL     1      -0.881 -11.702   1.867  0.00  0.00    +0.023 A 
ATOM     14  C   UNL     1      -0.839 -13.056   1.601  0.00  0.00    +0.002 A 
ATOM     15  C   UNL     1      -2.011 -13.755   1.375  0.00  0.00    +0.003 A 
ATOM     16  C   UNL     1      -3.228 -13.100   1.414  0.00  0.00    -0.049 A 
ATOM     17  C   UNL     1      -3.278 -11.747   1.686  0.00  0.00    +0.026 A 
ATOM     18  C   UNL     1      -4.503 -13.865   1.166  0.00  0.00    +0.044 C 
ENDBRANCH   3  12
BRANCH   1  19
ATOM     19  S   UNL     1      -1.111  -7.152   2.217  0.00  0.00    -0.066 S 
BRANCH  19  23
ATOM     20  N   UNL     1      -2.564  -5.301   5.076  0.00  0.00    -0.200 N 
ATOM     21  C   UNL     1      -2.719  -5.551   3.787  0.00  0.00    +0.251 C 
ATOM     22  O   UNL     1      -3.016  -4.687   2.990  0.00  0.00    -0.273 OA
ATOM     23  C   UNL     1      -2.500  -7.000   3.373  0.00  0.00    +0.206 C 
ATOM     24  S   UNL     1      -2.095  -7.737   5.011  0.00  0.00    -0.043 S 
ATOM     25  C   UNL     1      -2.230  -6.241   5.980  0.00  0.00    +0.287 C 
ATOM     26  O   UNL     1      -2.061  -6.105   7.176  0.00  0.00    -0.262 OA
BRANCH  20  31
ATOM     27  C   UNL     1      -3.320   0.023   6.890  0.00  0.00    +0.044 C 
ATOM     28  C   UNL     1      -3.119  -1.390   6.409  0.00  0.00    -0.050 A 
ATOM     29  C   UNL     1      -1.894  -2.008   6.575  0.00  0.00    +0.005 A 
ATOM     30  C   UNL     1      -1.707  -3.304   6.135  0.00  0.00    +0.024 A 
ATOM     31  C   UNL     1      -2.751  -3.986   5.525  0.00  0.00    +0.045 A 
ATOM     32  C   UNL     1      -3.980  -3.363   5.359  0.00  0.00    +0.024 A 
ATOM     33  C   UNL     1      -4.163  -2.069   5.806  0.00  0.00    +0.005 A 
ENDBRANCH  20  31
ENDBRANCH  19  23
ENDBRANCH   1  19
TORSDOF 5
