REMARK  Name = ZINC12866989
REMARK  18 active torsions:
REMARK  status: ('A' for Active; 'I' for Inactive)
REMARK    1  A    between atoms: C_1  and  C_2
REMARK    2  A    between atoms: C_2  and  C_3
REMARK    3  A    between atoms: C_3  and  C_5
REMARK    4  A    between atoms: C_3  and  C_6
REMARK    5  A    between atoms: C_6  and  C_8
REMARK    6  A    between atoms: C_6  and  N_31
REMARK    7  A    between atoms: C_13  and  C_16
REMARK    8  A    between atoms: N_18  and  CA_19
REMARK    9  A    between atoms: CA_19  and  C_21
REMARK   10  A    between atoms: CA_19  and  C_29
REMARK   11  A    between atoms: C_21  and  C_23
REMARK   12  A    between atoms: C_21  and  C_27
REMARK   13  A    between atoms: C_23  and  C_24
REMARK   14  A    between atoms: C_32  and  O_34
REMARK   15  A    between atoms: O_34  and  C_35
REMARK   16  A    between atoms: C_35  and  C_36
REMARK   17  A    between atoms: C_35  and  C_37
REMARK   18  A    between atoms: C_35  and  C_38
REMARK                            x       y       z     vdW  Elec       q    Type
REMARK                         _______ _______ _______ _____ _____    ______ ____
ROOT
ATOM      1  C   UNL     1      -3.535   1.966  -0.586  0.00  0.00    +0.236 C 
ATOM      2  O   UNL     1      -3.337   3.128  -0.867  0.00  0.00    -0.274 OA
ATOM      3  N   UNL     1      -4.748   1.417  -0.801  0.00  0.00    -0.300 N 
ATOM      4  C   UNL     1      -5.034   0.042  -0.372  0.00  0.00    +0.108 C 
ATOM      5  C   UNL     1      -5.566  -0.751  -1.565  0.00  0.00    +0.032 C 
ATOM      6  C   UNL     1      -6.766  -0.017  -2.168  0.00  0.00    +0.078 C 
ATOM      7  C   UNL     1      -6.327   1.364  -2.660  0.00  0.00    +0.032 C 
ATOM      8  C   UNL     1      -5.806   2.182  -1.475  0.00  0.00    +0.108 C 
ENDROOT
BRANCH   6   9
ATOM      9  C   UNL     1      -7.311  -0.813  -3.326  0.00  0.00    +0.217 C 
ATOM     10  O   UNL     1      -7.346  -0.325  -4.435  0.00  0.00    -0.275 OA
ATOM     11  N   UNL     1      -7.761  -2.068  -3.128  0.00  0.00    -0.301 N 
ATOM     12  H   UNL     1      -7.734  -2.459  -2.241  0.00  0.00    +0.150 HD
BRANCH  11  13
ATOM     13  CA  UNL     1      -8.291  -2.842  -4.253  0.00  0.00    +0.201 C 
BRANCH  13  14
ATOM     14  C   UNL     1      -9.747  -2.507  -4.452  0.00  0.00    +0.377 C 
ATOM     15  O   UNL     1     -10.286  -1.704  -3.728  0.00  0.00    -0.244 OA
ATOM     16  OXT UNL     1     -10.444  -3.100  -5.434  0.00  0.00    -0.244 OA
ENDBRANCH  13  14
BRANCH  13  17
ATOM     17  C   UNL     1      -8.148  -4.337  -3.957  0.00  0.00    +0.142 C 
BRANCH  17  18
ATOM     18  C   UNL     1      -9.015  -4.700  -2.779  0.00  0.00    +0.362 C 
ATOM     19  O   UNL     1      -9.679  -3.852  -2.233  0.00  0.00    -0.246 OA
ATOM     20  O   UNL     1      -9.049  -5.967  -2.337  0.00  0.00    -0.246 OA
ENDBRANCH  17  18
BRANCH  17  21
ATOM     21  C   UNL     1      -8.586  -5.143  -5.181  0.00  0.00    +0.112 C 
BRANCH  21  22
ATOM     22  C   UNL     1      -8.330  -6.608  -4.935  0.00  0.00    +0.211 C 
ATOM     23  O   UNL     1      -7.845  -6.971  -3.884  0.00  0.00    -0.276 OA
ATOM     24  N   UNL     1      -8.640  -7.515  -5.883  0.00  0.00    -0.329 N 
ATOM     25  H   UNL     1      -9.027  -7.224  -6.724  0.00  0.00    +0.145 HD
ATOM     26  H   UNL     1      -8.475  -8.457  -5.725  0.00  0.00    +0.145 HD
ENDBRANCH  21  22
ENDBRANCH  17  21
ENDBRANCH  13  17
ENDBRANCH  11  13
ENDBRANCH   6   9
BRANCH   1  27
ATOM     27  C   UNL     1      -2.426   1.133   0.004  0.00  0.00    +0.165 C 
BRANCH  27  28
ATOM     28  N   UNL     1      -1.141   1.575  -0.543  0.00  0.00    -0.270 N 
ATOM     29  C   UNL     1      -0.098   0.722  -0.585  0.00  0.00    +0.401 C 
ATOM     30  O   UNL     1      -0.224  -0.413  -0.170  0.00  0.00    -0.226 OA
ATOM     31  H   UNL     1      -1.040   2.481  -0.874  0.00  0.00    +0.153 HD
BRANCH  29  32
ATOM     32  O   UNL     1       1.082   1.126  -1.092  0.00  0.00    -0.445 OA
BRANCH  32  33
ATOM     33  C   UNL     1       2.159   0.153  -1.112  0.00  0.00    +0.107 C 
ATOM     34  C   UNL     1       1.741  -1.054  -1.954  0.00  0.00    +0.055 C 
ATOM     35  C   UNL     1       3.411   0.789  -1.719  0.00  0.00    +0.055 C 
ATOM     36  C   UNL     1       2.461  -0.303   0.318  0.00  0.00    +0.055 C 
ENDBRANCH  32  33
ENDBRANCH  29  32
ENDBRANCH  27  28
BRANCH  27  37
ATOM     37  C   UNL     1      -2.418   1.299   1.525  0.00  0.00    +0.015 C 
ATOM     38  C   UNL     1      -3.701   0.707   2.110  0.00  0.00    +0.010 C 
BRANCH  37  40
ATOM     39  C   UNL     1      -2.203   2.947   3.391  0.00  0.00    +0.004 C 
ATOM     40  C   UNL     1      -2.337   2.787   1.875  0.00  0.00    +0.002 C 
ENDBRANCH  37  40
ENDBRANCH  27  37
ENDBRANCH   1  27
TORSDOF 13
