REMARK  Name = ZINC35887248
REMARK  6 active torsions:
REMARK  status: ('A' for Active; 'I' for Inactive)
REMARK    1  A    between atoms: C_4  and  S_7
REMARK    2  A    between atoms: S_7  and  N_10
REMARK    3  A    between atoms: C_12  and  C_24
REMARK    4  A    between atoms: C_14  and  C_17
REMARK    5  A    between atoms: C_24  and  N_25
REMARK    6  A    between atoms: N_28  and  C_31
REMARK                            x       y       z     vdW  Elec       q    Type
REMARK                         _______ _______ _______ _____ _____    ______ ____
ROOT
ATOM      1  N   UNL     1       4.388  -1.074   1.521  0.00  0.00    -0.176 NA
ATOM      2  C   UNL     1       5.193  -0.158   2.342  0.00  0.00    +0.111 C 
ATOM      3  C   UNL     1       5.336  -0.799   3.738  0.00  0.00    -0.003 C 
ATOM      4  C   UNL     1       4.130  -1.774   3.798  0.00  0.00    +0.037 C 
ATOM      5  C   UNL     1       4.045  -2.257   2.331  0.00  0.00    +0.118 C 
ENDROOT
BRANCH   4   6
ATOM      6  C   UNL     1       4.410  -2.923   4.733  0.00  0.00    -0.040 A 
ATOM      7  C   UNL     1       5.483  -3.762   4.495  0.00  0.00    +0.004 A 
ATOM      8  C   UNL     1       5.741  -4.816   5.351  0.00  0.00    +0.003 A 
ATOM      9  C   UNL     1       4.926  -5.032   6.446  0.00  0.00    +0.038 A 
ATOM     10  C   UNL     1       3.851  -4.193   6.686  0.00  0.00    +0.124 A 
ATOM     11  C   UNL     1       3.598  -3.133   5.830  0.00  0.00    +0.042 A 
ATOM     12  F   UNL     1       3.054  -4.404   7.756  0.00  0.00    -0.205 F 
ENDBRANCH   4   6
BRANCH   1  13
ATOM     13  S   UNL     1       3.937  -0.817  -0.052  0.00  0.00    +0.061 S 
ATOM     14  O   UNL     1       3.685  -2.096  -0.616  0.00  0.00    -0.153 OA
ATOM     15  O   UNL     1       4.885   0.086  -0.604  0.00  0.00    -0.153 OA
BRANCH  13  19
ATOM     16  C   UNL     1      -0.029   1.363   0.032  0.00  0.00    +0.000 A 
ATOM     17  C   UNL     1       1.153   2.079   0.026  0.00  0.00    +0.002 A 
ATOM     18  C   UNL     1       2.364   1.414   0.001  0.00  0.00    +0.028 A 
ATOM     19  C   UNL     1       2.393   0.032  -0.018  0.00  0.00    +0.105 A 
ATOM     20  C   UNL     1       1.211  -0.684  -0.011  0.00  0.00    +0.028 A 
ATOM     21  C   UNL     1      -0.001  -0.018   0.013  0.00  0.00    +0.002 A 
ENDBRANCH  13  19
ENDBRANCH   1  13
BRANCH   3  22
ATOM     22  C   UNL     1       5.234   0.262   4.835  0.00  0.00    -0.073 C 
BRANCH  22  23
ATOM     23  N   UNL     1       6.389   1.166   4.751  0.00  0.00    +0.382 N 
ATOM     24  C   UNL     1       7.618   0.414   5.037  0.00  0.00    -0.060 C 
ATOM     25  C   UNL     1       8.832   1.327   4.838  0.00  0.00    +0.086 C 
ATOM     26  N   UNL     1       8.650   2.531   5.664  0.00  0.00    -0.333 N 
ATOM     27  C   UNL     1       7.375   3.257   5.561  0.00  0.00    +0.086 C 
ATOM     28  C   UNL     1       6.230   2.253   5.726  0.00  0.00    -0.060 C 
ATOM     29  H   UNL     1       6.444   1.554   3.822  0.00  0.00    -0.082 HD
BRANCH  26  30
ATOM     30  C   UNL     1       9.662   2.973   6.523  0.00  0.00    +0.030 A 
ATOM     31  C   UNL     1      10.813   2.214   6.690  0.00  0.00    +0.026 A 
ATOM     32  C   UNL     1      11.810   2.653   7.539  0.00  0.00    +0.040 A 
ATOM     33  C   UNL     1      11.664   3.848   8.222  0.00  0.00    +0.124 A 
ATOM     34  C   UNL     1      10.517   4.606   8.057  0.00  0.00    +0.040 A 
ATOM     35  C   UNL     1       9.519   4.174   7.205  0.00  0.00    +0.026 A 
ATOM     36  F   UNL     1      12.641   4.275   9.052  0.00  0.00    -0.205 F 
ENDBRANCH  26  30
ENDBRANCH  22  23
ENDBRANCH   3  22
TORSDOF 6
