REMARK  Name = ZINC64131745
REMARK  6 active torsions:
REMARK  status: ('A' for Active; 'I' for Inactive)
REMARK    1  A    between atoms: C_6  and  C_7
REMARK    2  A    between atoms: C_7  and  C_8
REMARK    3  A    between atoms: C_8  and  C_14
REMARK    4  A    between atoms: C_14  and  C_15
REMARK    5  A    between atoms: C_15  and  C_16
REMARK    6  A    between atoms: C_22  and  C_24
REMARK                            x       y       z     vdW  Elec       q    Type
REMARK                         _______ _______ _______ _____ _____    ______ ____
ROOT
ATOM      1  C   UNL     1      -4.197  -0.487  -0.323  0.00  0.00    +0.098 C 
ENDROOT
BRANCH   1   2
ATOM      2  C   UNL     1      -5.463  -1.282  -0.507  0.00  0.00    +0.216 C 
ATOM      3  O   UNL     1      -5.412  -2.411  -0.948  0.00  0.00    -0.276 OA
ATOM      4  N   UNL     1      -6.653  -0.740  -0.181  0.00  0.00    -0.295 N 
ATOM      5  C   UNL     1      -6.853   0.577   0.451  0.00  0.00    +0.108 C 
ATOM      6  C   UNL     1      -8.291   0.994   0.053  0.00  0.00    +0.021 C 
ATOM      7  C   UNL     1      -9.035  -0.367   0.102  0.00  0.00    +0.028 C 
ATOM      8  C   UNL     1      -7.968  -1.360  -0.404  0.00  0.00    +0.119 C 
BRANCH   8   9
ATOM      9  C   UNL     1      -8.065  -2.669   0.382  0.00  0.00    +0.195 C 
ATOM     10  N   UNL     1      -9.394  -3.267   0.204  0.00  0.00    -0.362 N 
ATOM     11  C   UNL     1      -9.949  -3.343   1.378  0.00  0.00    +0.060 A 
ATOM     12  C   UNL     1     -11.255  -3.842   1.835  0.00  0.00    +0.030 A 
ATOM     13  C   UNL     1     -11.564  -3.793   3.145  0.00  0.00    +0.040 A 
ATOM     14  C   UNL     1     -10.680  -3.277   4.115  0.00  0.00    +0.125 A 
ATOM     15  C   UNL     1      -9.458  -2.794   3.801  0.00  0.00    +0.065 A 
ATOM     16  C   UNL     1      -9.015  -2.798   2.402  0.00  0.00    +0.063 A 
ATOM     17  N   UNL     1      -7.917  -2.406   1.819  0.00  0.00    -0.362 N 
ATOM     18  F   UNL     1     -11.071  -3.265   5.408  0.00  0.00    -0.205 F 
ATOM     19  H   UNL     1      -9.786  -3.553  -0.636  0.00  0.00    +0.162 HD
ATOM     20  H   UNL     1      -7.144  -2.014   2.255  0.00  0.00    +0.162 HD
ENDBRANCH   8   9
ENDBRANCH   1   2
BRANCH   1  21
ATOM     21  C   UNL     1      -2.997  -1.328  -0.764  0.00  0.00    +0.035 C 
BRANCH  21  22
ATOM     22  C   UNL     1      -1.712  -0.520  -0.577  0.00  0.00    +0.039 C 
ATOM     23  C   UNL     1      -0.506  -1.288  -1.162  0.00  0.00    +0.035 C 
ATOM     24  C   UNL     1       0.358  -0.136  -1.727  0.00  0.00    +0.098 C 
ATOM     25  C   UNL     1      -0.633   0.976  -1.989  0.00  0.00    +0.214 C 
ATOM     26  O   UNL     1      -0.421   1.946  -2.686  0.00  0.00    -0.276 OA
ATOM     27  N   UNL     1      -1.784   0.733  -1.338  0.00  0.00    -0.309 N 
ATOM     28  H   UNL     1      -2.562   1.312  -1.367  0.00  0.00    +0.149 HD
BRANCH  22  29
ATOM     29  C   UNL     1      -1.483  -0.226   0.907  0.00  0.00    +0.061 C 
BRANCH  29  35
ATOM     30  C   UNL     1      -0.396   2.023   1.048  0.00  0.00    +0.007 A 
ATOM     31  C   UNL     1       0.719   2.829   1.192  0.00  0.00    +0.050 A 
ATOM     32  C   UNL     1       1.970   2.258   1.352  0.00  0.00    +0.166 A 
ATOM     33  C   UNL     1       2.103   0.871   1.367  0.00  0.00    +0.166 A 
ATOM     34  C   UNL     1       0.982   0.071   1.222  0.00  0.00    +0.053 A 
ATOM     35  C   UNL     1      -0.265   0.648   1.064  0.00  0.00    -0.042 A 
ATOM     36  O   UNL     1       3.421   0.561   1.536  0.00  0.00    -0.453 OA
ATOM     37  C   UNL     1       4.144   1.764   1.214  0.00  0.00    +0.466 C 
ATOM     38  O   UNL     1       3.206   2.816   1.510  0.00  0.00    -0.453 OA
ENDBRANCH  29  35
ENDBRANCH  22  29
ENDBRANCH  21  22
ENDBRANCH   1  21
TORSDOF 6
