REMARK  Name = ZINC36490639
REMARK  8 active torsions:
REMARK  status: ('A' for Active; 'I' for Inactive)
REMARK    1  A    between atoms: C_1  and  C_2
REMARK    2  A    between atoms: C_5  and  C_9
REMARK    3  A    between atoms: C_6  and  C_8
REMARK    4  A    between atoms: C_9  and  C_11
REMARK    5  A    between atoms: C_9  and  N_20
REMARK    6  A    between atoms: N_13  and  C_14
REMARK    7  A    between atoms: N_20  and  C_21
REMARK    8  A    between atoms: C_27  and  C_29
REMARK                            x       y       z     vdW  Elec       q    Type
REMARK                         _______ _______ _______ _____ _____    ______ ____
ROOT
ATOM      1  C   UNL     1       0.733  -3.796  -0.154  0.00  0.00    +0.193 C 
ENDROOT
BRANCH   1   6
ATOM      2  C   UNL     1       2.294   1.767  -0.211  0.00  0.00    +0.044 C 
ATOM      3  C   UNL     1       1.887   0.316  -0.197  0.00  0.00    -0.050 A 
ATOM      4  C   UNL     1       0.590  -0.034   0.129  0.00  0.00    +0.004 A 
ATOM      5  C   UNL     1       0.216  -1.365   0.142  0.00  0.00    +0.006 A 
ATOM      6  C   UNL     1       1.140  -2.345  -0.170  0.00  0.00    -0.015 A 
ATOM      7  C   UNL     1       2.436  -1.995  -0.496  0.00  0.00    -0.045 A 
ATOM      8  C   UNL     1       2.809  -0.664  -0.513  0.00  0.00    +0.007 A 
ATOM      9  C   UNL     1       3.443  -3.064  -0.835  0.00  0.00    +0.044 C 
ENDBRANCH   1   6
BRANCH   1  10
ATOM     10  C   UNL     1      -0.733  -3.903   0.183  0.00  0.00    +0.238 C 
ATOM     11  O   UNL     1      -1.474  -4.542  -0.533  0.00  0.00    -0.273 OA
ATOM     12  N   UNL     1      -1.218  -3.289   1.280  0.00  0.00    -0.311 N 
ATOM     13  H   UNL     1      -0.640  -2.724   1.815  0.00  0.00    +0.149 HD
BRANCH  12  14
ATOM     14  C   UNL     1      -2.620  -3.476   1.663  0.00  0.00    +0.073 C 
ATOM     15  C   UNL     1      -3.495  -2.480   0.898  0.00  0.00    +0.022 C 
ATOM     16  C   UNL     1      -4.958  -2.675   1.298  0.00  0.00    +0.002 C 
ATOM     17  C   UNL     1      -5.112  -2.438   2.802  0.00  0.00    +0.000 C 
ATOM     18  C   UNL     1      -4.237  -3.433   3.567  0.00  0.00    +0.002 C 
ATOM     19  C   UNL     1      -2.773  -3.239   3.167  0.00  0.00    +0.022 C 
ENDBRANCH  12  14
ENDBRANCH   1  10
BRANCH   1  20
ATOM     20  N   UNL     1       0.975  -4.386  -1.473  0.00  0.00    -0.281 N 
ATOM     21  C   UNL     1       1.654  -5.545  -1.578  0.00  0.00    +0.237 C 
ATOM     22  O   UNL     1       2.025  -6.124  -0.579  0.00  0.00    -0.274 OA
BRANCH  21  23
ATOM     23  C   UNL     1       1.952  -6.123  -2.938  0.00  0.00    +0.159 C 
ATOM     24  C   UNL     1       0.849  -7.124  -3.347  0.00  0.00    +0.041 C 
ATOM     25  C   UNL     1       1.446  -8.466  -2.865  0.00  0.00    +0.098 C 
ATOM     26  C   UNL     1       2.940  -8.223  -2.850  0.00  0.00    +0.214 C 
ATOM     27  O   UNL     1       3.784  -9.092  -2.802  0.00  0.00    -0.276 OA
ATOM     28  N   UNL     1       3.195  -6.902  -2.897  0.00  0.00    -0.304 N 
ATOM     29  H   UNL     1       4.084  -6.515  -2.904  0.00  0.00    +0.149 HD
ENDBRANCH  21  23
BRANCH  20  30
ATOM     30  C   UNL     1       0.479  -3.715  -2.677  0.00  0.00    +0.077 C 
ATOM     31  C   UNL     1       1.637  -2.999  -3.376  0.00  0.00    +0.022 C 
ATOM     32  C   UNL     1       1.119  -2.299  -4.633  0.00  0.00    +0.002 C 
ATOM     33  C   UNL     1       0.049  -1.278  -4.244  0.00  0.00    +0.000 C 
ATOM     34  C   UNL     1      -1.109  -1.993  -3.546  0.00  0.00    +0.002 C 
ATOM     35  C   UNL     1      -0.592  -2.694  -2.288  0.00  0.00    +0.022 C 
ENDBRANCH  20  30
ENDBRANCH   1  20
TORSDOF 6
