REMARK  Name = ZINC01993100
REMARK  11 active torsions:
REMARK  status: ('A' for Active; 'I' for Inactive)
REMARK    1  A    between atoms: C_1  and  C_2
REMARK    2  A    between atoms: C_2  and  O_3
REMARK    3  A    between atoms: O_3  and  C_4
REMARK    4  A    between atoms: N_11  and  C_12
REMARK    5  A    between atoms: C_15  and  O_18
REMARK    6  A    between atoms: O_18  and  C_19
REMARK    7  A    between atoms: C_19  and  C_20
REMARK    8  A    between atoms: C_19  and  C_21
REMARK    9  A    between atoms: C_23  and  C_25
REMARK   10  A    between atoms: C_28  and  O_31
REMARK   11  A    between atoms: O_31  and  C_32
REMARK                            x       y       z     vdW  Elec       q    Type
REMARK                         _______ _______ _______ _____ _____    ______ ____
ROOT
ATOM      1  C   UNL     1       4.394  -5.862  -7.783  0.00  0.00    +0.121 A 
ATOM      2  C   UNL     1       3.857  -6.591  -6.727  0.00  0.00    +0.049 A 
ATOM      3  C   UNL     1       3.299  -5.947  -5.642  0.00  0.00    +0.050 A 
ATOM      4  C   UNL     1       3.269  -4.560  -5.598  0.00  0.00    +0.138 A 
ATOM      5  C   UNL     1       3.810  -3.824  -6.662  0.00  0.00    +0.044 A 
ATOM      6  C   UNL     1       4.372  -4.479  -7.755  0.00  0.00    +0.059 A 
ATOM      7  C   UNL     1       3.766  -2.347  -6.592  0.00  0.00    +0.054 A 
ATOM      8  N   UNL     1       4.260  -1.596  -7.564  0.00  0.00    -0.354 N 
ATOM      9  C   UNL     1       3.168  -1.766  -5.442  0.00  0.00    +0.073 A 
ATOM     10  C   UNL     1       2.679  -2.572  -4.465  0.00  0.00    +0.138 A 
ATOM     11  O   UNL     1       2.726  -3.913  -4.542  0.00  0.00    -0.455 OA
ATOM     12  H   UNL     1       4.790  -2.066  -8.406  0.00  0.00    +0.166 HD
ENDROOT
BRANCH   8  13
ATOM     13  C   UNL     1       4.111  -0.240  -7.522  0.00  0.00    +0.040 A 
ATOM     14  C   UNL     1       2.946   0.354  -8.017  0.00  0.00    +0.029 A 
ATOM     15  C   UNL     1       2.800   1.724  -7.967  0.00  0.00    +0.047 A 
ATOM     16  C   UNL     1       3.810   2.514  -7.437  0.00  0.00    +0.121 A 
ATOM     17  C   UNL     1       4.971   1.930  -6.949  0.00  0.00    +0.047 A 
ATOM     18  C   UNL     1       5.126   0.560  -6.989  0.00  0.00    +0.029 A 
BRANCH  16  19
ATOM     19  O   UNL     1       3.663   3.865  -7.395  0.00  0.00    -0.489 OA
BRANCH  19  20
ATOM     20  C   UNL     1       4.774   4.625  -6.916  0.00  0.00    +0.167 C 
ATOM     21  C   UNL     1       5.770   4.847  -8.056  0.00  0.00    +0.051 C 
ATOM     22  C   UNL     1       4.282   5.977  -6.397  0.00  0.00    +0.051 C 
ENDBRANCH  19  20
ENDBRANCH  16  19
ENDBRANCH   8  13
BRANCH  10  23
ATOM     23  C   UNL     1       2.066  -1.951  -3.275  0.00  0.00    +0.018 A 
ATOM     24  C   UNL     1       1.548  -2.753  -2.255  0.00  0.00    +0.015 A 
ATOM     25  C   UNL     1       0.977  -2.170  -1.146  0.00  0.00    +0.046 A 
ATOM     26  C   UNL     1       0.914  -0.785  -1.041  0.00  0.00    +0.120 A 
ATOM     27  C   UNL     1       1.424   0.016  -2.055  0.00  0.00    +0.046 A 
ATOM     28  C   UNL     1       2.002  -0.559  -3.166  0.00  0.00    +0.015 A 
BRANCH  26  29
ATOM     29  O   UNL     1       0.349  -0.214   0.054  0.00  0.00    -0.495 OA
ATOM     30  C   UNL     1       0.318   1.214   0.097  0.00  0.00    +0.277 C 
ENDBRANCH  26  29
ENDBRANCH  10  23
BRANCH   1  31
ATOM     31  O   UNL     1       4.941  -6.511  -8.845  0.00  0.00    -0.492 OA
BRANCH  31  33
ATOM     32  C   UNL     1       5.584  -8.486 -10.080  0.00  0.00    +0.048 C 
ATOM     33  C   UNL     1       4.931  -7.939  -8.810  0.00  0.00    +0.225 C 
ENDBRANCH  31  33
ENDBRANCH   1  31
TORSDOF 7
