REMARK  Name = ZINC64526406
REMARK  6 active torsions:
REMARK  status: ('A' for Active; 'I' for Inactive)
REMARK    1  A    between atoms: C_1  and  O_2
REMARK    2  A    between atoms: O_2  and  C_3
REMARK    3  A    between atoms: C_3  and  C_4
REMARK    4  A    between atoms: C_4  and  N_5
REMARK    5  A    between atoms: C_9  and  N_21
REMARK    6  A    between atoms: C_22  and  C_24
REMARK                            x       y       z     vdW  Elec       q    Type
REMARK                         _______ _______ _______ _____ _____    ______ ____
ROOT
ATOM      1  N   UNL     1       1.407  -2.563  -0.163  0.00  0.00    -0.264 N 
ATOM      2  C   UNL     1       0.669  -2.633  -1.339  0.00  0.00    +0.050 A 
ATOM      3  C   UNL     1      -0.498  -3.394  -1.347  0.00  0.00    +0.026 A 
ATOM      4  C   UNL     1      -1.264  -3.491  -2.491  0.00  0.00    +0.025 A 
ATOM      5  C   UNL     1      -0.877  -2.830  -3.649  0.00  0.00    +0.035 A 
ATOM      6  C   UNL     1       0.285  -2.070  -3.651  0.00  0.00    +0.040 A 
ATOM      7  C   UNL     1       1.055  -1.973  -2.501  0.00  0.00    +0.036 A 
ATOM      8  S   UNL     1       2.529  -1.007  -2.528  0.00  0.00    -0.087 S 
ATOM      9  C   UNL     1       3.796  -2.172  -2.150  0.00  0.00    +0.025 A 
ATOM     10  C   UNL     1       4.825  -2.394  -3.056  0.00  0.00    +0.016 A 
ATOM     11  C   UNL     1       5.821  -3.303  -2.762  0.00  0.00    +0.001 A 
ATOM     12  C   UNL     1       5.798  -3.997  -1.562  0.00  0.00    +0.001 A 
ATOM     13  C   UNL     1       4.784  -3.788  -0.654  0.00  0.00    +0.014 A 
ATOM     14  C   UNL     1       3.763  -2.870  -0.935  0.00  0.00    +0.051 A 
ATOM     15  C   UNL     1       2.693  -2.663   0.039  0.00  0.00    +0.252 C 
ATOM     16  O   UNL     1       3.050  -2.577   1.198  0.00  0.00    -0.270 OA
ENDROOT
BRANCH   5  17
ATOM     17  N   UNL     1      -1.654  -2.928  -4.809  0.00  0.00    -0.281 N 
ATOM     18  C   UNL     1      -2.994  -3.041  -4.715  0.00  0.00    +0.248 C 
ATOM     19  O   UNL     1      -3.536  -2.960  -3.630  0.00  0.00    -0.270 OA
ATOM     20  H   UNL     1      -1.228  -2.916  -5.681  0.00  0.00    +0.155 HD
BRANCH  18  21
ATOM     21  C   UNL     1      -3.804  -3.263  -5.931  0.00  0.00    +0.035 C 
ATOM     22  C   UNL     1      -5.147  -3.366  -5.807  0.00  0.00    +0.017 C 
ATOM     23  C   UNL     1      -5.966  -3.679  -7.024  0.00  0.00    +0.159 C 
ATOM     24  C   UNL     1      -5.224  -3.133  -8.229  0.00  0.00    -0.018 C 
ATOM     25  C   UNL     1      -6.137  -2.435  -8.928  0.00  0.00    +0.025 C 
ATOM     26  C   UNL     1      -7.337  -2.360  -8.185  0.00  0.00    +0.106 C 
ATOM     27  N   UNL     1      -7.270  -3.032  -7.069  0.00  0.00    -0.279 NA
ATOM     28  C   UNL     1      -3.830  -3.268  -8.386  0.00  0.00    +0.007 C 
ATOM     29  C   UNL     1      -3.120  -3.356  -7.227  0.00  0.00    +0.013 C 
ENDBRANCH  18  21
ENDBRANCH   5  17
BRANCH   1  30
ATOM     30  C   UNL     1       0.612  -2.333   1.046  0.00  0.00    +0.142 C 
BRANCH  30  31
ATOM     31  C   UNL     1       0.475  -0.828   1.288  0.00  0.00    +0.179 C 
BRANCH  31  33
ATOM     32  C   UNL     1      -0.465   1.169   0.353  0.00  0.00    +0.194 C 
ATOM     33  O   UNL     1      -0.278  -0.242   0.224  0.00  0.00    -0.381 OA
ENDBRANCH  31  33
ENDBRANCH  30  31
ENDBRANCH   1  30
TORSDOF 5
