REMARK  Name = ZINC06246557
REMARK  11 active torsions:
REMARK  status: ('A' for Active; 'I' for Inactive)
REMARK    1  A    between atoms: C_1  and  C_2
REMARK    2  A    between atoms: C_5  and  C_8
REMARK    3  A    between atoms: C_10  and  C_33
REMARK    4  A    between atoms: C_12  and  S_16
REMARK    5  A    between atoms: C_13  and  C_14
REMARK    6  A    between atoms: S_16  and  C_17
REMARK    7  A    between atoms: C_17  and  C_19
REMARK    8  A    between atoms: C_17  and  C_20
REMARK    9  A    between atoms: N_22  and  C_23
REMARK   10  A    between atoms: C_26  and  N_30
REMARK   11  A    between atoms: C_28  and  C_29
REMARK                            x       y       z     vdW  Elec       q    Type
REMARK                         _______ _______ _______ _____ _____    ______ ____
ROOT
ATOM      1  C   UNL     1       6.196   2.694  -1.329  0.00  0.00    +0.004 A 
ATOM      2  C   UNL     1       5.937   3.970  -0.832  0.00  0.00    +0.038 A 
ATOM      3  C   UNL     1       4.670   4.264  -0.337  0.00  0.00    +0.073 A 
ATOM      4  N   UNL     1       3.706   3.351  -0.332  0.00  0.00    -0.239 NA
ATOM      5  C   UNL     1       3.900   2.126  -0.792  0.00  0.00    +0.116 A 
ATOM      6  C   UNL     1       5.153   1.744  -1.304  0.00  0.00    +0.091 A 
ENDROOT
BRANCH   1  11
ATOM      7  C   UNL     1      11.389   1.328  -3.407  0.00  0.00    +0.044 C 
ATOM      8  C   UNL     1      10.030   1.685  -2.864  0.00  0.00    -0.050 A 
ATOM      9  C   UNL     1       9.395   2.835  -3.298  0.00  0.00    +0.004 A 
ATOM     10  C   UNL     1       8.150   3.168  -2.803  0.00  0.00    +0.009 A 
ATOM     11  C   UNL     1       7.533   2.343  -1.864  0.00  0.00    -0.016 A 
ATOM     12  C   UNL     1       8.180   1.188  -1.426  0.00  0.00    +0.009 A 
ATOM     13  C   UNL     1       9.422   0.863  -1.932  0.00  0.00    +0.004 A 
ENDBRANCH   1  11
BRANCH   3  14
ATOM     14  C   UNL     1       4.392   5.620   0.193  0.00  0.00    +0.000 A 
ATOM     15  C   UNL     1       5.395   6.589   0.199  0.00  0.00    +0.010 A 
ATOM     16  C   UNL     1       5.128   7.851   0.689  0.00  0.00    +0.001 A 
ATOM     17  C   UNL     1       3.872   8.153   1.184  0.00  0.00    +0.000 A 
ATOM     18  C   UNL     1       2.874   7.194   1.185  0.00  0.00    +0.001 A 
ATOM     19  C   UNL     1       3.128   5.931   0.692  0.00  0.00    +0.010 A 
ENDBRANCH   3  14
BRANCH   6  20
ATOM     20  C   UNL     1       5.365   0.416  -1.797  0.00  0.00    +0.102 C 
ATOM     21  N   UNL     1       5.533  -0.637  -2.187  0.00  0.00    -0.191 NA
ENDBRANCH   6  20
BRANCH   5  22
ATOM     22  S   UNL     1       2.579   0.961  -0.756  0.00  0.00    -0.092 S 
BRANCH  22  23
ATOM     23  C   UNL     1       1.280   1.980  -0.015  0.00  0.00    +0.136 C 
ATOM     24  C   UNL     1       1.676   2.350   1.416  0.00  0.00    +0.029 C 
BRANCH  23  25
ATOM     25  C   UNL     1      -0.014   1.209   0.005  0.00  0.00    +0.230 C 
ATOM     26  O   UNL     1       0.003  -0.004   0.005  0.00  0.00    -0.274 OA
ATOM     27  N   UNL     1      -1.191   1.867   0.018  0.00  0.00    -0.284 N 
ATOM     28  H   UNL     1      -1.205   2.833   0.099  0.00  0.00    +0.155 HD
BRANCH  27  29
ATOM     29  C   UNL     1      -2.391   1.155  -0.086  0.00  0.00    +0.036 A 
ATOM     30  C   UNL     1      -2.411  -0.091  -0.699  0.00  0.00    +0.026 A 
ATOM     31  C   UNL     1      -3.597  -0.791  -0.800  0.00  0.00    +0.034 A 
ATOM     32  C   UNL     1      -4.765  -0.252  -0.291  0.00  0.00    +0.127 A 
ATOM     33  C   UNL     1      -4.748   0.989   0.320  0.00  0.00    +0.038 A 
ATOM     34  C   UNL     1      -3.564   1.691   0.428  0.00  0.00    -0.027 A 
ATOM     35  C   UNL     1      -3.546   3.040   1.100  0.00  0.00    +0.046 C 
BRANCH  32  36
ATOM     36  N   UNL     1      -6.035  -1.004  -0.401  0.00  0.00    +0.056 N 
ATOM     37  O   UNL     1      -6.050  -2.097  -0.939  0.00  0.00    -0.126 OA
ATOM     38  O   UNL     1      -7.064  -0.530   0.046  0.00  0.00    -0.126 OA
ENDBRANCH  32  36
ENDBRANCH  27  29
ENDBRANCH  23  25
ENDBRANCH  22  23
ENDBRANCH   5  22
TORSDOF 8
