REMARK  Name = ZINC39875339
REMARK  8 active torsions:
REMARK  status: ('A' for Active; 'I' for Inactive)
REMARK    1  A    between atoms: C_1  and  C_2
REMARK    2  A    between atoms: C_2  and  C_3
REMARK    3  A    between atoms: C_6  and  N_9
REMARK    4  A    between atoms: C_10  and  C_26
REMARK    5  A    between atoms: C_29  and  O_35
REMARK    6  A    between atoms: C_30  and  O_32
REMARK    7  A    between atoms: O_32  and  C_33
REMARK    8  A    between atoms: C_33  and  C_34
REMARK                            x       y       z     vdW  Elec       q    Type
REMARK                         _______ _______ _______ _____ _____    ______ ____
ROOT
ATOM      1  N   UNL     1       2.745  -1.884   4.596  0.00  0.00    -0.253 N 
ATOM      2  C   UNL     1       2.136  -2.199   5.899  0.00  0.00    +0.150 C 
ATOM      3  C   UNL     1       3.258  -2.650   6.775  0.00  0.00    +0.072 A 
ATOM      4  C   UNL     1       3.277  -3.083   8.176  0.00  0.00    +0.199 A 
ATOM      5  O   UNL     1       2.266  -3.305   8.819  0.00  0.00    -0.287 OA
ATOM      6  C   UNL     1       4.644  -3.227   8.736  0.00  0.00    +0.065 A 
ATOM      7  C   UNL     1       4.829  -3.437  10.102  0.00  0.00    +0.030 A 
ATOM      8  C   UNL     1       6.106  -3.563  10.605  0.00  0.00    +0.019 A 
ATOM      9  C   UNL     1       7.200  -3.480   9.754  0.00  0.00    +0.019 A 
ATOM     10  C   UNL     1       7.029  -3.274   8.404  0.00  0.00    +0.048 A 
ATOM     11  C   UNL     1       5.747  -3.147   7.870  0.00  0.00    +0.140 A 
ATOM     12  O   UNL     1       5.607  -2.955   6.538  0.00  0.00    -0.450 OA
ATOM     13  C   UNL     1       4.407  -2.602   6.037  0.00  0.00    +0.199 A 
ATOM     14  C   UNL     1       4.069  -2.127   4.685  0.00  0.00    +0.287 C 
ATOM     15  O   UNL     1       4.866  -1.974   3.781  0.00  0.00    -0.266 OA
ATOM     16 BR   UNL     1       6.368  -3.849  12.456  0.00  0.00    -0.050 Br
ENDROOT
BRANCH   1  20
ATOM     17  C   UNL     1       0.731  -0.503   1.223  0.00  0.00    -0.048 A 
ATOM     18  C   UNL     1       2.098  -0.709   1.174  0.00  0.00    +0.005 A 
ATOM     19  C   UNL     1       2.769  -1.167   2.291  0.00  0.00    +0.024 A 
ATOM     20  C   UNL     1       2.069  -1.420   3.465  0.00  0.00    +0.038 A 
ATOM     21  C   UNL     1       0.696  -1.212   3.510  0.00  0.00    +0.024 A 
ATOM     22  C   UNL     1       0.033  -0.749   2.391  0.00  0.00    +0.005 A 
BRANCH  17  24
ATOM     23  C   UNL     1      -0.019   1.526   0.010  0.00  0.00    +0.009 C 
ATOM     24  C   UNL     1       0.002  -0.004   0.002  0.00  0.00    +0.032 C 
ENDBRANCH  17  24
ENDBRANCH   1  20
BRANCH   2  25
ATOM     25  C   UNL     1       1.483  -0.970   6.478  0.00  0.00    -0.018 A 
ATOM     26  C   UNL     1       2.100   0.261   6.356  0.00  0.00    +0.009 A 
ATOM     27  C   UNL     1       1.505   1.391   6.885  0.00  0.00    +0.049 A 
ATOM     28  C   UNL     1       0.288   1.291   7.540  0.00  0.00    +0.158 A 
ATOM     29  C   UNL     1      -0.333   0.052   7.663  0.00  0.00    +0.162 A 
ATOM     30  C   UNL     1       0.267  -1.076   7.126  0.00  0.00    +0.055 A 
BRANCH  28  31
ATOM     31  O   UNL     1      -0.298   2.402   8.062  0.00  0.00    -0.503 OA
ATOM     32  H   UNL     1      -0.890   2.859   7.449  0.00  0.00    +0.292 HD
ENDBRANCH  28  31
BRANCH  29  33
ATOM     33  O   UNL     1      -1.527  -0.051   8.306  0.00  0.00    -0.489 OA
BRANCH  33  34
ATOM     34  C   UNL     1      -2.106  -1.355   8.394  0.00  0.00    +0.226 C 
ATOM     35  C   UNL     1      -3.436  -1.272   9.145  0.00  0.00    +0.048 C 
ENDBRANCH  33  34
ENDBRANCH  29  33
ENDBRANCH   2  25
TORSDOF 6
