REMARK  Name = ZINC09246626
REMARK  9 active torsions:
REMARK  status: ('A' for Active; 'I' for Inactive)
REMARK    1  A    between atoms: C_1  and  C_2
REMARK    2  A    between atoms: C_6  and  N_9
REMARK    3  A    between atoms: C_7  and  C_8
REMARK    4  A    between atoms: C_15  and  C_17
REMARK    5  A    between atoms: C_22  and  C_23
REMARK    6  A    between atoms: C_22  and  N_76
REMARK    7  A    between atoms: C_27  and  O_29
REMARK    8  A    between atoms: O_29  and  C_30
REMARK    9  A    between atoms: C_30  and  C_31
REMARK                            x       y       z     vdW  Elec       q    Type
REMARK                         _______ _______ _______ _____ _____    ______ ____
ROOT
ATOM      1  C   UNL     1      -4.518   1.026   3.797  0.00  0.00    +0.072 C 
ATOM      2  C   UNL     1      -4.642  -0.200   2.888  0.00  0.00    -0.006 C 
ATOM      3  C   UNL     1      -4.297   0.200   1.452  0.00  0.00    -0.078 C 
ATOM      4  C   UNL     1      -2.798   1.936   2.233  0.00  0.00    -0.078 C 
ATOM      5  C   UNL     1      -3.098   1.588   3.693  0.00  0.00    -0.006 C 
ATOM      6  N   UNL     1      -2.910   0.709   1.415  0.00  0.00    +0.382 N 
ATOM      7  H   UNL     1      -2.282  -0.006   1.800  0.00  0.00    -0.081 HD
ENDROOT
BRANCH   1  14
ATOM      8  N   UNL     1      -8.633   0.097   6.495  0.00  0.00    -0.327 N 
ATOM      9  C   UNL     1      -7.500  -0.462   7.245  0.00  0.00    +0.124 C 
ATOM     10  C   UNL     1      -6.307   0.495   7.152  0.00  0.00    +0.126 C 
ATOM     11  N   UNL     1      -6.038   0.769   5.732  0.00  0.00    -0.298 N 
ATOM     12  C   UNL     1      -7.156   1.208   4.884  0.00  0.00    +0.126 C 
ATOM     13  C   UNL     1      -8.317   0.217   5.065  0.00  0.00    +0.124 C 
ATOM     14  C   UNL     1      -4.798   0.626   5.223  0.00  0.00    +0.219 C 
ATOM     15  O   UNL     1      -3.908   0.176   5.912  0.00  0.00    -0.275 OA
BRANCH   8  21
ATOM     16  C   UNL     1     -13.288  -0.204   8.041  0.00  0.00    +0.044 C 
ATOM     17  C   UNL     1     -12.059  -0.836   7.439  0.00  0.00    -0.046 A 
ATOM     18  C   UNL     1     -12.075  -2.171   7.079  0.00  0.00    +0.004 A 
ATOM     19  C   UNL     1     -10.950  -2.754   6.526  0.00  0.00    +0.002 A 
ATOM     20  C   UNL     1      -9.806  -2.005   6.330  0.00  0.00    +0.023 A 
ATOM     21  C   UNL     1      -9.787  -0.663   6.691  0.00  0.00    +0.033 A 
ATOM     22  C   UNL     1     -10.918  -0.082   7.252  0.00  0.00    -0.027 A 
ATOM     23  C   UNL     1     -10.899   1.371   7.650  0.00  0.00    +0.046 C 
ENDBRANCH   8  21
ENDBRANCH   1  14
BRANCH   6  24
ATOM     24  C   UNL     1      -2.514   0.995   0.020  0.00  0.00    -0.043 C 
BRANCH  24  25
ATOM     25  C   UNL     1      -1.216   1.760   0.023  0.00  0.00    -0.060 A 
ATOM     26  C   UNL     1      -0.012   1.078   0.008  0.00  0.00    +0.002 A 
ATOM     27  C   UNL     1       1.181   1.777   0.005  0.00  0.00    +0.004 A 
ATOM     28  C   UNL     1       1.174   3.158   0.021  0.00  0.00    +0.045 A 
ATOM     29  C   UNL     1      -0.032   3.844   0.041  0.00  0.00    +0.121 A 
ATOM     30  C   UNL     1      -1.228   3.141   0.045  0.00  0.00    +0.047 A 
BRANCH  29  31
ATOM     31  O   UNL     1      -0.041   5.203   0.058  0.00  0.00    -0.487 OA
BRANCH  31  32
ATOM     32  C   UNL     1       1.227   5.861   0.054  0.00  0.00    +0.264 C 
BRANCH  32  33
ATOM     33  C   UNL     1       1.019   7.354   0.074  0.00  0.00    -0.010 A 
ATOM     34  C   UNL     1       0.918   8.053  -1.114  0.00  0.00    +0.007 A 
ATOM     35  C   UNL     1       0.722   9.422  -1.095  0.00  0.00    +0.000 A 
ATOM     36  C   UNL     1       0.638  10.091   0.111  0.00  0.00    +0.000 A 
ATOM     37  C   UNL     1       0.745   9.392   1.299  0.00  0.00    +0.000 A 
ATOM     38  C   UNL     1       0.936   8.023   1.280  0.00  0.00    +0.007 A 
ENDBRANCH  32  33
ENDBRANCH  31  32
ENDBRANCH  29  31
ENDBRANCH  24  25
ENDBRANCH   6  24
TORSDOF 7
