REMARK  Name = ZINC39697957
REMARK  5 active torsions:
REMARK  status: ('A' for Active; 'I' for Inactive)
REMARK    1  A    between atoms: C_4  and  C_7
REMARK    2  A    between atoms: C_7  and  C_25
REMARK    3  A    between atoms: C_9  and  C_11
REMARK    4  A    between atoms: N_13  and  N_14
REMARK    5  A    between atoms: C_15  and  C_16
REMARK                            x       y       z     vdW  Elec       q    Type
REMARK                         _______ _______ _______ _____ _____    ______ ____
ROOT
ATOM      1  C   UNL     1       2.192  -2.853   0.280  0.00  0.00    +0.236 C 
ATOM      2  O   UNL     1       1.253  -2.092   0.172  0.00  0.00    -0.274 OA
ATOM      3  N   UNL     1       1.984  -4.184   0.282  0.00  0.00    -0.207 N 
ATOM      4  H   UNL     1       2.735  -4.792   0.368  0.00  0.00    +0.177 HD
ENDROOT
BRANCH   1   7
ATOM      5  C   UNL     1       3.779  -1.035   1.238  0.00  0.00    +0.033 C 
ATOM      6  C   UNL     1       3.901  -0.982  -0.287  0.00  0.00    +0.031 C 
ATOM      7  C   UNL     1       3.591  -2.308   0.410  0.00  0.00    +0.093 C 
BRANCH   5  11
ATOM      8  C   UNL     1       0.298   0.703   3.000  0.00  0.00    +0.000 A 
ATOM      9  C   UNL     1       1.037   1.420   2.078  0.00  0.00    +0.000 A 
ATOM     10  C   UNL     1       2.164   0.858   1.508  0.00  0.00    +0.004 A 
ATOM     11  C   UNL     1       2.552  -0.422   1.860  0.00  0.00    -0.036 A 
ATOM     12  C   UNL     1       1.813  -1.138   2.782  0.00  0.00    +0.004 A 
ATOM     13  C   UNL     1       0.685  -0.576   3.351  0.00  0.00    +0.000 A 
ENDBRANCH   5  11
BRANCH   5  14
ATOM     14  C   UNL     1       5.048  -0.909   2.042  0.00  0.00    -0.036 A 
ATOM     15  C   UNL     1       6.008  -1.901   1.977  0.00  0.00    +0.004 A 
ATOM     16  C   UNL     1       7.172  -1.786   2.715  0.00  0.00    +0.000 A 
ATOM     17  C   UNL     1       7.375  -0.678   3.517  0.00  0.00    +0.000 A 
ATOM     18  C   UNL     1       6.414   0.314   3.581  0.00  0.00    +0.000 A 
ATOM     19  C   UNL     1       5.253   0.201   2.840  0.00  0.00    +0.004 A 
ENDBRANCH   5  14
ENDBRANCH   1   7
BRANCH   3  20
ATOM     20  N   UNL     1       0.683  -4.690   0.161  0.00  0.00    -0.189 NA
ATOM     21  C   UNL     1       0.494  -5.952   0.057  0.00  0.00    +0.149 C 
BRANCH  21  22
ATOM     22  C   UNL     1       1.670  -6.895   0.089  0.00  0.00    +0.219 C 
ATOM     23  N   UNL     1       1.325  -8.154  -0.584  0.00  0.00    -0.359 N 
ATOM     24  C   UNL     1       1.436  -9.109   0.293  0.00  0.00    +0.060 A 
ATOM     25  C   UNL     1       1.227 -10.562   0.220  0.00  0.00    +0.027 A 
ATOM     26  C   UNL     1       1.424 -11.318   1.319  0.00  0.00    +0.002 A 
ATOM     27  C   UNL     1       1.826 -10.774   2.552  0.00  0.00    +0.002 A 
ATOM     28  C   UNL     1       2.044  -9.455   2.728  0.00  0.00    +0.027 A 
ATOM     29  C   UNL     1       1.862  -8.533   1.598  0.00  0.00    +0.060 A 
ATOM     30  N   UNL     1       1.997  -7.244   1.477  0.00  0.00    -0.359 N 
ATOM     31  H   UNL     1       1.062  -8.255  -1.512  0.00  0.00    +0.162 HD
ATOM     32  H   UNL     1       2.266  -6.627   2.176  0.00  0.00    +0.162 HD
ENDBRANCH  21  22
ENDBRANCH   3  20
TORSDOF 5
