REMARK  Name = ZINC45290626
REMARK  1 active torsions:
REMARK  status: ('A' for Active; 'I' for Inactive)
REMARK    1  A    between atoms: C_14  and  C_15
REMARK                            x       y       z     vdW  Elec       q    Type
REMARK                         _______ _______ _______ _____ _____    ______ ____
ROOT
ATOM      1  C   UNL     1       0.175   1.495   0.857  0.00  0.00    +0.000 A 
ATOM      2  C   UNL     1       1.359   2.175   0.631  0.00  0.00    +0.001 A 
ATOM      3  C   UNL     1       2.526   1.473   0.403  0.00  0.00    +0.010 A 
ATOM      4  C   UNL     1       2.506   0.083   0.396  0.00  0.00    +0.004 A 
ATOM      5  C   UNL     1       1.317  -0.600   0.650  0.00  0.00    -0.038 A 
ATOM      6  C   UNL     1       0.154   0.112   0.868  0.00  0.00    +0.004 A 
ATOM      7  C   UNL     1       1.309  -2.103   0.717  0.00  0.00    +0.040 C 
ATOM      8  C   UNL     1       2.282  -2.697  -0.297  0.00  0.00    +0.044 C 
ATOM      9  C   UNL     1       3.632  -2.049  -0.180  0.00  0.00    +0.005 A 
ATOM     10  C   UNL     1       3.739  -0.698   0.141  0.00  0.00    +0.080 A 
ATOM     11  N   UNL     1       4.941  -0.137   0.216  0.00  0.00    -0.214 NA
ATOM     12  C   UNL     1       6.032  -0.859   0.002  0.00  0.00    +0.219 A 
ATOM     13  N   UNL     1       5.973  -2.148  -0.291  0.00  0.00    -0.214 NA
ATOM     14  C   UNL     1       4.801  -2.776  -0.392  0.00  0.00    +0.081 A 
ATOM     15  N   UNL     1       7.271  -0.245   0.086  0.00  0.00    -0.297 N 
ATOM     16  C   UNL     1       7.377   1.183   0.415  0.00  0.00    +0.127 C 
ATOM     17  C   UNL     1       8.293   1.339   1.635  0.00  0.00    +0.125 C 
ATOM     18  N   UNL     1       9.524   0.573   1.399  0.00  0.00    -0.314 N 
ATOM     19  C   UNL     1       9.418  -0.856   1.070  0.00  0.00    +0.125 C 
ATOM     20  C   UNL     1       8.503  -1.012  -0.145  0.00  0.00    +0.127 C 
ATOM     21  C   UNL     1      10.768   1.189   1.484  0.00  0.00    +0.099 A 
ATOM     22  C   UNL     1      10.856   2.505   1.927  0.00  0.00    +0.042 A 
ATOM     23  C   UNL     1      12.100   3.105   2.007  0.00  0.00    +0.005 A 
ATOM     24  C   UNL     1      13.217   2.367   1.639  0.00  0.00    +0.018 A 
ATOM     25  C   UNL     1      13.056   1.066   1.207  0.00  0.00    +0.084 A 
ATOM     26  N   UNL     1      11.857   0.516   1.147  0.00  0.00    -0.350 N 
ATOM     27  H   UNL     1      11.772  -0.401   0.844  0.00  0.00    +0.166 HD
ENDROOT
BRANCH  14  28
ATOM     28  C   UNL     1       4.743  -4.221  -0.722  0.00  0.00    +0.019 A 
ATOM     29  C   UNL     1       3.916  -4.670  -1.751  0.00  0.00    +0.013 A 
ATOM     30  C   UNL     1       3.866  -6.015  -2.054  0.00  0.00    +0.021 A 
ATOM     31  C   UNL     1       4.635  -6.918  -1.340  0.00  0.00    +0.042 A 
ATOM     32  C   UNL     1       5.458  -6.478  -0.318  0.00  0.00    +0.040 A 
ATOM     33  C   UNL     1       5.520  -5.133  -0.009  0.00  0.00    +0.052 A 
ATOM     34 CL   UNL     1       6.557  -4.582   1.269  0.00  0.00    -0.083 Cl
ATOM     35 CL   UNL     1       4.566  -8.609  -1.728  0.00  0.00    -0.083 Cl
ENDBRANCH  14  28
TORSDOF 1
