REMARK  Name = ZINC01916140
REMARK  10 active torsions:
REMARK  status: ('A' for Active; 'I' for Inactive)
REMARK    1  A    between atoms: C_1  and  C_2
REMARK    2  A    between atoms: C_5  and  C_33
REMARK    3  A    between atoms: C_6  and  O_8
REMARK    4  A    between atoms: O_8  and  C_9
REMARK    5  A    between atoms: C_15  and  O_32
REMARK    6  A    between atoms: C_16  and  C_24
REMARK    7  A    between atoms: C_19  and  C_20
REMARK    8  A    between atoms: C_24  and  N_62
REMARK    9  A    between atoms: C_25  and  N_62
REMARK   10  A    between atoms: C_26  and  N_62
REMARK                            x       y       z     vdW  Elec       q    Type
REMARK                         _______ _______ _______ _____ _____    ______ ____
ROOT
ATOM      1  C   UNL     1       1.145  -0.718  -0.013  0.00  0.00    +0.222 A 
ATOM      2  C   UNL     1       2.397  -0.038  -0.021  0.00  0.00    +0.235 A 
ATOM      3  O   UNL     1       3.452  -0.650  -0.034  0.00  0.00    -0.283 OA
ATOM      4  C   UNL     1       2.365   1.434  -0.013  0.00  0.00    +0.068 A 
ATOM      5  C   UNL     1       3.539   2.188  -0.020  0.00  0.00    +0.019 A 
ATOM      6  C   UNL     1       3.469   3.551  -0.013  0.00  0.00    +0.046 A 
ATOM      7  C   UNL     1       2.232   4.194   0.003  0.00  0.00    +0.122 A 
ATOM      8  C   UNL     1       1.058   3.460   0.011  0.00  0.00    +0.020 A 
ATOM      9  C   UNL     1       1.112   2.073   0.003  0.00  0.00    +0.144 A 
ATOM     10  O   UNL     1      -0.016   1.335   0.009  0.00  0.00    -0.447 OA
ATOM     11  C   UNL     1       0.002  -0.004   0.002  0.00  0.00    +0.254 A 
ENDROOT
BRANCH  11  12
ATOM     12  C   UNL     1      -1.311  -0.744   0.011  0.00  0.00    +0.454 C 
ATOM     13  F   UNL     1      -1.704  -0.980   1.333  0.00  0.00    -0.163 F 
ATOM     14  F   UNL     1      -2.284   0.026  -0.635  0.00  0.00    -0.163 F 
ATOM     15  F   UNL     1      -1.163  -1.965  -0.656  0.00  0.00    -0.163 F 
ENDBRANCH  11  12
BRANCH   7  16
ATOM     16  O   UNL     1       2.179   5.550   0.011  0.00  0.00    -0.506 OA
ATOM     17  H   UNL     1       2.171   5.938   0.897  0.00  0.00    +0.292 HD
ENDBRANCH   7  16
BRANCH   1  18
ATOM     18  O   UNL     1       1.104  -2.078  -0.020  0.00  0.00    -0.448 OA
BRANCH  18  24
ATOM     19  C   UNL     1       1.064  -1.808  -4.893  0.00  0.00    +0.044 C 
ATOM     20  C   UNL     1       1.053  -2.612  -3.618  0.00  0.00    -0.047 A 
ATOM     21  C   UNL     1       1.011  -3.993  -3.673  0.00  0.00    +0.004 A 
ATOM     22  C   UNL     1       1.000  -4.733  -2.505  0.00  0.00    +0.007 A 
ATOM     23  C   UNL     1       1.031  -4.095  -1.280  0.00  0.00    -0.008 A 
ATOM     24  C   UNL     1       1.074  -2.709  -1.223  0.00  0.00    +0.132 A 
ATOM     25  C   UNL     1       1.079  -1.968  -2.397  0.00  0.00    +0.050 A 
ATOM     26  C   UNL     1       1.018  -4.902  -0.008  0.00  0.00    +0.047 C 
ENDBRANCH  18  24
ENDBRANCH   1  18
BRANCH   8  27
ATOM     27  C   UNL     1      -0.274   4.165   0.028  0.00  0.00    -0.036 C 
BRANCH  27  29
ATOM     28  C   UNL     1       0.209   5.327   2.096  0.00  0.00    -0.095 C 
ATOM     29  N   UNL     1      -0.691   4.362   1.432  0.00  0.00    +0.383 N 
ATOM     30  H   UNL     1      -0.638   3.462   1.924  0.00  0.00    -0.081 HD
BRANCH  29  31
ATOM     31  C   UNL     1      -2.084   4.854   1.480  0.00  0.00    -0.069 C 
ATOM     32  C   UNL     1      -2.191   6.230   0.821  0.00  0.00    -0.015 C 
ATOM     33  C   UNL     1      -3.640   6.716   0.886  0.00  0.00    -0.002 C 
ATOM     34  C   UNL     1      -4.079   6.816   2.348  0.00  0.00    -0.000 C 
ATOM     35  C   UNL     1      -3.973   5.440   3.008  0.00  0.00    -0.002 C 
ATOM     36  C   UNL     1      -2.524   4.954   2.942  0.00  0.00    -0.015 C 
ENDBRANCH  29  31
ENDBRANCH  27  29
ENDBRANCH   8  27
TORSDOF 7
