REMARK  Name = ZINC27016873
REMARK  7 active torsions:
REMARK  status: ('A' for Active; 'I' for Inactive)
REMARK    1  A    between atoms: C_7  and  C_23
REMARK    2  A    between atoms: N_11  and  C_12
REMARK    3  A    between atoms: C_12  and  C_13
REMARK    4  A    between atoms: N_15  and  C_16
REMARK    5  A    between atoms: N_27  and  C_31
REMARK    6  A    between atoms: C_31  and  C_32
REMARK    7  A    between atoms: C_32  and  C_33
REMARK                            x       y       z     vdW  Elec       q    Type
REMARK                         _______ _______ _______ _____ _____    ______ ____
ROOT
ATOM      1  C   UNL     1      -0.010   1.386  -0.013  0.00  0.00    +0.000 A 
ATOM      2  C   UNL     1       1.182   2.087  -0.023  0.00  0.00    +0.002 A 
ATOM      3  C   UNL     1       2.387   1.415  -0.032  0.00  0.00    +0.024 A 
ATOM      4  C   UNL     1       2.410   0.021  -0.030  0.00  0.00    +0.041 A 
ATOM      5  C   UNL     1       1.206  -0.671  -0.019  0.00  0.00    -0.010 A 
ATOM      6  C   UNL     1       0.005   0.002  -0.011  0.00  0.00    +0.006 A 
ATOM      7  C   UNL     1       1.560  -2.140  -0.020  0.00  0.00    +0.131 C 
ATOM      8  C   UNL     1       3.074  -2.154  -0.032  0.00  0.00    +0.232 C 
ATOM      9  O   UNL     1       3.786  -3.136  -0.036  0.00  0.00    -0.274 OA
ATOM     10  N   UNL     1       3.481  -0.873  -0.037  0.00  0.00    -0.262 N 
ENDROOT
BRANCH   7  11
ATOM     11  C   UNL     1       1.033  -2.811   1.222  0.00  0.00    +0.011 C 
ATOM     12  C   UNL     1       0.162  -3.821   1.118  0.00  0.00    +0.074 C 
ATOM     13  C   UNL     1      -0.492  -4.621   2.184  0.00  0.00    +0.258 C 
ATOM     14  O   UNL     1      -0.275  -4.415   3.363  0.00  0.00    -0.269 OA
ATOM     15  N   UNL     1      -1.322  -5.570   1.783  0.00  0.00    -0.255 N 
ATOM     16  C   UNL     1      -1.558  -5.793   0.475  0.00  0.00    +0.121 C 
ATOM     17  S   UNL     1      -2.590  -6.963  -0.232  0.00  0.00    -0.027 S 
ATOM     18  S   UNL     1      -0.544  -4.573  -0.343  0.00  0.00    -0.061 S 
BRANCH  15  19
ATOM     19  C   UNL     1      -2.000  -6.397   2.784  0.00  0.00    +0.126 C 
BRANCH  19  20
ATOM     20  C   UNL     1      -3.328  -5.744   3.170  0.00  0.00    +0.144 C 
BRANCH  20  21
ATOM     21  C   UNL     1      -4.026  -6.595   4.200  0.00  0.00    +0.358 C 
ATOM     22  O   UNL     1      -3.508  -7.628   4.589  0.00  0.00    -0.246 OA
ATOM     23  O   UNL     1      -5.108  -6.251   4.644  0.00  0.00    -0.246 OA
ENDBRANCH  20  21
ENDBRANCH  19  20
ENDBRANCH  15  19
ENDBRANCH   7  11
BRANCH  10  24
ATOM     24  C   UNL     1       4.887  -0.463  -0.049  0.00  0.00    +0.209 C 
BRANCH  24  25
ATOM     25  C   UNL     1       5.381  -0.320   1.368  0.00  0.00    +0.235 C 
ATOM     26  O   UNL     1       4.631  -0.540   2.296  0.00  0.00    -0.274 OA
ATOM     27  N   UNL     1       6.655   0.051   1.604  0.00  0.00    -0.284 N 
ATOM     28  H   UNL     1       7.273   0.161   0.864  0.00  0.00    +0.155 HD
BRANCH  27  29
ATOM     29  C   UNL     1       7.086   0.277   2.916  0.00  0.00    +0.035 A 
ATOM     30  C   UNL     1       8.011   1.279   3.181  0.00  0.00    +0.023 A 
ATOM     31  C   UNL     1       8.435   1.500   4.476  0.00  0.00    +0.003 A 
ATOM     32  C   UNL     1       7.940   0.726   5.510  0.00  0.00    +0.020 A 
ATOM     33  C   UNL     1       7.018  -0.272   5.249  0.00  0.00    +0.043 A 
ATOM     34  C   UNL     1       6.586  -0.495   3.955  0.00  0.00    +0.043 A 
ATOM     35 CL   UNL     1       6.400  -1.242   6.550  0.00  0.00    -0.083 Cl
ENDBRANCH  27  29
ENDBRANCH  24  25
ENDBRANCH  10  24
TORSDOF 7
