REMARK  Name = ZINC27100163
REMARK  11 active torsions:
REMARK  status: ('A' for Active; 'I' for Inactive)
REMARK    1  A    between atoms: C_1  and  C_2
REMARK    2  A    between atoms: C_2  and  O_3
REMARK    3  A    between atoms: O_3  and  C_4
REMARK    4  A    between atoms: C_4  and  C_6
REMARK    5  A    between atoms: C_9  and  O_12
REMARK    6  A    between atoms: O_12  and  C_13
REMARK    7  A    between atoms: C_22  and  O_39
REMARK    8  A    between atoms: C_23  and  C_24
REMARK    9  A    between atoms: C_24  and  N_25
REMARK   10  A    between atoms: C_30  and  C_32
REMARK   11  A    between atoms: C_35  and  C_38
REMARK                            x       y       z     vdW  Elec       q    Type
REMARK                         _______ _______ _______ _____ _____    ______ ____
ROOT
ATOM      1  C   UNL     1       3.551   5.684  -3.397  0.00  0.00    +0.210 A 
ATOM      2  C   UNL     1       2.548   4.820  -3.652  0.00  0.00    +0.245 A 
ATOM      3  O   UNL     1       2.629   3.513  -3.371  0.00  0.00    -0.459 OA
ATOM      4  C   UNL     1       3.724   2.961  -2.809  0.00  0.00    +0.143 A 
ATOM      5  C   UNL     1       4.830   3.770  -2.493  0.00  0.00    +0.068 A 
ATOM      6  C   UNL     1       4.750   5.210  -2.793  0.00  0.00    +0.235 A 
ATOM      7  O   UNL     1       5.678   5.962  -2.547  0.00  0.00    -0.283 OA
ATOM      8  C   UNL     1       5.970   3.209  -1.917  0.00  0.00    +0.019 A 
ATOM      9  C   UNL     1       6.008   1.870  -1.654  0.00  0.00    +0.046 A 
ATOM     10  C   UNL     1       4.914   1.061  -1.958  0.00  0.00    +0.122 A 
ATOM     11  C   UNL     1       3.775   1.603  -2.530  0.00  0.00    +0.020 A 
ENDROOT
BRANCH  10  12
ATOM     12  O   UNL     1       4.966  -0.269  -1.691  0.00  0.00    -0.506 OA
ATOM     13  H   UNL     1       4.106  -0.911  -1.929  0.00  0.00    +0.292 HD
ENDBRANCH  10  12
BRANCH   1  14
ATOM     14  O   UNL     1       3.413   7.003  -3.705  0.00  0.00    -0.449 OA
BRANCH  14  18
ATOM     15  C   UNL     1      -0.150   8.240  -5.381  0.00  0.00    +0.059 A 
ATOM     16  C   UNL     1       0.009   8.240  -3.992  0.00  0.00    +0.018 A 
ATOM     17  C   UNL     1       1.199   7.827  -3.437  0.00  0.00    +0.047 A 
ATOM     18  C   UNL     1       2.242   7.410  -4.256  0.00  0.00    +0.129 A 
ATOM     19  C   UNL     1       2.091   7.413  -5.638  0.00  0.00    +0.047 A 
ATOM     20  C   UNL     1       0.902   7.820  -6.201  0.00  0.00    +0.018 A 
BRANCH  15  21
ATOM     21  C   UNL     1      -1.423   8.681  -5.980  0.00  0.00    +0.339 C 
ATOM     22  O   UNL     1      -2.336   9.045  -5.267  0.00  0.00    -0.245 OA
BRANCH  21  23
ATOM     23  O   UNL     1      -1.573   8.680  -7.319  0.00  0.00    -0.461 OA
BRANCH  23  25
ATOM     24  C   UNL     1      -2.836   9.057  -9.367  0.00  0.00    +0.048 C 
ATOM     25  C   UNL     1      -2.853   9.127  -7.839  0.00  0.00    +0.229 C 
ENDBRANCH  23  25
ENDBRANCH  21  23
ENDBRANCH  15  21
ENDBRANCH  14  18
ENDBRANCH   1  14
BRANCH  11  26
ATOM     26  C   UNL     1       2.599   0.719  -2.855  0.00  0.00    -0.035 C 
BRANCH  26  27
ATOM     27  N   UNL     1       1.693   0.664  -1.700  0.00  0.00    +0.387 N 
ATOM     28  C   UNL     1       2.334  -0.004  -0.560  0.00  0.00    -0.078 C 
ATOM     29  C   UNL     1       1.422   0.086   0.665  0.00  0.00    -0.019 C 
ATOM     30  C   UNL     1       0.081  -0.581   0.347  0.00  0.00    -0.003 C 
ATOM     31  C   UNL     1      -0.543   0.102  -0.873  0.00  0.00    -0.011 C 
ATOM     32  C   UNL     1       0.427   0.011  -2.054  0.00  0.00    -0.037 C 
ATOM     33  H   UNL     1       1.465   1.697  -1.398  0.00  0.00    -0.080 HD
BRANCH  32  34
ATOM     34  C   UNL     1      -0.175   0.699  -3.252  0.00  0.00    -0.061 A 
ATOM     35  C   UNL     1      -0.126   2.077  -3.355  0.00  0.00    +0.002 A 
ATOM     36  C   UNL     1      -0.674   2.708  -4.456  0.00  0.00    +0.003 A 
ATOM     37  C   UNL     1      -1.280   1.962  -5.449  0.00  0.00    -0.050 A 
ATOM     38  C   UNL     1      -1.334   0.584  -5.344  0.00  0.00    +0.003 A 
ATOM     39  C   UNL     1      -0.782  -0.047  -4.245  0.00  0.00    +0.002 A 
ATOM     40  C   UNL     1      -1.881   2.650  -6.648  0.00  0.00    +0.044 C 
ENDBRANCH  32  34
ENDBRANCH  26  27
ENDBRANCH  11  26
TORSDOF 9
