REMARK  Name = ZINC35063173
REMARK  12 active torsions:
REMARK  status: ('A' for Active; 'I' for Inactive)
REMARK    1  A    between atoms: C_1  and  C_2
REMARK    2  A    between atoms: C_2  and  C_3
REMARK    3  A    between atoms: C_6  and  N_9
REMARK    4  A    between atoms: N_12  and  C_13
REMARK    5  A    between atoms: N_12  and  C_17
REMARK    6  A    between atoms: C_13  and  C_14
REMARK    7  A    between atoms: C_14  and  O_15
REMARK    8  A    between atoms: O_15  and  C_16
REMARK    9  A    between atoms: C_17  and  C_19
REMARK   10  A    between atoms: C_17  and  C_20
REMARK   11  A    between atoms: N_30  and  C_31
REMARK   12  A    between atoms: C_34  and  C_37
REMARK                            x       y       z     vdW  Elec       q    Type
REMARK                         _______ _______ _______ _____ _____    ______ ____
ROOT
ATOM      1  C   UNL     1      -8.250  -3.291  -1.643  0.00  0.00    +0.141 C 
ATOM      2  C   UNL     1      -9.676  -2.776  -1.433  0.00  0.00    +0.036 C 
ENDROOT
BRANCH   1   3
ATOM      3  C   UNL     1      -8.297  -4.726  -2.101  0.00  0.00    +0.138 A 
ATOM      4  N   UNL     1      -7.651  -5.615  -1.410  0.00  0.00    -0.231 NA
ATOM      5  C   UNL     1      -7.647  -6.925  -1.763  0.00  0.00    +0.078 A 
ATOM      6  C   UNL     1      -6.953  -7.881  -1.019  0.00  0.00    +0.028 A 
ATOM      7  C   UNL     1      -6.977  -9.200  -1.413  0.00  0.00    +0.002 A 
ATOM      8  C   UNL     1      -7.684  -9.593  -2.542  0.00  0.00    +0.001 A 
ATOM      9  C   UNL     1      -8.377  -8.668  -3.292  0.00  0.00    +0.015 A 
ATOM     10  C   UNL     1      -8.366  -7.328  -2.910  0.00  0.00    +0.065 A 
ATOM     11  C   UNL     1      -9.087  -6.297  -3.671  0.00  0.00    +0.266 A 
ATOM     12  O   UNL     1      -9.725  -6.578  -4.669  0.00  0.00    -0.267 OA
ATOM     13  N   UNL     1      -9.019  -5.024  -3.215  0.00  0.00    -0.263 N 
BRANCH  13  14
ATOM     14  C   UNL     1      -9.692  -4.005  -3.900  0.00  0.00    +0.051 A 
ATOM     15  C   UNL     1      -8.973  -3.033  -4.583  0.00  0.00    +0.026 A 
ATOM     16  C   UNL     1      -9.640  -2.029  -5.258  0.00  0.00    +0.005 A 
ATOM     17  C   UNL     1     -11.023  -1.992  -5.254  0.00  0.00    -0.050 A 
ATOM     18  C   UNL     1     -11.741  -2.958  -4.574  0.00  0.00    +0.005 A 
ATOM     19  C   UNL     1     -11.080  -3.967  -3.902  0.00  0.00    +0.026 A 
ATOM     20  C   UNL     1     -11.747  -0.895  -5.990  0.00  0.00    +0.044 C 
ENDBRANCH  13  14
ENDBRANCH   1   3
BRANCH   1  24
ATOM     21  N   UNL     1      -5.757  -2.313   0.877  0.00  0.00    -0.269 N 
ATOM     22  C   UNL     1      -6.439  -2.392  -0.283  0.00  0.00    +0.307 C 
ATOM     23  O   UNL     1      -6.088  -1.730  -1.241  0.00  0.00    -0.252 OA
ATOM     24  N   UNL     1      -7.509  -3.205  -0.382  0.00  0.00    -0.273 N 
ATOM     25  H   UNL     1      -5.992  -2.893   1.618  0.00  0.00    +0.156 HD
BRANCH  21  29
ATOM     26  C   UNL     1      -2.639   0.421   1.278  0.00  0.00    -0.048 A 
ATOM     27  C   UNL     1      -2.851  -0.211   0.067  0.00  0.00    +0.005 A 
ATOM     28  C   UNL     1      -3.884  -1.118  -0.070  0.00  0.00    +0.023 A 
ATOM     29  C   UNL     1      -4.710  -1.395   1.012  0.00  0.00    +0.035 A 
ATOM     30  C   UNL     1      -4.495  -0.758   2.227  0.00  0.00    +0.023 A 
ATOM     31  C   UNL     1      -3.457   0.144   2.358  0.00  0.00    +0.005 A 
BRANCH  26  33
ATOM     32  C   UNL     1      -0.245   0.678   1.868  0.00  0.00    +0.009 C 
ATOM     33  C   UNL     1      -1.512   1.411   1.423  0.00  0.00    +0.032 C 
ENDBRANCH  26  33
ENDBRANCH  21  29
BRANCH  24  34
ATOM     34  C   UNL     1      -7.932  -4.003   0.772  0.00  0.00    +0.138 C 
BRANCH  34  35
ATOM     35  C   UNL     1      -8.749  -3.128   1.725  0.00  0.00    +0.178 C 
BRANCH  35  36
ATOM     36  O   UNL     1      -9.988  -2.776   1.105  0.00  0.00    -0.381 OA
ATOM     37  C   UNL     1     -10.831  -1.955   1.916  0.00  0.00    +0.194 C 
ENDBRANCH  35  36
ENDBRANCH  34  35
ENDBRANCH  24  34
ENDBRANCH   1  24
TORSDOF 8
