REMARK  Name = ZINC16928505
REMARK  10 active torsions:
REMARK  status: ('A' for Active; 'I' for Inactive)
REMARK    1  A    between atoms: C_1  and  C_2
REMARK    2  A    between atoms: C_2  and  C_3
REMARK    3  A    between atoms: C_3  and  C_5
REMARK    4  A    between atoms: C_3  and  O_8
REMARK    5  A    between atoms: O_8  and  C_9
REMARK    6  A    between atoms: C_14  and  C_15
REMARK    7  A    between atoms: C_20  and  N_22
REMARK    8  A    between atoms: N_22  and  C_23
REMARK    9  A    between atoms: C_25  and  C_32
REMARK   10  A    between atoms: C_27  and  C_29
REMARK                            x       y       z     vdW  Elec       q    Type
REMARK                         _______ _______ _______ _____ _____    ______ ____
ROOT
ATOM      1  C   UNL     1      -3.398   1.781   3.436  0.00  0.00    +0.032 C 
ATOM      2  C   UNL     1      -4.066   1.897   4.611  0.00  0.00    +0.080 C 
ATOM      3  C   UNL     1      -3.545   1.982   5.995  0.00  0.00    +0.276 C 
ATOM      4  O   UNL     1      -2.348   1.955   6.235  0.00  0.00    -0.267 OA
ATOM      5  N   UNL     1      -4.441   2.090   6.951  0.00  0.00    -0.152 NA
ATOM      6  C   UNL     1      -5.742   2.121   6.704  0.00  0.00    +0.175 C 
ATOM      7  S   UNL     1      -5.824   1.995   4.925  0.00  0.00    -0.050 S 
ENDROOT
BRANCH   1  13
ATOM      8  C   UNL     1      -3.536   1.786   0.949  0.00  0.00    +0.129 A 
ATOM      9  C   UNL     1      -4.242   1.538  -0.217  0.00  0.00    +0.046 A 
ATOM     10  C   UNL     1      -5.533   1.049  -0.156  0.00  0.00    +0.004 A 
ATOM     11  C   UNL     1      -6.132   0.800   1.068  0.00  0.00    +0.001 A 
ATOM     12  C   UNL     1      -5.447   1.039   2.239  0.00  0.00    +0.011 A 
ATOM     13  C   UNL     1      -4.137   1.530   2.193  0.00  0.00    +0.018 A 
BRANCH   8  14
ATOM     14  O   UNL     1      -2.269   2.267   0.890  0.00  0.00    -0.477 OA
BRANCH  14  15
ATOM     15  C   UNL     1      -1.766   2.613  -0.402  0.00  0.00    +0.285 C 
BRANCH  15  16
ATOM     16  C   UNL     1      -1.214   1.382  -1.073  0.00  0.00    +0.396 C 
ATOM     17  O   UNL     1      -1.165   0.327  -0.464  0.00  0.00    -0.242 OA
ATOM     18  O   UNL     1      -0.817   1.441  -2.224  0.00  0.00    -0.242 OA
ENDBRANCH  15  16
BRANCH  15  20
ATOM     19  C   UNL     1      -1.242   4.950   0.311  0.00  0.00    +0.008 C 
ATOM     20  C   UNL     1      -0.655   3.655  -0.255  0.00  0.00    +0.053 C 
ENDBRANCH  15  20
ENDBRANCH  14  15
ENDBRANCH   8  14
ENDBRANCH   1  13
BRANCH   6  21
ATOM     21  N   UNL     1      -6.775   2.228   7.599  0.00  0.00    -0.192 NA
BRANCH  21  22
ATOM     22  C   UNL     1      -6.511   2.522   8.941  0.00  0.00    +0.057 A 
ATOM     23  C   UNL     1      -5.318   3.137   9.293  0.00  0.00    +0.040 A 
ATOM     24  C   UNL     1      -5.051   3.432  10.632  0.00  0.00    +0.066 A 
ATOM     25  C   UNL     1      -5.984   3.106  11.616  0.00  0.00    +0.030 A 
ATOM     26  C   UNL     1      -7.181   2.488  11.258  0.00  0.00    +0.066 A 
ATOM     27  C   UNL     1      -7.444   2.201   9.916  0.00  0.00    +0.040 A 
BRANCH  26  28
ATOM     28  C   UNL     1      -8.173   2.142  12.295  0.00  0.00    +0.387 C 
ATOM     29  O   UNL     1      -7.944   2.397  13.469  0.00  0.00    -0.241 OA
ATOM     30  O   UNL     1      -9.223   1.600  11.980  0.00  0.00    -0.241 OA
ENDBRANCH  26  28
BRANCH  24  31
ATOM     31  C   UNL     1      -3.781   4.086  11.006  0.00  0.00    +0.387 C 
ATOM     32  O   UNL     1      -2.963   4.370  10.143  0.00  0.00    -0.241 OA
ATOM     33  O   UNL     1      -3.548   4.343  12.178  0.00  0.00    -0.241 OA
ENDBRANCH  24  31
ENDBRANCH  21  22
ENDBRANCH   6  21
TORSDOF 9
