REMARK  Name = ZINC09265731
REMARK  12 active torsions:
REMARK  status: ('A' for Active; 'I' for Inactive)
REMARK    1  A    between atoms: C_1  and  C_2
REMARK    2  A    between atoms: C_2  and  O_3
REMARK    3  A    between atoms: O_3  and  C_4
REMARK    4  A    between atoms: C_6  and  C_16
REMARK    5  A    between atoms: C_8  and  O_13
REMARK    6  A    between atoms: C_9  and  O_10
REMARK    7  A    between atoms: O_10  and  C_11
REMARK    8  A    between atoms: C_11  and  C_12
REMARK    9  A    between atoms: O_13  and  C_14
REMARK   10  A    between atoms: C_14  and  C_15
REMARK   11  A    between atoms: C_16  and  N_17
REMARK   12  A    between atoms: C_18  and  C_20
REMARK                            x       y       z     vdW  Elec       q    Type
REMARK                         _______ _______ _______ _____ _____    ______ ____
ROOT
ATOM      1  N   UNL     1      -1.837   7.856   3.111  0.00  0.00    -0.311 N 
ATOM      2  C   UNL     1      -2.059   9.133   3.481  0.00  0.00    +0.216 C 
ATOM      3  O   UNL     1      -1.673  10.044   2.781  0.00  0.00    -0.276 OA
ATOM      4  H   UNL     1      -2.146   7.127   3.671  0.00  0.00    +0.149 HD
ENDROOT
BRANCH   2   5
ATOM      5  C   UNL     1      -2.789   9.427   4.767  0.00  0.00    +0.078 C 
ATOM      6  C   UNL     1      -4.190   8.811   4.713  0.00  0.00    +0.032 C 
ATOM      7  C   UNL     1      -4.948   9.167   5.994  0.00  0.00    +0.108 C 
ATOM      8  N   UNL     1      -5.039  10.627   6.122  0.00  0.00    -0.308 N 
ATOM      9  C   UNL     1      -3.706  11.235   6.224  0.00  0.00    +0.108 C 
ATOM     10  C   UNL     1      -2.912  10.943   4.949  0.00  0.00    +0.032 C 
ATOM     11  C   UNL     1      -5.832  10.983   7.205  0.00  0.00    +0.186 A 
ATOM     12  N   UNL     1      -5.553  11.746   8.251  0.00  0.00    -0.124 NA
ATOM     13  N   UNL     1      -6.402  11.973   9.156  0.00  0.00    -0.121 NA
ATOM     14  C   UNL     1      -7.618  11.456   9.123  0.00  0.00    +0.202 A 
ATOM     15  S   UNL     1      -7.522  10.534   7.590  0.00  0.00    -0.013 S 
ATOM     16  N   UNL     1      -8.675  11.589  10.025  0.00  0.00    -0.301 N 
ATOM     17  C   UNL     1      -9.908  11.014   9.899  0.00  0.00    +0.093 A 
ATOM     18  C   UNL     1     -10.651  11.371  10.966  0.00  0.00    +0.019 A 
ATOM     19  C   UNL     1      -9.854  12.205  11.776  0.00  0.00    +0.019 A 
ATOM     20  C   UNL     1      -8.651  12.322  11.178  0.00  0.00    +0.093 A 
ENDBRANCH   2   5
BRANCH   1  21
ATOM     21  C   UNL     1      -1.127   7.569   1.861  0.00  0.00    +0.139 C 
BRANCH  21  24
ATOM     22  C   UNL     1       0.196   4.033   2.029  0.00  0.00    +0.166 A 
ATOM     23  C   UNL     1       0.087   5.407   2.188  0.00  0.00    +0.054 A 
ATOM     24  C   UNL     1      -1.010   6.078   1.681  0.00  0.00    -0.023 A 
ATOM     25  C   UNL     1      -1.999   5.385   1.009  0.00  0.00    +0.054 A 
ATOM     26  C   UNL     1      -1.895   4.012   0.841  0.00  0.00    +0.166 A 
ATOM     27  C   UNL     1      -0.793   3.334   1.349  0.00  0.00    +0.204 A 
BRANCH  22  28
ATOM     28  O   UNL     1       1.274   3.373   2.532  0.00  0.00    -0.488 OA
BRANCH  28  30
ATOM     29  C   UNL     1       3.380   3.247   3.710  0.00  0.00    +0.048 C 
ATOM     30  C   UNL     1       2.252   4.156   3.219  0.00  0.00    +0.226 C 
ENDBRANCH  28  30
ENDBRANCH  22  28
BRANCH  27  31
ATOM     31  O   UNL     1      -0.688   1.987   1.186  0.00  0.00    -0.485 OA
BRANCH  31  32
ATOM     32  C   UNL     1      -0.019   1.526   0.010  0.00  0.00    +0.226 C 
ATOM     33  C   UNL     1       0.002  -0.004   0.002  0.00  0.00    +0.048 C 
ENDBRANCH  31  32
ENDBRANCH  27  31
BRANCH  26  34
ATOM     34  O   UNL     1      -2.868   3.331   0.179  0.00  0.00    -0.488 OA
BRANCH  34  35
ATOM     35  C   UNL     1      -3.971   4.094  -0.316  0.00  0.00    +0.226 C 
ATOM     36  C   UNL     1      -4.957   3.163  -1.026  0.00  0.00    +0.048 C 
ENDBRANCH  34  35
ENDBRANCH  26  34
ENDBRANCH  21  24
ENDBRANCH   1  21
TORSDOF 9
