REMARK  Name = ZINC39997898
REMARK  14 active torsions:
REMARK  status: ('A' for Active; 'I' for Inactive)
REMARK    1  A    between atoms: C_1  and  C_2
REMARK    2  A    between atoms: C_2  and  C_3
REMARK    3  A    between atoms: C_3  and  O_4
REMARK    4  A    between atoms: O_4  and  C_5
REMARK    5  A    between atoms: C_8  and  C_12
REMARK    6  A    between atoms: C_13  and  C_23
REMARK    7  A    between atoms: N_15  and  C_17
REMARK    8  A    between atoms: C_24  and  C_25
REMARK    9  A    between atoms: C_24  and  C_27
REMARK   10  A    between atoms: C_27  and  O_37
REMARK   11  A    between atoms: N_28  and  C_29
REMARK   12  A    between atoms: C_32  and  C_34
REMARK   13  A    between atoms: C_34  and  C_35
REMARK   14  A    between atoms: C_34  and  C_36
REMARK                            x       y       z     vdW  Elec       q    Type
REMARK                         _______ _______ _______ _____ _____    ______ ____
ROOT
ATOM      1  C   UNL     1       2.957  -4.283   6.180  0.00  0.00    +0.100 A 
ATOM      2  C   UNL     1       2.789  -5.726   6.399  0.00  0.00    +0.022 A 
ATOM      3  C   UNL     1       3.763  -6.095   7.314  0.00  0.00    +0.123 A 
ATOM      4  N   UNL     1       4.464  -4.994   7.633  0.00  0.00    -0.239 N 
ATOM      5  N   UNL     1       3.964  -3.895   6.929  0.00  0.00    -0.166 NA
ENDROOT
BRANCH   1   9
ATOM      6  C   UNL     1       0.632  -1.827   3.600  0.00  0.00    +0.156 A 
ATOM      7  C   UNL     1       1.116  -1.313   4.796  0.00  0.00    +0.049 A 
ATOM      8  C   UNL     1       1.870  -2.107   5.635  0.00  0.00    +0.014 A 
ATOM      9  C   UNL     1       2.147  -3.428   5.281  0.00  0.00    +0.006 A 
ATOM     10  C   UNL     1       1.660  -3.942   4.080  0.00  0.00    +0.052 A 
ATOM     11  C   UNL     1       0.901  -3.144   3.247  0.00  0.00    +0.165 A 
ATOM     12  F   UNL     1       0.423  -3.642   2.086  0.00  0.00    -0.202 F 
BRANCH   6  13
ATOM     13  O   UNL     1      -0.110  -1.041   2.776  0.00  0.00    -0.489 OA
BRANCH  13  14
ATOM     14  C   UNL     1      -0.348   0.303   3.201  0.00  0.00    +0.229 C 
BRANCH  14  16
ATOM     15  C   UNL     1      -1.449   2.465   2.607  0.00  0.00    +0.007 C 
ATOM     16  C   UNL     1      -1.195   1.027   2.153  0.00  0.00    +0.038 C 
ENDBRANCH  14  16
ENDBRANCH  13  14
ENDBRANCH   6  13
ENDBRANCH   1   9
BRANCH   4  17
ATOM     17  C   UNL     1       5.538  -4.954   8.532  0.00  0.00    +0.065 A 
ATOM     18  C   UNL     1       5.956  -6.115   9.168  0.00  0.00    +0.028 A 
ATOM     19  C   UNL     1       7.015  -6.073  10.054  0.00  0.00    +0.002 A 
ATOM     20  C   UNL     1       7.659  -4.876  10.307  0.00  0.00    +0.000 A 
ATOM     21  C   UNL     1       7.245  -3.717   9.676  0.00  0.00    +0.002 A 
ATOM     22  C   UNL     1       6.190  -3.754   8.785  0.00  0.00    +0.028 A 
ENDBRANCH   4  17
BRANCH   2  23
ATOM     23  C   UNL     1       1.795  -6.598   5.776  0.00  0.00    +0.035 C 
ATOM     24  C   UNL     1       1.926  -7.969   5.867  0.00  0.00    +0.114 C 
BRANCH  24  25
ATOM     25  C   UNL     1       3.107  -8.539   6.444  0.00  0.00    +0.105 C 
ATOM     26  N   UNL     1       4.043  -8.991   6.901  0.00  0.00    -0.191 NA
ENDBRANCH  24  25
BRANCH  24  27
ATOM     27  C   UNL     1       0.855  -8.844   5.372  0.00  0.00    +0.233 C 
ATOM     28  N   UNL     1       0.980 -10.150   5.458  0.00  0.00    -0.184 NA
BRANCH  28  29
ATOM     29  C   UNL     1       0.041 -10.961   4.904  0.00  0.00    +0.218 A 
ATOM     30  N   UNL     1       0.007 -11.537   3.703  0.00  0.00    -0.121 NA
ATOM     31  N   UNL     1      -0.956 -12.270   3.348  0.00  0.00    -0.144 NA
ATOM     32  C   UNL     1      -1.984 -12.511   4.138  0.00  0.00    +0.106 A 
ATOM     33  S   UNL     1      -1.502 -11.566   5.581  0.00  0.00    -0.031 S 
BRANCH  32  34
ATOM     34  C   UNL     1      -3.214 -13.348   3.897  0.00  0.00    +0.040 C 
ATOM     35  C   UNL     1      -3.979 -12.796   2.693  0.00  0.00    +0.014 C 
ATOM     36  C   UNL     1      -2.800 -14.795   3.619  0.00  0.00    +0.014 C 
ENDBRANCH  32  34
ENDBRANCH  28  29
BRANCH  27  37
ATOM     37  O   UNL     1      -0.260  -8.306   4.827  0.00  0.00    -0.491 OA
ATOM     38  H   UNL     1      -0.882  -8.959   4.481  0.00  0.00    +0.294 HD
ENDBRANCH  27  37
ENDBRANCH  24  27
ENDBRANCH   2  23
TORSDOF 11
