REMARK  Name = ZINC36965064
REMARK  2 active torsions:
REMARK  status: ('A' for Active; 'I' for Inactive)
REMARK    1  A    between atoms: C_9  and  C_11
REMARK    2  A    between atoms: C_11  and  C_12
REMARK                            x       y       z     vdW  Elec       q    Type
REMARK                         _______ _______ _______ _____ _____    ______ ____
ROOT
ATOM      1  C   UNL     1       2.902  -1.179  -1.687  0.00  0.00    +0.080 C 
ENDROOT
BRANCH   1   8
ATOM      2  C   UNL     1      -0.019   1.555   0.011  0.00  0.00    +0.004 C 
ATOM      3  C   UNL     1       1.471   1.966  -0.001  0.00  0.00    +0.004 C 
ATOM      4  C   UNL     1       2.252   0.617  -0.016  0.00  0.00    -0.007 C 
ATOM      5  C   UNL     1       1.296  -0.281   0.846  0.00  0.00    +0.007 C 
ATOM      6  C   UNL     1       0.002  -0.004   0.002  0.00  0.00    -0.010 C 
ATOM      7  C   UNL     1       0.503  -0.380  -1.426  0.00  0.00    +0.007 C 
ATOM      8  C   UNL     1       2.011   0.041  -1.445  0.00  0.00    -0.000 C 
ENDBRANCH   1   8
BRANCH   1   9
ATOM      9  C   UNL     1       2.743  -1.643  -3.111  0.00  0.00    +0.132 A 
ATOM     10  N   UNL     1       3.746  -1.815  -4.025  0.00  0.00    -0.320 N 
ATOM     11  C   UNL     1       3.136  -2.242  -5.169  0.00  0.00    +0.200 A 
ATOM     12  N   UNL     1       1.849  -2.309  -4.916  0.00  0.00    -0.122 NA
ATOM     13  N   UNL     1       1.624  -1.960  -3.700  0.00  0.00    -0.134 NA
ATOM     14  S   UNL     1       3.925  -2.630  -6.695  0.00  0.00    -0.009 SA
ATOM     15  H   UNL     1       4.695  -1.665  -3.888  0.00  0.00    +0.169 HD
ENDBRANCH   1   9
TORSDOF 2
