REMARK  Name = ZINC47057379
REMARK  2 active torsions:
REMARK  status: ('A' for Active; 'I' for Inactive)
REMARK    1  A    between atoms: C_5  and  N_7
REMARK    2  A    between atoms: C_13  and  C_15
REMARK                            x       y       z     vdW  Elec       q    Type
REMARK                         _______ _______ _______ _____ _____    ______ ____
ROOT
ATOM      1  N   UNL     1       2.108  -2.471  -0.366  0.00  0.00    -0.325 N 
ATOM      2  C   UNL     1       2.152  -3.205   0.907  0.00  0.00    +0.124 C 
ATOM      3  C   UNL     1       0.789  -3.869   1.137  0.00  0.00    +0.127 C 
ATOM      4  N   UNL     1       0.407  -4.591  -0.084  0.00  0.00    -0.295 N 
ATOM      5  C   UNL     1       0.362  -3.858  -1.356  0.00  0.00    +0.127 C 
ATOM      6  C   UNL     1       1.720  -3.192  -1.586  0.00  0.00    +0.124 C 
ATOM      7  C   UNL     1       0.102  -5.904  -0.037  0.00  0.00    +0.247 C 
ATOM      8  O   UNL     1      -0.279  -6.474  -1.040  0.00  0.00    -0.270 OA
ENDROOT
BRANCH   7   9
ATOM      9  C   UNL     1       0.232  -6.650   1.236  0.00  0.00    +0.039 A 
ATOM     10  C   UNL     1      -0.375  -6.152   2.399  0.00  0.00    +0.014 A 
ATOM     11  C   UNL     1      -0.270  -6.819   3.581  0.00  0.00    +0.016 A 
ATOM     12  C   UNL     1       0.453  -8.019   3.644  0.00  0.00    +0.065 A 
ATOM     13  C   UNL     1       1.072  -8.534   2.475  0.00  0.00    +0.080 A 
ATOM     14  C   UNL     1       0.948  -7.835   1.266  0.00  0.00    +0.041 A 
ATOM     15  N   UNL     1       1.759  -9.683   2.552  0.00  0.00    -0.223 NA
ATOM     16  C   UNL     1       1.863 -10.334   3.701  0.00  0.00    +0.180 A 
ATOM     17  N   UNL     1       1.295  -9.889   4.834  0.00  0.00    -0.301 N 
ATOM     18  H   UNL     1       1.397 -10.399   5.653  0.00  0.00    +0.171 HD
ATOM     19  C   UNL     1       0.585  -8.740   4.849  0.00  0.00    +0.260 A 
ATOM     20  O   UNL     1       0.017  -8.296   5.984  0.00  0.00    -0.267 OA
ATOM     21  S   UNL     1       2.752 -11.797   3.743  0.00  0.00    -0.011 S 
ENDBRANCH   7   9
BRANCH   1  26
ATOM     22  C   UNL     1       1.745   1.187  -0.282  0.00  0.00    +0.002 A 
ATOM     23  C   UNL     1       3.049   1.586  -0.509  0.00  0.00    +0.003 A 
ATOM     24  C   UNL     1       4.043   0.641  -0.689  0.00  0.00    +0.040 A 
ATOM     25  C   UNL     1       3.735  -0.706  -0.642  0.00  0.00    +0.144 A 
ATOM     26  C   UNL     1       2.424  -1.110  -0.414  0.00  0.00    +0.065 A 
ATOM     27  C   UNL     1       1.430  -0.158  -0.234  0.00  0.00    +0.026 A 
ATOM     28  F   UNL     1       4.707  -1.629  -0.818  0.00  0.00    -0.204 F 
ENDBRANCH   1  26
TORSDOF 2
