REMARK  Name = ZINC04133978
REMARK  4 active torsions:
REMARK  status: ('A' for Active; 'I' for Inactive)
REMARK    1  A    between atoms: C_6  and  N_7
REMARK    2  A    between atoms: C_8  and  C_10
REMARK    3  A    between atoms: C_10  and  S_11
REMARK    4  A    between atoms: S_11  and  C_12
REMARK                            x       y       z     vdW  Elec       q    Type
REMARK                         _______ _______ _______ _____ _____    ______ ____
ROOT
ATOM      1  C   UNL     1      -0.463   3.529   0.011  0.00  0.00    +0.169 A 
ATOM      2  N   UNL     1       0.902   3.421   0.002  0.00  0.00    -0.318 N 
ATOM      3  H   UNL     1       1.556   4.178   0.006  0.00  0.00    +0.169 HD
ATOM      4  C   UNL     1       1.210   2.080  -0.014  0.00  0.00    +0.167 A 
ATOM      5  C   UNL     1      -0.018   1.397  -0.019  0.00  0.00    +0.173 A 
ATOM      6  N   UNL     1      -1.001   2.335  -0.004  0.00  0.00    -0.215 NA
ATOM      7  C   UNL     1       0.001  -0.004  -0.026  0.00  0.00    +0.280 A 
ATOM      8  N   UNL     1       1.174  -0.625  -0.035  0.00  0.00    -0.293 N 
ATOM      9  C   UNL     1       2.312   0.058  -0.035  0.00  0.00    +0.195 A 
ATOM     10  N   UNL     1       2.339   1.381  -0.025  0.00  0.00    -0.197 NA
ATOM     11  N   UNL     1       3.511  -0.637  -0.045  0.00  0.00    -0.329 N 
ATOM     12  O   UNL     1      -1.155  -0.712  -0.026  0.00  0.00    -0.265 OA
ATOM     13  H   UNL     1       3.566  -1.218   0.767  0.00  0.00    +0.145 HD
ATOM     14  H   UNL     1       4.352  -0.153  -0.044  0.00  0.00    +0.145 HD
ATOM     15  H   UNL     1       1.202  -1.624  -0.043  0.00  0.00    +0.172 HD
ENDROOT
BRANCH   1  16
ATOM     16  S   UNL     1      -1.360   5.045   0.038  0.00  0.00    -0.078 S 
BRANCH  16  17
ATOM     17  C   UNL     1      -3.054   4.408   0.046  0.00  0.00    +0.173 C 
BRANCH  17  19
ATOM     18  N   UNL     1      -5.351   5.324   0.078  0.00  0.00    -0.285 N 
ATOM     19  C   UNL     1      -4.024   5.561   0.069  0.00  0.00    +0.227 C 
ATOM     20  O   UNL     1      -3.611   6.701   0.079  0.00  0.00    -0.275 OA
ATOM     21  H   UNL     1      -5.683   4.416   0.002  0.00  0.00    +0.155 HD
BRANCH  18  27
ATOM     22  C   UNL     1      -7.438   6.223   0.899  0.00  0.00    +0.024 A 
ATOM     23  C   UNL     1      -8.320   7.279   1.021  0.00  0.00    +0.017 A 
ATOM     24  C   UNL     1      -8.029   8.497   0.433  0.00  0.00    +0.018 A 
ATOM     25  C   UNL     1      -6.850   8.664  -0.272  0.00  0.00    +0.017 A 
ATOM     26  C   UNL     1      -5.961   7.614  -0.391  0.00  0.00    +0.024 A 
ATOM     27  C   UNL     1      -6.251   6.390   0.197  0.00  0.00    +0.033 A 
ATOM     28 BR   UNL     1      -9.244   9.937   0.595  0.00  0.00    -0.050 Br
ENDBRANCH  18  27
ENDBRANCH  17  19
ENDBRANCH  16  17
ENDBRANCH   1  16
TORSDOF 4
