REMARK  Name = ZINC12122246
REMARK  11 active torsions:
REMARK  status: ('A' for Active; 'I' for Inactive)
REMARK    1  A    between atoms: C_1  and  C_2
REMARK    2  A    between atoms: C_5  and  C_7
REMARK    3  A    between atoms: C_14  and  C_16
REMARK    4  A    between atoms: C_16  and  C_17
REMARK    5  A    between atoms: C_17  and  O_18
REMARK    6  A    between atoms: O_18  and  C_19
REMARK    7  A    between atoms: C_23  and  C_25
REMARK    8  A    between atoms: C_25  and  N_72
REMARK    9  A    between atoms: C_26  and  N_72
REMARK   10  A    between atoms: C_27  and  C_28
REMARK   11  A    between atoms: C_27  and  N_72
REMARK                            x       y       z     vdW  Elec       q    Type
REMARK                         _______ _______ _______ _____ _____    ______ ____
ROOT
ATOM      1  C   UNL     1       5.482   6.236   4.737  0.00  0.00    +0.121 A 
ATOM      2  C   UNL     1       4.269   6.765   5.153  0.00  0.00    +0.045 A 
ATOM      3  C   UNL     1       3.394   7.296   4.226  0.00  0.00    +0.004 A 
ATOM      4  C   UNL     1       3.728   7.305   2.884  0.00  0.00    +0.002 A 
ATOM      5  C   UNL     1       4.934   6.773   2.466  0.00  0.00    -0.060 A 
ATOM      6  C   UNL     1       5.813   6.241   3.390  0.00  0.00    +0.047 A 
ENDROOT
BRANCH   1   7
ATOM      7  O   UNL     1       6.345   5.713   5.648  0.00  0.00    -0.492 OA
BRANCH   7   8
ATOM      8  C   UNL     1       5.939   5.741   7.017  0.00  0.00    +0.231 C 
BRANCH   8   9
ATOM      9  C   UNL     1       7.031   5.114   7.886  0.00  0.00    +0.063 C 
BRANCH   9  17
ATOM     10  C   UNL     1       8.813   4.142   9.648  0.00  0.00    +0.253 C 
ATOM     11  O   UNL     1       9.029   4.303   8.461  0.00  0.00    -0.269 OA
ATOM     12  N   UNL     1       7.680   4.621  10.198  0.00  0.00    -0.294 N 
ATOM     13  C   UNL     1       7.447   4.514  11.644  0.00  0.00    +0.108 C 
ATOM     14  C   UNL     1       6.093   3.835  11.877  0.00  0.00    +0.019 C 
ATOM     15  C   UNL     1       5.006   4.601  11.120  0.00  0.00    +0.003 C 
ATOM     16  C   UNL     1       5.308   4.576   9.619  0.00  0.00    +0.023 C 
ATOM     17  C   UNL     1       6.654   5.260   9.362  0.00  0.00    +0.080 C 
BRANCH  10  22
ATOM     18  C   UNL     1      12.278   2.135  13.548  0.00  0.00    +0.051 C 
ATOM     19  C   UNL     1      11.438   2.473  12.343  0.00  0.00    -0.013 A 
ATOM     20  C   UNL     1      11.392   1.839  11.142  0.00  0.00    +0.011 A 
ATOM     21  C   UNL     1      10.544   2.308  10.169  0.00  0.00    +0.021 A 
ATOM     22  C   UNL     1       9.786   3.427  10.479  0.00  0.00    +0.074 A 
ATOM     23  S   UNL     1      10.297   3.764  12.154  0.00  0.00    -0.089 S 
ENDBRANCH  10  22
ENDBRANCH   9  17
ENDBRANCH   8   9
ENDBRANCH   7   8
ENDBRANCH   1   7
BRANCH   5  24
ATOM     24  C   UNL     1       5.293   6.780   1.003  0.00  0.00    -0.043 C 
BRANCH  24  26
ATOM     25  C   UNL     1       5.534   4.372   0.906  0.00  0.00    -0.095 C 
ATOM     26  N   UNL     1       4.789   5.537   0.382  0.00  0.00    +0.383 N 
ATOM     27  H   UNL     1       3.794   5.428   0.614  0.00  0.00    -0.081 HD
BRANCH  26  28
ATOM     28  C   UNL     1       4.934   5.610  -1.087  0.00  0.00    -0.041 C 
BRANCH  28  29
ATOM     29  C   UNL     1       4.217   4.438  -1.705  0.00  0.00    -0.038 A 
ATOM     30  C   UNL     1       4.921   3.350  -2.123  0.00  0.00    +0.004 A 
ATOM     31  C   UNL     1       4.279   2.255  -2.698  0.00  0.00    +0.001 A 
ATOM     32  C   UNL     1       2.927   2.246  -2.863  0.00  0.00    +0.010 A 
ATOM     33  C   UNL     1       2.169   3.349  -2.438  0.00  0.00    +0.001 A 
ATOM     34  C   UNL     1       2.820   4.463  -1.853  0.00  0.00    +0.072 A 
ATOM     35  N   UNL     1       2.103   5.517  -1.452  0.00  0.00    -0.255 NA
ATOM     36  C   UNL     1       0.799   5.546  -1.588  0.00  0.00    +0.111 A 
ATOM     37  C   UNL     1       0.097   4.485  -2.154  0.00  0.00    +0.020 A 
ATOM     38  C   UNL     1       0.769   3.376  -2.586  0.00  0.00    +0.011 A 
ENDBRANCH  28  29
ENDBRANCH  26  28
ENDBRANCH  24  26
ENDBRANCH   5  24
TORSDOF 9
