REMARK  Name = ZINC39012071
REMARK  10 active torsions:
REMARK  status: ('A' for Active; 'I' for Inactive)
REMARK    1  A    between atoms: C_1  and  O_2
REMARK    2  A    between atoms: O_2  and  C_3
REMARK    3  A    between atoms: C_6  and  N_9
REMARK    4  A    between atoms: N_9  and  C_10
REMARK    5  A    between atoms: N_9  and  S_25
REMARK    6  A    between atoms: C_10  and  C_11
REMARK    7  A    between atoms: C_16  and  O_23
REMARK    8  A    between atoms: O_23  and  C_24
REMARK    9  A    between atoms: S_25  and  C_28
REMARK   10  A    between atoms: C_31  and  N_34
REMARK                            x       y       z     vdW  Elec       q    Type
REMARK                         _______ _______ _______ _____ _____    ______ ____
ROOT
ATOM      1  N   UNL     1       2.542  -2.725   4.349  0.00  0.00    -0.202 N 
ENDROOT
BRANCH   1   5
ATOM      2  C   UNL     1       0.643  -0.761   1.201  0.00  0.00    +0.120 A 
ATOM      3  C   UNL     1       0.623  -0.211   2.474  0.00  0.00    +0.047 A 
ATOM      4  C   UNL     1       1.252  -0.861   3.518  0.00  0.00    +0.028 A 
ATOM      5  C   UNL     1       1.904  -2.066   3.292  0.00  0.00    +0.052 A 
ATOM      6  C   UNL     1       1.923  -2.616   2.017  0.00  0.00    +0.028 A 
ATOM      7  C   UNL     1       1.289  -1.967   0.976  0.00  0.00    +0.047 A 
BRANCH   2   9
ATOM      8  C   UNL     1      -0.623   1.118   0.478  0.00  0.00    +0.277 C 
ATOM      9  O   UNL     1       0.023  -0.120   0.174  0.00  0.00    -0.495 OA
ENDBRANCH   2   9
ENDBRANCH   1   5
BRANCH   1  10
ATOM     10  S   UNL     1       3.749  -1.965   5.191  0.00  0.00    +0.075 S 
ATOM     11  O   UNL     1       4.591  -2.988   5.705  0.00  0.00    -0.150 OA
ATOM     12  O   UNL     1       4.236  -0.926   4.354  0.00  0.00    -0.150 OA
BRANCH  10  13
ATOM     13  C   UNL     1       3.001  -1.183   6.581  0.00  0.00    +0.109 A 
ATOM     14  C   UNL     1       2.492   0.097   6.463  0.00  0.00    +0.031 A 
ATOM     15  C   UNL     1       1.905   0.711   7.554  0.00  0.00    +0.034 A 
ATOM     16  C   UNL     1       1.826   0.045   8.762  0.00  0.00    +0.126 A 
ATOM     17  C   UNL     1       2.334  -1.235   8.880  0.00  0.00    +0.034 A 
ATOM     18  C   UNL     1       2.917  -1.851   7.789  0.00  0.00    +0.031 A 
BRANCH  16  19
ATOM     19  N   UNL     1       1.198   0.703   9.930  0.00  0.00    +0.056 N 
ATOM     20  O   UNL     1       0.755   1.823   9.827  0.00  0.00    -0.126 OA
ATOM     21  O   UNL     1       1.129   0.120  10.987  0.00  0.00    -0.126 OA
ENDBRANCH  16  19
ENDBRANCH  10  13
ENDBRANCH   1  10
BRANCH   1  22
ATOM     22  C   UNL     1       2.143  -4.088   4.710  0.00  0.00    +0.148 C 
BRANCH  22  23
ATOM     23  C   UNL     1       0.657  -4.104   5.074  0.00  0.00    +0.118 C 
ATOM     24  C   UNL     1       0.232  -5.551   5.230  0.00  0.00    -0.003 C 
ATOM     25  C   UNL     1      -0.297  -5.921   6.431  0.00  0.00    -0.004 A 
ATOM     26  C   UNL     1      -0.733  -7.298   6.666  0.00  0.00    +0.055 A 
ATOM     27  C   UNL     1      -1.256  -7.622   7.881  0.00  0.00    +0.121 A 
ATOM     28  C   UNL     1      -1.381  -6.667   8.897  0.00  0.00    +0.047 A 
ATOM     29  C   UNL     1      -0.994  -5.375   8.738  0.00  0.00    +0.027 A 
ATOM     30  C   UNL     1      -0.441  -4.939   7.519  0.00  0.00    +0.041 A 
ATOM     31  N   UNL     1      -0.065  -3.667   7.378  0.00  0.00    -0.284 N 
ATOM     32  C   UNL     1       0.460  -3.190   6.262  0.00  0.00    +0.226 C 
ATOM     33  O   UNL     1       0.784  -2.020   6.193  0.00  0.00    -0.275 OA
ATOM     34  H   UNL     1      -0.183  -3.064   8.128  0.00  0.00    +0.155 HD
BRANCH  27  35
ATOM     35  O   UNL     1      -1.664  -8.898   8.111  0.00  0.00    -0.495 OA
ATOM     36  C   UNL     1      -2.205  -9.183   9.403  0.00  0.00    +0.277 C 
ENDBRANCH  27  35
ENDBRANCH  22  23
ENDBRANCH   1  22
TORSDOF 8
