REMARK  Name = ZINC02542651
REMARK  8 active torsions:
REMARK  status: ('A' for Active; 'I' for Inactive)
REMARK    1  A    between atoms: C_1  and  C_2
REMARK    2  A    between atoms: C_5  and  C_8
REMARK    3  A    between atoms: C_8  and  O_10
REMARK    4  A    between atoms: O_10  and  C_11
REMARK    5  A    between atoms: C_20  and  C_21
REMARK    6  A    between atoms: N_22  and  N_23
REMARK    7  A    between atoms: C_24  and  C_26
REMARK    8  A    between atoms: N_28  and  C_29
REMARK                            x       y       z     vdW  Elec       q    Type
REMARK                         _______ _______ _______ _____ _____    ______ ____
ROOT
ATOM      1  C   UNL     1       1.795   6.068   0.005  0.00  0.00    +0.141 A 
ATOM      2  C   UNL     1       3.049   5.531  -0.282  0.00  0.00    +0.047 A 
ATOM      3  C   UNL     1       3.250   4.189  -0.373  0.00  0.00    +0.012 A 
ATOM      4  C   UNL     1       2.188   3.288  -0.178  0.00  0.00    -0.017 A 
ATOM      5  C   UNL     1       2.385   1.899  -0.269  0.00  0.00    +0.008 A 
ATOM      6  C   UNL     1       1.334   1.056  -0.074  0.00  0.00    +0.001 A 
ATOM      7  C   UNL     1       0.062   1.548   0.210  0.00  0.00    +0.001 A 
ATOM      8  C   UNL     1      -0.162   2.889   0.312  0.00  0.00    +0.009 A 
ATOM      9  C   UNL     1       0.895   3.785   0.117  0.00  0.00    -0.006 A 
ATOM     10  C   UNL     1       0.698   5.230   0.210  0.00  0.00    +0.045 A 
ENDROOT
BRANCH  10  11
ATOM     11  C   UNL     1      -0.626   5.789   0.514  0.00  0.00    +0.142 C 
ATOM     12  N   UNL     1      -0.766   7.070   0.694  0.00  0.00    -0.187 NA
BRANCH  12  13
ATOM     13  N   UNL     1      -2.004   7.590   1.094  0.00  0.00    -0.199 N 
ATOM     14  C   UNL     1      -2.180   8.923   1.176  0.00  0.00    +0.318 C 
ATOM     15  O   UNL     1      -1.242   9.672   0.991  0.00  0.00    -0.263 OA
ATOM     16  H   UNL     1      -2.734   6.990   1.313  0.00  0.00    +0.178 HD
BRANCH  14  17
ATOM     17  C   UNL     1      -3.526   9.479   1.493  0.00  0.00    +0.305 C 
ATOM     18  O   UNL     1      -4.464   8.730   1.678  0.00  0.00    -0.265 OA
ATOM     19  N   UNL     1      -3.703  10.813   1.574  0.00  0.00    -0.278 N 
ATOM     20  H   UNL     1      -2.973  11.413   1.353  0.00  0.00    +0.155 HD
BRANCH  19  21
ATOM     21  C   UNL     1      -4.937  11.332   1.977  0.00  0.00    +0.034 A 
ATOM     22  C   UNL     1      -5.399  12.526   1.438  0.00  0.00    +0.026 A 
ATOM     23  C   UNL     1      -6.620  13.034   1.834  0.00  0.00    +0.040 A 
ATOM     24  C   UNL     1      -7.380  12.359   2.775  0.00  0.00    +0.124 A 
ATOM     25  C   UNL     1      -6.920  11.171   3.317  0.00  0.00    +0.040 A 
ATOM     26  C   UNL     1      -5.701  10.656   2.920  0.00  0.00    +0.026 A 
ATOM     27  F   UNL     1      -8.573  12.860   3.164  0.00  0.00    -0.205 F 
ENDBRANCH  19  21
ENDBRANCH  14  17
ENDBRANCH  12  13
ENDBRANCH  10  11
BRANCH   1  28
ATOM     28  O   UNL     1       1.641   7.414   0.086  0.00  0.00    -0.422 OA
BRANCH  28  29
ATOM     29  C   UNL     1       1.798   7.976   1.300  0.00  0.00    +0.344 C 
ATOM     30  O   UNL     1       1.964   7.274   2.277  0.00  0.00    -0.245 OA
BRANCH  29  35
ATOM     31  C   UNL     1       1.688  13.702   1.856  0.00  0.00    +0.044 C 
ATOM     32  C   UNL     1       1.716  12.202   1.711  0.00  0.00    -0.050 A 
ATOM     33  C   UNL     1       1.911  11.405   2.825  0.00  0.00    +0.004 A 
ATOM     34  C   UNL     1       1.938  10.032   2.699  0.00  0.00    +0.015 A 
ATOM     35  C   UNL     1       1.769   9.446   1.443  0.00  0.00    +0.059 A 
ATOM     36  C   UNL     1       1.579  10.256   0.322  0.00  0.00    +0.015 A 
ATOM     37  C   UNL     1       1.548  11.628   0.463  0.00  0.00    +0.004 A 
ENDBRANCH  29  35
ENDBRANCH  28  29
ENDBRANCH   1  28
TORSDOF 7
