REMARK  Name = ZINC49550005
REMARK  5 active torsions:
REMARK  status: ('A' for Active; 'I' for Inactive)
REMARK    1  A    between atoms: C_6  and  C_7
REMARK    2  A    between atoms: C_7  and  N_8
REMARK    3  A    between atoms: C_13  and  C_19
REMARK    4  A    between atoms: C_16  and  O_18
REMARK    5  A    between atoms: C_22  and  O_25
REMARK                            x       y       z     vdW  Elec       q    Type
REMARK                         _______ _______ _______ _____ _____    ______ ____
ROOT
ATOM      1  N   UNL     1      -1.726  -1.017  -1.368  0.00  0.00    -0.242 N 
ATOM      2  C   UNL     1      -2.515  -0.210  -2.108  0.00  0.00    +0.159 A 
ATOM      3  C   UNL     1      -2.677  -0.819  -3.346  0.00  0.00    +0.024 A 
ATOM      4  C   UNL     1      -1.966  -2.004  -3.332  0.00  0.00    +0.140 A 
ATOM      5  N   UNL     1      -1.391  -2.129  -2.158  0.00  0.00    -0.177 NA
ATOM      6  C   UNL     1      -3.517  -0.191  -4.429  0.00  0.00    +0.063 C 
ATOM      7  C   UNL     1      -4.605   0.648  -3.749  0.00  0.00    +0.108 C 
ATOM      8  C   UNL     1      -4.061   1.419  -2.584  0.00  0.00    +0.190 C 
ATOM      9  N   UNL     1      -3.097   0.991  -1.823  0.00  0.00    -0.198 NA
ENDROOT
BRANCH   6  10
ATOM     10  C   UNL     1      -2.656   0.692  -5.295  0.00  0.00    -0.039 A 
ATOM     11  C   UNL     1      -1.980   1.760  -4.735  0.00  0.00    +0.008 A 
ATOM     12  C   UNL     1      -1.190   2.572  -5.527  0.00  0.00    +0.045 A 
ATOM     13  C   UNL     1      -1.076   2.314  -6.885  0.00  0.00    +0.117 A 
ATOM     14  C   UNL     1      -1.754   1.241  -7.445  0.00  0.00    +0.045 A 
ATOM     15  C   UNL     1      -2.538   0.429  -6.648  0.00  0.00    +0.008 A 
BRANCH  13  16
ATOM     16  O   UNL     1      -0.300   3.111  -7.666  0.00  0.00    -0.507 OA
ATOM     17  H   UNL     1       0.620   2.820  -7.734  0.00  0.00    +0.292 HD
ENDBRANCH  13  16
ENDBRANCH   6  10
BRANCH   8  18
ATOM     18  O   UNL     1      -4.601   2.624  -2.310  0.00  0.00    -0.495 OA
ATOM     19  H   UNL     1      -4.206   3.068  -1.547  0.00  0.00    +0.293 HD
ENDBRANCH   8  18
BRANCH   1  20
ATOM     20  C   UNL     1      -1.293  -0.775   0.011  0.00  0.00    +0.181 C 
BRANCH  20  26
ATOM     21  C   UNL     1      -0.017   1.378   0.010  0.00  0.00    +0.007 A 
ATOM     22  C   UNL     1       1.171   2.086   0.002  0.00  0.00    +0.020 A 
ATOM     23  C   UNL     1       2.378   1.410  -0.013  0.00  0.00    +0.041 A 
ATOM     24  C   UNL     1       2.396   0.027  -0.021  0.00  0.00    +0.020 A 
ATOM     25  C   UNL     1       1.208  -0.679  -0.013  0.00  0.00    +0.007 A 
ATOM     26  C   UNL     1       0.002  -0.004   0.002  0.00  0.00    -0.026 A 
ATOM     27 CL   UNL     1       3.870   2.298  -0.023  0.00  0.00    -0.084 Cl
ENDBRANCH  20  26
ENDBRANCH   1  20
TORSDOF 5
