REMARK  Name = ZINC59016856
REMARK  9 active torsions:
REMARK  status: ('A' for Active; 'I' for Inactive)
REMARK    1  A    between atoms: C_1  and  O_2
REMARK    2  A    between atoms: O_2  and  C_3
REMARK    3  A    between atoms: C_7  and  C_10
REMARK    4  A    between atoms: C_8  and  O_9
REMARK    5  A    between atoms: N_11  and  N_12
REMARK    6  A    between atoms: C_15  and  S_18
REMARK    7  A    between atoms: S_18  and  C_19
REMARK    8  A    between atoms: C_19  and  C_20
REMARK    9  A    between atoms: N_22  and  C_23
REMARK                            x       y       z     vdW  Elec       q    Type
REMARK                         _______ _______ _______ _____ _____    ______ ____
ROOT
ATOM      1  N   UNL     1       3.965  -9.395  -0.082  0.00  0.00    -0.205 N 
ATOM      2  C   UNL     1       2.809  -9.595   0.650  0.00  0.00    +0.232 A 
ATOM      3  N   UNL     1       2.663  -9.376   1.940  0.00  0.00    -0.186 NA
ATOM      4  C   UNL     1       1.413  -9.678   2.308  0.00  0.00    +0.211 A 
ATOM      5  N   UNL     1       0.748 -10.094   1.257  0.00  0.00    -0.144 NA
ATOM      6  N   UNL     1       1.631 -10.044   0.167  0.00  0.00    -0.245 N 
ATOM      7  H   UNL     1       3.974  -9.581  -1.034  0.00  0.00    +0.177 HD
ATOM      8  H   UNL     1       1.435 -10.285  -0.752  0.00  0.00    +0.192 HD
ENDROOT
BRANCH   1  10
ATOM      9  C   UNL     1       6.207  -8.734  -0.137  0.00  0.00    +0.142 C 
ATOM     10  N   UNL     1       5.122  -8.922   0.550  0.00  0.00    -0.187 NA
BRANCH   9  15
ATOM     11  C   UNL     1       8.568  -7.497   2.519  0.00  0.00    +0.162 A 
ATOM     12  C   UNL     1       9.721  -7.300   1.776  0.00  0.00    +0.049 A 
ATOM     13  C   UNL     1       9.732  -7.568   0.418  0.00  0.00    +0.004 A 
ATOM     14  C   UNL     1       8.595  -8.034  -0.208  0.00  0.00    +0.013 A 
ATOM     15  C   UNL     1       7.425  -8.237   0.528  0.00  0.00    +0.040 A 
ATOM     16  C   UNL     1       7.416  -7.971   1.903  0.00  0.00    +0.167 A 
BRANCH  11  18
ATOM     17  C   UNL     1       9.783  -6.747   4.421  0.00  0.00    +0.277 C 
ATOM     18  O   UNL     1       8.565  -7.232   3.853  0.00  0.00    -0.491 OA
ENDBRANCH  11  18
BRANCH  16  19
ATOM     19  O   UNL     1       6.285  -8.171   2.630  0.00  0.00    -0.503 OA
ATOM     20  H   UNL     1       5.705  -7.399   2.675  0.00  0.00    +0.292 HD
ENDBRANCH  16  19
ENDBRANCH   9  15
ENDBRANCH   1  10
BRANCH   4  21
ATOM     21  S   UNL     1       0.766  -9.540   3.941  0.00  0.00    -0.075 S 
BRANCH  21  22
ATOM     22  C   UNL     1      -0.954 -10.093   3.779  0.00  0.00    +0.173 C 
BRANCH  22  23
ATOM     23  C   UNL     1      -1.633 -10.024   5.123  0.00  0.00    +0.228 C 
ATOM     24  O   UNL     1      -1.016  -9.640   6.095  0.00  0.00    -0.275 OA
ATOM     25  N   UNL     1      -2.924 -10.389   5.246  0.00  0.00    -0.280 N 
ATOM     26  H   UNL     1      -3.438 -10.626   4.458  0.00  0.00    +0.155 HD
BRANCH  25  27
ATOM     27  C   UNL     1      -3.525 -10.427   6.511  0.00  0.00    +0.105 A 
ATOM     28  C   UNL     1      -3.469 -11.586   7.276  0.00  0.00    +0.147 A 
ATOM     29  C   UNL     1      -4.063 -11.619   8.524  0.00  0.00    +0.040 A 
ATOM     30  C   UNL     1      -4.712 -10.500   9.013  0.00  0.00    +0.006 A 
ATOM     31  C   UNL     1      -4.771  -9.345   8.255  0.00  0.00    +0.040 A 
ATOM     32  C   UNL     1      -4.174  -9.302   7.008  0.00  0.00    +0.147 A 
ATOM     33  F   UNL     1      -4.227  -8.171   6.271  0.00  0.00    -0.203 F 
ATOM     34  F   UNL     1      -2.834 -12.680   6.799  0.00  0.00    -0.203 F 
ENDBRANCH  25  27
ENDBRANCH  22  23
ENDBRANCH  21  22
ENDBRANCH   4  21
TORSDOF 8
