REMARK  Name = ZINC36557956
REMARK  8 active torsions:
REMARK  status: ('A' for Active; 'I' for Inactive)
REMARK    1  A    between atoms: C_1  and  C_2
REMARK    2  A    between atoms: C_2  and  N_3
REMARK    3  A    between atoms: N_3  and  C_4
REMARK    4  A    between atoms: N_3  and  S_10
REMARK    5  A    between atoms: S_10  and  C_13
REMARK    6  A    between atoms: C_26  and  C_29
REMARK    7  A    between atoms: C_38  and  O_39
REMARK    8  A    between atoms: O_39  and  C_40
REMARK                            x       y       z     vdW  Elec       q    Type
REMARK                         _______ _______ _______ _____ _____    ______ ____
ROOT
ATOM      1  C   UNL     1       3.406  -0.281   2.821  0.00  0.00    +0.109 A 
ATOM      2  C   UNL     1       3.786   0.659   1.881  0.00  0.00    +0.030 A 
ATOM      3  C   UNL     1       4.441   1.807   2.274  0.00  0.00    +0.025 A 
ATOM      4  C   UNL     1       4.721   2.031   3.617  0.00  0.00    +0.031 A 
ATOM      5  C   UNL     1       4.322   1.081   4.565  0.00  0.00    -0.018 A 
ATOM      6  C   UNL     1       3.671  -0.065   4.161  0.00  0.00    +0.034 A 
ATOM      7  C   UNL     1       4.604   1.375   5.986  0.00  0.00    +0.049 C 
ATOM      8  C   UNL     1       4.787   0.296   6.990  0.00  0.00    -0.023 C 
ATOM      9  C   UNL     1       5.638   0.719   7.918  0.00  0.00    -0.030 C 
ATOM     10  C   UNL     1       6.122   2.130   7.579  0.00  0.00    +0.033 C 
ATOM     11  C   UNL     1       5.964   2.134   6.056  0.00  0.00    +0.029 C 
ATOM     12  C   UNL     1       5.709   3.483   5.409  0.00  0.00    +0.109 C 
ATOM     13  N   UNL     1       5.406   3.193   3.990  0.00  0.00    -0.336 N 
ATOM     14  H   UNL     1       5.687   3.821   3.306  0.00  0.00    +0.147 HD
ENDROOT
BRANCH  12  15
ATOM     15  C   UNL     1       4.535   4.162   6.066  0.00  0.00    +0.022 A 
ATOM     16  C   UNL     1       4.735   5.003   7.174  0.00  0.00    -0.009 A 
ATOM     17  C   UNL     1       6.021   5.230   7.693  0.00  0.00    +0.009 A 
ATOM     18  C   UNL     1       6.178   6.051   8.767  0.00  0.00    +0.001 A 
ATOM     19  C   UNL     1       5.081   6.671   9.363  0.00  0.00    +0.001 A 
ATOM     20  C   UNL     1       3.821   6.474   8.888  0.00  0.00    +0.008 A 
ATOM     21  C   UNL     1       3.620   5.633   7.779  0.00  0.00    -0.017 A 
ATOM     22  C   UNL     1       2.332   5.407   7.261  0.00  0.00    +0.012 A 
ATOM     23  C   UNL     1       2.172   4.588   6.188  0.00  0.00    +0.046 A 
ATOM     24  C   UNL     1       3.272   3.969   5.585  0.00  0.00    +0.126 A 
BRANCH  24  25
ATOM     25  O   UNL     1       3.080   3.160   4.510  0.00  0.00    -0.495 OA
ATOM     26  C   UNL     1       1.736   2.996   4.053  0.00  0.00    +0.277 C 
ENDBRANCH  24  25
ENDBRANCH  12  15
BRANCH   1  27
ATOM     27  S   UNL     1       2.578  -1.751   2.314  0.00  0.00    +0.075 S 
ATOM     28  O   UNL     1       2.676  -2.667   3.396  0.00  0.00    -0.150 OA
ATOM     29  O   UNL     1       3.056  -2.058   1.011  0.00  0.00    -0.150 OA
BRANCH  27  30
ATOM     30  N   UNL     1       0.973  -1.378   2.153  0.00  0.00    -0.203 N 
BRANCH  30  31
ATOM     31  C   UNL     1       0.121  -1.470   3.256  0.00  0.00    +0.051 A 
ATOM     32  C   UNL     1       0.626  -1.317   4.541  0.00  0.00    +0.025 A 
ATOM     33  C   UNL     1      -0.219  -1.407   5.629  0.00  0.00    +0.002 A 
ATOM     34  C   UNL     1      -1.567  -1.650   5.441  0.00  0.00    +0.000 A 
ATOM     35  C   UNL     1      -2.074  -1.803   4.164  0.00  0.00    +0.002 A 
ATOM     36  C   UNL     1      -1.235  -1.708   3.071  0.00  0.00    +0.025 A 
ENDBRANCH  30  31
BRANCH  30  38
ATOM     37  C   UNL     1       0.432   0.576   0.785  0.00  0.00    +0.026 C 
ATOM     38  C   UNL     1       0.446  -0.953   0.854  0.00  0.00    +0.128 C 
ENDBRANCH  30  38
ENDBRANCH  27  30
ENDBRANCH   1  27
TORSDOF 6
