REMARK  Name = ZINC63374920
REMARK  8 active torsions:
REMARK  status: ('A' for Active; 'I' for Inactive)
REMARK    1  A    between atoms: C_1  and  C_2
REMARK    2  A    between atoms: C_2  and  C_4
REMARK    3  A    between atoms: C_2  and  C_35
REMARK    4  A    between atoms: C_4  and  N_5
REMARK    5  A    between atoms: C_11  and  C_27
REMARK    6  A    between atoms: C_23  and  C_26
REMARK    7  A    between atoms: C_32  and  O_33
REMARK    8  A    between atoms: O_33  and  C_34
REMARK                            x       y       z     vdW  Elec       q    Type
REMARK                         _______ _______ _______ _____ _____    ______ ____
ROOT
ATOM      1  N   UNL     1       2.148  -0.104   1.172  0.00  0.00    -0.290 N 
ATOM      2  C   UNL     1       3.090  -0.997   0.519  0.00  0.00    +0.203 C 
ATOM      3  C   UNL     1       4.483  -0.462   0.544  0.00  0.00    +0.234 C 
ATOM      4  O   UNL     1       5.352  -1.133   0.028  0.00  0.00    -0.274 OA
ATOM      5  N   UNL     1       4.845   0.703   1.093  0.00  0.00    -0.283 N 
ATOM      6  C   UNL     1       6.274   1.069   1.066  0.00  0.00    +0.121 C 
ATOM      7  C   UNL     1       6.443   2.407   0.325  0.00  0.00    +0.068 C 
ATOM      8  C   UNL     1       5.394   3.341   0.874  0.00  0.00    -0.027 C 
ATOM      9  C   UNL     1       5.480   4.569   1.370  0.00  0.00    -0.000 A 
ATOM     10  C   UNL     1       6.605   5.513   1.460  0.00  0.00    +0.010 A 
ATOM     11  C   UNL     1       6.342   6.703   2.062  0.00  0.00    +0.001 A 
ATOM     12  C   UNL     1       5.087   7.045   2.576  0.00  0.00    +0.002 A 
ATOM     13  C   UNL     1       3.994   6.242   2.528  0.00  0.00    +0.026 A 
ATOM     14  C   UNL     1       4.144   4.966   1.911  0.00  0.00    +0.043 A 
ATOM     15  N   UNL     1       3.272   4.023   1.708  0.00  0.00    -0.375 N 
ATOM     16  C   UNL     1       3.924   2.946   0.963  0.00  0.00    +0.139 C 
ATOM     17  C   UNL     1       3.881   1.612   1.716  0.00  0.00    +0.135 C 
ATOM     18  C   UNL     1       2.491   1.067   1.704  0.00  0.00    +0.242 C 
ATOM     19  O   UNL     1       1.618   1.733   2.218  0.00  0.00    -0.273 OA
ATOM     20  C   UNL     1       4.295   1.852   3.169  0.00  0.00    +0.044 C 
ATOM     21  H   UNL     1       2.348   4.031   2.001  0.00  0.00    +0.160 HD
ENDROOT
BRANCH   7  22
ATOM     22  C   UNL     1       6.235   2.207  -1.154  0.00  0.00    +0.003 A 
ATOM     23  C   UNL     1       5.027   1.729  -1.624  0.00  0.00    +0.008 A 
ATOM     24  C   UNL     1       4.835   1.545  -2.981  0.00  0.00    +0.001 A 
ATOM     25  C   UNL     1       5.852   1.837  -3.871  0.00  0.00    +0.004 A 
ATOM     26  C   UNL     1       7.062   2.315  -3.406  0.00  0.00    +0.046 A 
ATOM     27  C   UNL     1       7.255   2.506  -2.045  0.00  0.00    +0.124 A 
BRANCH  27  28
ATOM     28  O   UNL     1       8.442   2.981  -1.586  0.00  0.00    -0.495 OA
ATOM     29  C   UNL     1       9.447   3.268  -2.561  0.00  0.00    +0.277 C 
ENDBRANCH  27  28
ENDBRANCH   7  22
BRANCH   1  30
ATOM     30  C   UNL     1       0.742  -0.511   1.242  0.00  0.00    +0.116 C 
BRANCH  30  32
ATOM     31  C   UNL     1      -0.019   1.526   0.010  0.00  0.00    +0.014 C 
ATOM     32  C   UNL     1       0.002  -0.004   0.002  0.00  0.00    +0.033 C 
BRANCH  32  33
ATOM     33  C   UNL     1      -1.412  -0.526   0.013  0.00  0.00    -0.043 A 
ATOM     34  C   UNL     1      -2.259  -0.204   1.056  0.00  0.00    +0.004 A 
ATOM     35  C   UNL     1      -3.556  -0.683   1.066  0.00  0.00    +0.000 A 
ATOM     36  C   UNL     1      -4.006  -1.482   0.032  0.00  0.00    +0.000 A 
ATOM     37  C   UNL     1      -3.159  -1.803  -1.012  0.00  0.00    +0.000 A 
ATOM     38  C   UNL     1      -1.863  -1.321  -1.024  0.00  0.00    +0.004 A 
ENDBRANCH  32  33
ENDBRANCH  30  32
ENDBRANCH   1  30
TORSDOF 5
