REMARK  Name = ZINC33864230
REMARK  6 active torsions:
REMARK  status: ('A' for Active; 'I' for Inactive)
REMARK    1  A    between atoms: C_3  and  N_32
REMARK    2  A    between atoms: C_6  and  C_7
REMARK    3  A    between atoms: C_7  and  C_8
REMARK    4  A    between atoms: C_8  and  C_29
REMARK    5  A    between atoms: C_13  and  C_16
REMARK    6  A    between atoms: C_21  and  O_22
REMARK                            x       y       z     vdW  Elec       q    Type
REMARK                         _______ _______ _______ _____ _____    ______ ____
ROOT
ATOM      1  C   UNL     1      -1.744  -1.028  -1.429  0.00  0.00    +0.138 C 
ATOM      2  C   UNL     1      -3.026  -1.887  -1.447  0.00  0.00    +0.120 C 
ATOM      3  C   UNL     1      -2.859  -2.826  -2.672  0.00  0.00    +0.111 C 
ATOM      4  C   UNL     1      -1.500  -2.435  -3.288  0.00  0.00    +0.101 C 
ATOM      5  N   UNL     1      -0.735  -1.843  -2.153  0.00  0.00    -0.293 NA
ATOM      6  C   UNL     1      -2.762  -4.200  -2.049  0.00  0.00    +0.225 C 
ATOM      7  O   UNL     1      -2.623  -5.238  -2.659  0.00  0.00    -0.275 OA
ATOM      8  N   UNL     1      -2.854  -4.091  -0.718  0.00  0.00    -0.256 N 
ATOM      9  C   UNL     1      -3.012  -2.827  -0.263  0.00  0.00    +0.225 C 
ATOM     10  O   UNL     1      -3.122  -2.494   0.897  0.00  0.00    -0.275 OA
ATOM     11  H   UNL     1       0.019  -1.265  -2.493  0.00  0.00    +0.124 HD
ATOM     12  H   UNL     1      -2.815  -4.858  -0.125  0.00  0.00    +0.157 HD
ENDROOT
BRANCH   4  13
ATOM     13  C   UNL     1      -0.786  -3.658  -3.804  0.00  0.00    +0.013 A 
ATOM     14  C   UNL     1       0.139  -4.306  -3.008  0.00  0.00    +0.024 A 
ATOM     15  C   UNL     1       0.795  -5.428  -3.481  0.00  0.00    +0.018 A 
ATOM     16  C   UNL     1       0.525  -5.905  -4.752  0.00  0.00    +0.019 A 
ATOM     17  C   UNL     1      -0.399  -5.261  -5.551  0.00  0.00    +0.047 A 
ATOM     18  C   UNL     1      -1.062  -4.138  -5.076  0.00  0.00    +0.122 A 
ATOM     19 BR   UNL     1       2.061  -6.312  -2.390  0.00  0.00    -0.050 Br
BRANCH  18  20
ATOM     20  O   UNL     1      -1.975  -3.505  -5.859  0.00  0.00    -0.506 OA
ATOM     21  H   UNL     1      -1.601  -2.810  -6.417  0.00  0.00    +0.292 HD
ENDBRANCH  18  20
ENDBRANCH   4  13
BRANCH   1  22
ATOM     22  C   UNL     1      -1.975   0.278  -2.144  0.00  0.00    +0.377 C 
ATOM     23  O   UNL     1      -1.324   0.553  -3.137  0.00  0.00    -0.244 OA
ATOM     24  O   UNL     1      -2.813   1.060  -1.729  0.00  0.00    -0.244 OA
ENDBRANCH   1  22
BRANCH   1  25
ATOM     25  C   UNL     1      -1.293  -0.775   0.010  0.00  0.00    +0.069 C 
BRANCH  25  31
ATOM     26  C   UNL     1      -0.017   1.378   0.010  0.00  0.00    +0.006 A 
ATOM     27  C   UNL     1       1.171   2.086   0.002  0.00  0.00    +0.033 A 
ATOM     28  C   UNL     1       2.377   1.411  -0.013  0.00  0.00    +0.126 A 
ATOM     29  C   UNL     1       2.396   0.029  -0.020  0.00  0.00    +0.033 A 
ATOM     30  C   UNL     1       1.208  -0.679  -0.012  0.00  0.00    +0.006 A 
ATOM     31  C   UNL     1       0.002  -0.004   0.002  0.00  0.00    -0.045 A 
BRANCH  28  32
ATOM     32  N   UNL     1       3.649   2.168  -0.022  0.00  0.00    +0.056 N 
ATOM     33  O   UNL     1       3.633   3.377  -0.016  0.00  0.00    -0.126 OA
ATOM     34  O   UNL     1       4.704   1.578  -0.035  0.00  0.00    -0.126 OA
ENDBRANCH  28  32
ENDBRANCH  25  31
ENDBRANCH   1  25
TORSDOF 6
