REMARK  Name = ZINC41033224
REMARK  3 active torsions:
REMARK  status: ('A' for Active; 'I' for Inactive)
REMARK    1  A    between atoms: C_6  and  C_7
REMARK    2  A    between atoms: C_9  and  C_12
REMARK    3  A    between atoms: C_12  and  N_19
REMARK                            x       y       z     vdW  Elec       q    Type
REMARK                         _______ _______ _______ _____ _____    ______ ____
ROOT
ATOM      1  C   UNL     1      -2.441  -0.328   0.428  0.00  0.00    +0.202 A 
ATOM      2  N   UNL     1      -3.170  -1.437   0.646  0.00  0.00    -0.193 NA
ATOM      3  C   UNL     1      -2.641  -2.449   0.019  0.00  0.00    +0.216 A 
ATOM      4  O   UNL     1      -1.548  -2.023  -0.627  0.00  0.00    -0.339 OA
ATOM      5  N   UNL     1      -1.435  -0.634  -0.354  0.00  0.00    -0.056 NA
ENDROOT
BRANCH   1  11
ATOM      6  C   UNL     1      -1.897   2.094   0.670  0.00  0.00    +0.013 A 
ATOM      7  C   UNL     1      -2.172   3.346   1.182  0.00  0.00    +0.016 A 
ATOM      8  C   UNL     1      -3.273   3.536   1.999  0.00  0.00    +0.018 A 
ATOM      9  C   UNL     1      -4.104   2.472   2.307  0.00  0.00    +0.016 A 
ATOM     10  C   UNL     1      -3.838   1.217   1.800  0.00  0.00    +0.013 A 
ATOM     11  C   UNL     1      -2.731   1.020   0.976  0.00  0.00    +0.023 A 
ATOM     12 BR   UNL     1      -3.643   5.253   2.698  0.00  0.00    -0.050 Br
ENDBRANCH   1  11
BRANCH   3  13
ATOM     13  C   UNL     1      -3.169  -3.860   0.021  0.00  0.00    +0.010 C 
ATOM     14  C   UNL     1      -2.815  -4.534  -1.278  0.00  0.00    -0.004 C 
ATOM     15  C   UNL     1      -2.618  -3.529  -2.429  0.00  0.00    -0.001 C 
ATOM     16  C   UNL     1      -3.673  -2.406  -2.429  0.00  0.00    -0.000 C 
ATOM     17  C   UNL     1      -5.057  -2.916  -2.129  0.00  0.00    -0.000 C 
ATOM     18  C   UNL     1      -5.316  -2.768  -0.616  0.00  0.00    -0.001 C 
ATOM     19  C   UNL     1      -4.705  -3.838   0.159  0.00  0.00    -0.004 C 
BRANCH  13  20
ATOM     20  N   UNL     1      -2.583  -4.604   1.143  0.00  0.00    +0.388 N 
ATOM     21  H   UNL     1      -2.830  -4.153   2.011  0.00  0.00    -0.089 HD
ATOM     22  H   UNL     1      -2.939  -5.549   1.142  0.00  0.00    -0.089 HD
ATOM     23  H   UNL     1      -1.579  -4.623   1.047  0.00  0.00    -0.089 HD
ENDBRANCH  13  20
ENDBRANCH   3  13
TORSDOF 3
