REMARK  Name = ZINC10644921
REMARK  9 active torsions:
REMARK  status: ('A' for Active; 'I' for Inactive)
REMARK    1  A    between atoms: C_1  and  C_2
REMARK    2  A    between atoms: C_5  and  N_9
REMARK    3  A    between atoms: C_10  and  C_12
REMARK    4  A    between atoms: C_12  and  O_13
REMARK    5  A    between atoms: O_13  and  C_14
REMARK    6  A    between atoms: C_14  and  C_16
REMARK    7  A    between atoms: C_17  and  N_27
REMARK    8  A    between atoms: C_19  and  C_26
REMARK    9  A    between atoms: C_21  and  C_25
REMARK                            x       y       z     vdW  Elec       q    Type
REMARK                         _______ _______ _______ _____ _____    ______ ____
ROOT
ATOM      1  C   UNL     1       1.071  -8.151  -2.793  0.00  0.00    +0.348 C 
ATOM      2  O   UNL     1       1.185  -8.895  -1.837  0.00  0.00    -0.244 OA
ENDROOT
BRANCH   1   3
ATOM      3  C   UNL     1       0.858  -8.688  -4.085  0.00  0.00    +0.119 A 
ATOM      4  C   UNL     1       0.747 -10.012  -4.453  0.00  0.00    +0.055 A 
ATOM      5  C   UNL     1       0.526 -10.321  -5.857  0.00  0.00    +0.030 A 
ATOM      6  C   UNL     1       0.381 -11.591  -6.471  0.00  0.00    -0.037 A 
ATOM      7  C   UNL     1       0.178 -11.655  -7.829  0.00  0.00    +0.025 A 
ATOM      8  C   UNL     1       0.117 -10.493  -8.585  0.00  0.00    +0.014 A 
ATOM      9  N   UNL     1       0.252  -9.314  -8.010  0.00  0.00    -0.353 N 
ATOM     10  C   UNL     1       0.447  -9.200  -6.714  0.00  0.00    +0.088 A 
ATOM     11  S   UNL     1       0.661  -7.814  -5.626  0.00  0.00    -0.062 S 
ATOM     12  C   UNL     1      -0.106 -10.580 -10.073  0.00  0.00    +0.063 C 
ATOM     13  C   UNL     1       0.449 -12.851  -5.647  0.00  0.00    +0.044 C 
ATOM     14  H   UNL     1       0.207  -8.513  -8.555  0.00  0.00    +0.166 HD
BRANCH   4  15
ATOM     15  N   UNL     1       0.843 -11.023  -3.508  0.00  0.00    -0.356 N 
ATOM     16  H   UNL     1       1.270 -10.850  -2.655  0.00  0.00    +0.142 HD
ATOM     17  H   UNL     1       0.483 -11.903  -3.701  0.00  0.00    +0.142 HD
ENDBRANCH   4  15
ENDBRANCH   1   3
BRANCH   1  18
ATOM     18  O   UNL     1       1.148  -6.814  -2.622  0.00  0.00    -0.451 OA
BRANCH  18  19
ATOM     19  C   UNL     1       1.364  -6.342  -1.291  0.00  0.00    +0.328 C 
BRANCH  19  21
ATOM     20  N   UNL     1       1.619  -4.166  -0.142  0.00  0.00    -0.282 N 
ATOM     21  C   UNL     1       1.421  -4.836  -1.295  0.00  0.00    +0.255 C 
ATOM     22  O   UNL     1       1.290  -4.227  -2.336  0.00  0.00    -0.272 OA
ATOM     23  H   UNL     1       1.740  -4.654   0.687  0.00  0.00    +0.155 HD
BRANCH  20  28
ATOM     24  C   UNL     1       1.738   1.506  -0.143  0.00  0.00    +0.044 C 
ATOM     25  C   UNL     1       1.707  -0.000  -0.143  0.00  0.00    -0.049 A 
ATOM     26  C   UNL     1       1.136  -0.679  -1.204  0.00  0.00    +0.005 A 
ATOM     27  C   UNL     1       1.105  -2.060  -1.207  0.00  0.00    +0.025 A 
ATOM     28  C   UNL     1       1.649  -2.767  -0.143  0.00  0.00    +0.048 A 
ATOM     29  C   UNL     1       2.222  -2.083   0.922  0.00  0.00    +0.039 A 
ATOM     30  C   UNL     1       2.254  -0.701   0.916  0.00  0.00    +0.020 A 
ATOM     31 BR   UNL     1       2.963  -3.041   2.374  0.00  0.00    -0.048 Br
ENDBRANCH  20  28
ENDBRANCH  19  21
ENDBRANCH  18  19
ENDBRANCH   1  18
TORSDOF 6
