REMARK  Name = ZINC09478613
REMARK  7 active torsions:
REMARK  status: ('A' for Active; 'I' for Inactive)
REMARK    1  A    between atoms: C_4  and  C_7
REMARK    2  A    between atoms: C_7  and  N_8
REMARK    3  A    between atoms: C_13  and  C_20
REMARK    4  A    between atoms: C_17  and  O_19
REMARK    5  A    between atoms: C_23  and  O_26
REMARK    6  A    between atoms: O_26  and  C_27
REMARK    7  A    between atoms: C_27  and  C_28
REMARK                            x       y       z     vdW  Elec       q    Type
REMARK                         _______ _______ _______ _____ _____    ______ ____
ROOT
ATOM      1  N   UNL     1       4.152  -0.952   1.338  0.00  0.00    -0.242 N 
ATOM      2  C   UNL     1       4.936  -0.110   2.099  0.00  0.00    +0.159 A 
ATOM      3  C   UNL     1       5.098  -0.718   3.314  0.00  0.00    +0.033 A 
ATOM      4  C   UNL     1       4.408  -1.944   3.275  0.00  0.00    +0.141 A 
ATOM      5  N   UNL     1       3.846  -2.075   2.107  0.00  0.00    -0.177 NA
ATOM      6  C   UNL     1       5.841  -0.252   4.529  0.00  0.00    +0.112 C 
ATOM      7  S   UNL     1       7.300   0.715   4.124  0.00  0.00    -0.138 S 
ATOM      8  C   UNL     1       6.691   2.225   3.361  0.00  0.00    +0.165 C 
ATOM      9  C   UNL     1       6.096   2.003   2.027  0.00  0.00    +0.199 C 
ATOM     10  N   UNL     1       5.393   1.055   1.609  0.00  0.00    -0.197 NA
ENDROOT
BRANCH   6  11
ATOM     11  C   UNL     1       6.265  -1.455   5.332  0.00  0.00    -0.030 A 
ATOM     12  C   UNL     1       7.099  -2.402   4.767  0.00  0.00    +0.008 A 
ATOM     13  C   UNL     1       7.489  -3.506   5.500  0.00  0.00    +0.046 A 
ATOM     14  C   UNL     1       7.044  -3.663   6.805  0.00  0.00    +0.121 A 
ATOM     15  C   UNL     1       6.207  -2.711   7.369  0.00  0.00    +0.046 A 
ATOM     16  C   UNL     1       5.825  -1.606   6.633  0.00  0.00    +0.008 A 
BRANCH  14  17
ATOM     17  O   UNL     1       7.425  -4.749   7.528  0.00  0.00    -0.487 OA
BRANCH  17  18
ATOM     18  C   UNL     1       6.928  -4.845   8.864  0.00  0.00    +0.264 C 
BRANCH  18  19
ATOM     19  C   UNL     1       7.454  -6.104   9.506  0.00  0.00    -0.010 A 
ATOM     20  C   UNL     1       6.742  -7.284   9.396  0.00  0.00    +0.007 A 
ATOM     21  C   UNL     1       7.224  -8.438   9.985  0.00  0.00    +0.000 A 
ATOM     22  C   UNL     1       8.417  -8.413  10.682  0.00  0.00    +0.000 A 
ATOM     23  C   UNL     1       9.129  -7.233  10.791  0.00  0.00    +0.000 A 
ATOM     24  C   UNL     1       8.649  -6.079  10.199  0.00  0.00    +0.007 A 
ENDBRANCH  18  19
ENDBRANCH  17  18
ENDBRANCH  14  17
ENDBRANCH   6  11
BRANCH   9  25
ATOM     25  O   UNL     1       6.347   2.970   1.121  0.00  0.00    -0.495 OA
ATOM     26  H   UNL     1       5.950   2.810   0.254  0.00  0.00    +0.293 HD
ENDBRANCH   9  25
BRANCH   1  27
ATOM     27  C   UNL     1       3.711  -0.707  -0.038  0.00  0.00    +0.181 C 
BRANCH  27  31
ATOM     28  C   UNL     1      -0.017   1.378   0.010  0.00  0.00    +0.000 A 
ATOM     29  C   UNL     1       1.171   2.086   0.002  0.00  0.00    +0.000 A 
ATOM     30  C   UNL     1       2.377   1.411  -0.013  0.00  0.00    +0.005 A 
ATOM     31  C   UNL     1       2.396   0.029  -0.020  0.00  0.00    -0.026 A 
ATOM     32  C   UNL     1       1.208  -0.679  -0.012  0.00  0.00    +0.005 A 
ATOM     33  C   UNL     1       0.002  -0.004   0.002  0.00  0.00    +0.000 A 
ENDBRANCH  27  31
ENDBRANCH   1  27
TORSDOF 7
