REMARK  Name = ZINC20059177
REMARK  12 active torsions:
REMARK  status: ('A' for Active; 'I' for Inactive)
REMARK    1  A    between atoms: C_1  and  C_2
REMARK    2  A    between atoms: C_2  and  O_3
REMARK    3  A    between atoms: O_3  and  C_4
REMARK    4  A    between atoms: C_9  and  N_10
REMARK    5  A    between atoms: N_10  and  C_11
REMARK    6  A    between atoms: N_10  and  S_27
REMARK    7  A    between atoms: C_11  and  C_12
REMARK    8  A    between atoms: N_14  and  N_15
REMARK    9  A    between atoms: C_16  and  C_17
REMARK   10  A    between atoms: C_16  and  C_18
REMARK   11  A    between atoms: C_22  and  N_24
REMARK   12  A    between atoms: S_27  and  C_30
REMARK                            x       y       z     vdW  Elec       q    Type
REMARK                         _______ _______ _______ _____ _____    ______ ____
ROOT
ATOM      1  N   UNL     1      -3.806   9.988   0.090  0.00  0.00    -0.191 N 
ENDROOT
BRANCH   1   7
ATOM      2  C   UNL     1      -5.303   9.066   1.752  0.00  0.00    +0.143 A 
ATOM      3  C   UNL     1      -5.979   9.188   2.954  0.00  0.00    +0.047 A 
ATOM      4  C   UNL     1      -5.848  10.340   3.708  0.00  0.00    +0.004 A 
ATOM      5  C   UNL     1      -5.042  11.372   3.265  0.00  0.00    +0.002 A 
ATOM      6  C   UNL     1      -4.360  11.256   2.068  0.00  0.00    +0.028 A 
ATOM      7  C   UNL     1      -4.491  10.106   1.304  0.00  0.00    +0.093 A 
BRANCH   2   8
ATOM      8  O   UNL     1      -5.431   7.933   1.010  0.00  0.00    -0.490 OA
BRANCH   8  10
ATOM      9  C   UNL     1      -6.298   5.722   0.565  0.00  0.00    +0.048 C 
ATOM     10  C   UNL     1      -6.280   6.909   1.531  0.00  0.00    +0.226 C 
ENDBRANCH   8  10
ENDBRANCH   2   8
ENDBRANCH   1   7
BRANCH   1  11
ATOM     11  S   UNL     1      -4.563  10.380  -1.330  0.00  0.00    +0.075 S 
ATOM     12  O   UNL     1      -5.509  11.393  -1.020  0.00  0.00    -0.150 OA
ATOM     13  O   UNL     1      -3.540  10.564  -2.299  0.00  0.00    -0.150 OA
BRANCH  11  14
ATOM     14  C   UNL     1      -5.486   8.966  -1.835  0.00  0.00    +0.109 A 
ATOM     15  C   UNL     1      -4.904   8.016  -2.652  0.00  0.00    +0.029 A 
ATOM     16  C   UNL     1      -5.626   6.905  -3.044  0.00  0.00    +0.002 A 
ATOM     17  C   UNL     1      -6.935   6.749  -2.627  0.00  0.00    +0.000 A 
ATOM     18  C   UNL     1      -7.520   7.702  -1.814  0.00  0.00    +0.002 A 
ATOM     19  C   UNL     1      -6.795   8.811  -1.418  0.00  0.00    +0.029 A 
ENDBRANCH  11  14
ENDBRANCH   1  11
BRANCH   1  20
ATOM     20  C   UNL     1      -2.418   9.519   0.074  0.00  0.00    +0.229 C 
BRANCH  20  21
ATOM     21  C   UNL     1      -2.398   8.012   0.066  0.00  0.00    +0.251 C 
ATOM     22  O   UNL     1      -3.440   7.391   0.072  0.00  0.00    -0.272 OA
ATOM     23  N   UNL     1      -1.221   7.354   0.052  0.00  0.00    -0.205 N 
ATOM     24  H   UNL     1      -0.276   7.917   0.046  0.00  0.00    +0.177 HD
BRANCH  23  25
ATOM     25  N   UNL     1      -1.202   5.953   0.044  0.00  0.00    -0.185 NA
ATOM     26  C   UNL     1      -0.070   5.320   0.030  0.00  0.00    +0.063 C 
ATOM     27  C   UNL     1       1.225   6.091   0.023  0.00  0.00    +0.068 C 
BRANCH  26  28
ATOM     28  C   UNL     1      -0.050   3.845   0.022  0.00  0.00    -0.000 A 
ATOM     29  C   UNL     1       1.167   3.160   0.007  0.00  0.00    +0.010 A 
ATOM     30  C   UNL     1       1.178   1.781   0.000  0.00  0.00    +0.003 A 
ATOM     31  C   UNL     1      -0.013   1.076   0.008  0.00  0.00    +0.033 A 
ATOM     32  C   UNL     1      -1.222   1.748   0.017  0.00  0.00    +0.127 A 
ATOM     33  C   UNL     1      -1.248   3.127   0.030  0.00  0.00    +0.042 A 
BRANCH  32  34
ATOM     34  N   UNL     1      -2.490   0.985   0.019  0.00  0.00    +0.056 N 
ATOM     35  O   UNL     1      -2.469  -0.233   0.013  0.00  0.00    -0.126 OA
ATOM     36  O   UNL     1      -3.556   1.575   0.028  0.00  0.00    -0.126 OA
ENDBRANCH  32  34
ENDBRANCH  26  28
ENDBRANCH  23  25
ENDBRANCH  20  21
ENDBRANCH   1  20
TORSDOF 10
