REMARK  Name = ZINC09240975
REMARK  10 active torsions:
REMARK  status: ('A' for Active; 'I' for Inactive)
REMARK    1  A    between atoms: C_1  and  C_2
REMARK    2  A    between atoms: C_2  and  O_3
REMARK    3  A    between atoms: O_3  and  C_4
REMARK    4  A    between atoms: C_4  and  C_6
REMARK    5  A    between atoms: C_11  and  N_12
REMARK    6  A    between atoms: C_13  and  C_15
REMARK    7  A    between atoms: C_15  and  S_16
REMARK    8  A    between atoms: S_16  and  C_17
REMARK    9  A    between atoms: C_23  and  C_26
REMARK   10  A    between atoms: C_29  and  C_32
REMARK                            x       y       z     vdW  Elec       q    Type
REMARK                         _______ _______ _______ _____ _____    ______ ____
ROOT
ATOM      1  S   UNL     1       3.800   0.499   0.002  0.00  0.00    -0.075 S 
ENDROOT
BRANCH   1   2
ATOM      2  C   UNL     1       2.041   0.580   0.043  0.00  0.00    +0.213 A 
ATOM      3  N   UNL     1       1.214  -0.444   0.060  0.00  0.00    -0.120 NA
ATOM      4  N   UNL     1      -0.005  -0.032   0.089  0.00  0.00    -0.127 NA
ATOM      5  C   UNL     1      -0.027   1.288   0.092  0.00  0.00    +0.179 A 
ATOM      6  N   UNL     1       1.287   1.711   0.063  0.00  0.00    -0.187 N 
ATOM      7  N   UNL     1       1.583   3.075   0.059  0.00  0.00    -0.163 NA
ATOM      8  C   UNL     1       0.618   3.966   0.083  0.00  0.00    +0.092 A 
ATOM      9  C   UNL     1      -0.737   3.566   0.113  0.00  0.00    +0.034 A 
ATOM     10  C   UNL     1      -1.059   2.246   0.123  0.00  0.00    +0.052 A 
BRANCH   8  11
ATOM     11  C   UNL     1       0.955   5.411   0.077  0.00  0.00    +0.002 A 
ATOM     12  C   UNL     1      -0.060   6.366   0.097  0.00  0.00    +0.010 A 
ATOM     13  C   UNL     1       0.259   7.708   0.098  0.00  0.00    +0.004 A 
ATOM     14  C   UNL     1       1.583   8.107   0.068  0.00  0.00    -0.050 A 
ATOM     15  C   UNL     1       2.595   7.163   0.043  0.00  0.00    +0.004 A 
ATOM     16  C   UNL     1       2.287   5.818   0.047  0.00  0.00    +0.010 A 
ATOM     17  C   UNL     1       1.926   9.575   0.063  0.00  0.00    +0.044 C 
ENDBRANCH   8  11
ENDBRANCH   1   2
BRANCH   1  18
ATOM     18  C   UNL     1       4.158  -1.280  -0.010  0.00  0.00    +0.173 C 
BRANCH  18  20
ATOM     19  N   UNL     1       6.152  -2.742  -0.059  0.00  0.00    -0.284 N 
ATOM     20  C   UNL     1       5.649  -1.492  -0.045  0.00  0.00    +0.228 C 
ATOM     21  O   UNL     1       6.397  -0.537  -0.060  0.00  0.00    -0.275 OA
ATOM     22  H   UNL     1       5.557  -3.505   0.019  0.00  0.00    +0.155 HD
BRANCH  19  28
ATOM     23  C   UNL     1       8.016  -4.036  -0.910  0.00  0.00    +0.080 A 
ATOM     24  C   UNL     1       9.396  -4.223  -1.029  0.00  0.00    +0.017 A 
ATOM     25  C   UNL     1      10.263  -3.332  -0.435  0.00  0.00    +0.001 A 
ATOM     26  C   UNL     1       9.774  -2.250   0.280  0.00  0.00    +0.002 A 
ATOM     27  C   UNL     1       8.414  -2.049   0.401  0.00  0.00    +0.024 A 
ATOM     28  C   UNL     1       7.524  -2.940  -0.185  0.00  0.00    +0.047 A 
BRANCH  23  29
ATOM     29  C   UNL     1       7.082  -4.985  -1.543  0.00  0.00    +0.341 C 
ATOM     30  O   UNL     1       5.887  -4.767  -1.521  0.00  0.00    -0.245 OA
BRANCH  29  31
ATOM     31  O   UNL     1       7.554  -6.094  -2.145  0.00  0.00    -0.461 OA
BRANCH  31  33
ATOM     32  C   UNL     1       7.295  -8.178  -3.378  0.00  0.00    +0.048 C 
ATOM     33  C   UNL     1       6.577  -6.984  -2.747  0.00  0.00    +0.229 C 
ENDBRANCH  31  33
ENDBRANCH  29  31
ENDBRANCH  23  29
ENDBRANCH  19  28
ENDBRANCH  18  20
ENDBRANCH   1  18
TORSDOF 8
