REMARK  Name = ZINC65305044
REMARK  6 active torsions:
REMARK  status: ('A' for Active; 'I' for Inactive)
REMARK    1  A    between atoms: C_1  and  C_2
REMARK    2  A    between atoms: C_5  and  N_9
REMARK    3  A    between atoms: C_6  and  C_8
REMARK    4  A    between atoms: C_10  and  C_12
REMARK    5  A    between atoms: C_12  and  N_13
REMARK    6  A    between atoms: C_23  and  C_27
REMARK                            x       y       z     vdW  Elec       q    Type
REMARK                         _______ _______ _______ _____ _____    ______ ____
ROOT
ATOM      1  N   UNL     1      -0.232  -6.826  -2.567  0.00  0.00    -0.302 N 
ATOM      2  C   UNL     1      -1.409  -7.018  -3.279  0.00  0.00    +0.069 A 
ATOM      3  C   UNL     1      -2.749  -6.838  -2.961  0.00  0.00    +0.028 A 
ATOM      4  C   UNL     1      -3.722  -7.121  -3.898  0.00  0.00    +0.002 A 
ATOM      5  C   UNL     1      -3.369  -7.584  -5.154  0.00  0.00    +0.002 A 
ATOM      6  C   UNL     1      -2.040  -7.766  -5.481  0.00  0.00    +0.028 A 
ATOM      7  C   UNL     1      -1.054  -7.484  -4.546  0.00  0.00    +0.076 A 
ATOM      8  N   UNL     1       0.337  -7.567  -4.581  0.00  0.00    -0.246 N 
ATOM      9  C   UNL     1       0.822  -7.159  -3.376  0.00  0.00    +0.197 A 
ATOM     10  N   UNL     1       2.123  -7.135  -3.142  0.00  0.00    -0.326 N 
ATOM     11  C   UNL     1       3.007  -7.504  -4.074  0.00  0.00    +0.056 A 
ATOM     12  C   UNL     1       2.560  -7.924  -5.320  0.00  0.00    +0.097 A 
ATOM     13  C   UNL     1       1.181  -7.956  -5.560  0.00  0.00    +0.260 A 
ATOM     14  O   UNL     1       0.749  -8.318  -6.643  0.00  0.00    -0.267 OA
ATOM     15  H   UNL     1       2.444  -6.842  -2.274  0.00  0.00    +0.169 HD
ENDROOT
BRANCH  11  16
ATOM     16  C   UNL     1       4.459  -7.465  -3.779  0.00  0.00    +0.017 A 
ATOM     17  C   UNL     1       5.392  -7.844  -4.750  0.00  0.00    +0.013 A 
ATOM     18  C   UNL     1       6.736  -7.790  -4.425  0.00  0.00    +0.020 A 
ATOM     19  C   UNL     1       7.110  -7.366  -3.163  0.00  0.00    +0.111 A 
ATOM     20  N   UNL     1       6.207  -7.015  -2.267  0.00  0.00    -0.263 NA
ATOM     21  C   UNL     1       4.917  -7.044  -2.532  0.00  0.00    +0.120 A 
ENDBRANCH  11  16
BRANCH   1  22
ATOM     22  C   UNL     1      -0.134  -6.343  -1.187  0.00  0.00    +0.221 C 
BRANCH  22  24
ATOM     23  N   UNL     1       0.059  -4.170  -0.021  0.00  0.00    -0.284 N 
ATOM     24  C   UNL     1      -0.040  -4.839  -1.187  0.00  0.00    +0.237 C 
ATOM     25  O   UNL     1      -0.054  -4.230  -2.236  0.00  0.00    -0.274 OA
ATOM     26  H   UNL     1       0.135  -4.658   0.814  0.00  0.00    +0.155 HD
BRANCH  23  31
ATOM     27  C   UNL     1       0.025   1.503   0.005  0.00  0.00    +0.044 C 
ATOM     28  C   UNL     1       0.034  -0.004  -0.002  0.00  0.00    -0.050 A 
ATOM     29  C   UNL     1       0.632  -0.685  -1.046  0.00  0.00    +0.005 A 
ATOM     30  C   UNL     1       0.641  -2.066  -1.055  0.00  0.00    +0.024 A 
ATOM     31  C   UNL     1       0.051  -2.771  -0.014  0.00  0.00    +0.036 A 
ATOM     32  C   UNL     1      -0.548  -2.083   1.033  0.00  0.00    -0.029 A 
ATOM     33  C   UNL     1      -0.550  -0.702   1.039  0.00  0.00    +0.008 A 
ATOM     34  C   UNL     1      -1.190  -2.843   2.165  0.00  0.00    +0.045 C 
ENDBRANCH  23  31
ENDBRANCH  22  24
ENDBRANCH   1  22
TORSDOF 4
