REMARK  Name = ZINC39448842
REMARK  6 active torsions:
REMARK  status: ('A' for Active; 'I' for Inactive)
REMARK    1  A    between atoms: C_1  and  O_2
REMARK    2  A    between atoms: O_2  and  C_3
REMARK    3  A    between atoms: C_8  and  C_9
REMARK    4  A    between atoms: C_14  and  S_16
REMARK    5  A    between atoms: S_16  and  C_17
REMARK    6  A    between atoms: C_17  and  C_18
REMARK                            x       y       z     vdW  Elec       q    Type
REMARK                         _______ _______ _______ _____ _____    ______ ____
ROOT
ATOM      1  C   UNL     1       0.052  -2.828   0.005  0.00  0.00    +0.204 C 
ATOM      2  N   UNL     1      -1.171  -2.171  -0.469  0.00  0.00    -0.336 N 
ATOM      3  C   UNL     1      -2.330  -2.474   0.054  0.00  0.00    +0.190 C 
ATOM      4  N   UNL     1      -2.458  -3.418   1.002  0.00  0.00    -0.195 NA
ATOM      5  C   UNL     1      -1.468  -4.253   1.266  0.00  0.00    +0.159 C 
ATOM      6  N   UNL     1      -0.309  -4.154   0.531  0.00  0.00    -0.300 N 
ATOM      7  N   UNL     1      -3.456  -1.805  -0.380  0.00  0.00    -0.329 N 
ATOM      8  H   UNL     1      -3.380  -1.120  -1.063  0.00  0.00    +0.145 HD
ATOM      9  H   UNL     1      -4.323  -2.018  -0.002  0.00  0.00    +0.145 HD
ATOM     10  H   UNL     1       0.249  -4.930   0.365  0.00  0.00    +0.150 HD
ATOM     11  H   UNL     1      -1.119  -1.506  -1.173  0.00  0.00    +0.164 HD
ENDROOT
BRANCH   1  17
ATOM     12  C   UNL     1       0.626  -0.618   1.042  0.00  0.00    +0.127 A 
ATOM     13  C   UNL     1       1.202   0.139   2.051  0.00  0.00    +0.046 A 
ATOM     14  C   UNL     1       1.835  -0.488   3.107  0.00  0.00    +0.004 A 
ATOM     15  C   UNL     1       1.895  -1.869   3.158  0.00  0.00    +0.001 A 
ATOM     16  C   UNL     1       1.321  -2.625   2.153  0.00  0.00    +0.011 A 
ATOM     17  C   UNL     1       0.682  -2.003   1.097  0.00  0.00    +0.034 A 
BRANCH  12  19
ATOM     18  C   UNL     1      -0.017   1.425   0.010  0.00  0.00    +0.277 C 
ATOM     19  O   UNL     1       0.002  -0.004   0.002  0.00  0.00    -0.495 OA
ENDBRANCH  12  19
ENDBRANCH   1  17
BRANCH   5  20
ATOM     20  S   UNL     1      -1.630  -5.467   2.533  0.00  0.00    -0.081 S 
BRANCH  20  21
ATOM     21  C   UNL     1      -3.298  -5.196   3.191  0.00  0.00    +0.173 C 
BRANCH  21  22
ATOM     22  C   UNL     1      -3.569  -6.183   4.297  0.00  0.00    +0.234 C 
ATOM     23  O   UNL     1      -2.719  -6.990   4.611  0.00  0.00    -0.274 OA
ATOM     24  N   UNL     1      -4.754  -6.169   4.938  0.00  0.00    -0.239 N 
ATOM     25  C   UNL     1      -5.754  -5.250   4.589  0.00  0.00    +0.044 A 
ATOM     26  C   UNL     1      -6.189  -5.230   3.268  0.00  0.00    +0.024 A 
ATOM     27  C   UNL     1      -7.195  -4.374   2.874  0.00  0.00    +0.002 A 
ATOM     28  C   UNL     1      -7.771  -3.535   3.812  0.00  0.00    +0.000 A 
ATOM     29  C   UNL     1      -7.331  -3.545   5.115  0.00  0.00    +0.005 A 
ATOM     30  C   UNL     1      -6.300  -4.391   5.530  0.00  0.00    -0.025 A 
ATOM     31  C   UNL     1      -5.879  -4.214   6.971  0.00  0.00    +0.042 C 
ATOM     32  C   UNL     1      -4.705  -5.093   7.367  0.00  0.00    +0.042 C 
ATOM     33  C   UNL     1      -5.046  -6.556   7.242  0.00  0.00    -0.025 A 
ATOM     34  C   UNL     1      -5.029  -7.077   5.970  0.00  0.00    +0.044 A 
ATOM     35  C   UNL     1      -5.282  -8.418   5.744  0.00  0.00    +0.024 A 
ATOM     36  C   UNL     1      -5.580  -9.229   6.827  0.00  0.00    +0.002 A 
ATOM     37  C   UNL     1      -5.625  -8.703   8.105  0.00  0.00    +0.000 A 
ATOM     38  C   UNL     1      -5.353  -7.346   8.326  0.00  0.00    +0.005 A 
ENDBRANCH  21  22
ENDBRANCH  20  21
ENDBRANCH   5  20
TORSDOF 5
