REMARK  Name = ZINC13243989
REMARK  12 active torsions:
REMARK  status: ('A' for Active; 'I' for Inactive)
REMARK    1  A    between atoms: C_1  and  C_2
REMARK    2  A    between atoms: C_2  and  C_3
REMARK    3  A    between atoms: C_3  and  C_4
REMARK    4  A    between atoms: C_3  and  C_5
REMARK    5  A    between atoms: C_3  and  C_6
REMARK    6  A    between atoms: C_9  and  N_12
REMARK    7  A    between atoms: C_13  and  C_15
REMARK    8  A    between atoms: C_15  and  N_16
REMARK    9  A    between atoms: N_19  and  CA_20
REMARK   10  A    between atoms: CA_20  and  C_22
REMARK   11  A    between atoms: CA_20  and  C_31
REMARK   12  A    between atoms: C_22  and  C_23
REMARK                            x       y       z     vdW  Elec       q    Type
REMARK                         _______ _______ _______ _____ _____    ______ ____
ROOT
ATOM      1  N   UNL     1       2.323   0.998  -0.015  0.00  0.00    -0.291 N 
ATOM      2  C   UNL     1       1.147   1.655   0.000  0.00  0.00    +0.301 C 
ATOM      3  O   UNL     1       1.130   2.871   0.007  0.00  0.00    -0.253 OA
ATOM      4  N   UNL     1      -0.011   0.966   0.007  0.00  0.00    -0.286 N 
ATOM      5  H   UNL     1       2.336   0.028  -0.020  0.00  0.00    +0.151 HD
ATOM      6  H   UNL     1       0.002  -0.004   0.002  0.00  0.00    +0.151 HD
ENDROOT
BRANCH   1   7
ATOM      7  C   UNL     1       3.582   1.747  -0.023  0.00  0.00    +0.201 C 
BRANCH   7   9
ATOM      8  N   UNL     1       6.005   1.250  -0.049  0.00  0.00    -0.311 N 
ATOM      9  C   UNL     1       4.740   0.784  -0.039  0.00  0.00    +0.230 C 
ATOM     10  O   UNL     1       4.535  -0.412  -0.043  0.00  0.00    -0.274 OA
ATOM     11  H   UNL     1       6.169   2.206  -0.045  0.00  0.00    +0.149 HD
BRANCH   8  15
ATOM     12  C   UNL     1       9.855  -0.413   0.733  0.00  0.00    -0.005 C 
ATOM     13  C   UNL     1       9.529   0.018  -0.699  0.00  0.00    +0.006 C 
ATOM     14  C   UNL     1       8.353   0.996  -0.682  0.00  0.00    +0.022 C 
ATOM     15  C   UNL     1       7.131   0.314  -0.064  0.00  0.00    +0.073 C 
ATOM     16  C   UNL     1       7.456  -0.117   1.367  0.00  0.00    +0.022 C 
ATOM     17  C   UNL     1       8.633  -1.095   1.351  0.00  0.00    +0.006 C 
BRANCH  12  18
ATOM     18  C   UNL     1      11.031  -1.391   0.717  0.00  0.00    -0.032 C 
ATOM     19  C   UNL     1      10.660  -2.621  -0.114  0.00  0.00    +0.011 C 
ATOM     20  C   UNL     1      12.253  -0.709   0.099  0.00  0.00    +0.011 C 
BRANCH  18  22
ATOM     21  C   UNL     1      12.533  -2.800   2.132  0.00  0.00    +0.004 C 
ATOM     22  C   UNL     1      11.356  -1.822   2.148  0.00  0.00    +0.003 C 
ENDBRANCH  18  22
ENDBRANCH  12  18
ENDBRANCH   8  15
ENDBRANCH   7   9
ENDBRANCH   1   7
BRANCH   4  23
ATOM     23  CA  UNL     1      -1.290   1.681   0.017  0.00  0.00    +0.196 C 
BRANCH  23  24
ATOM     24  C   UNL     1      -1.661   2.027   1.436  0.00  0.00    +0.376 C 
ATOM     25  O   UNL     1      -0.932   1.708   2.346  0.00  0.00    -0.244 OA
ATOM     26  OXT UNL     1      -2.801   2.688   1.690  0.00  0.00    -0.244 OA
ENDBRANCH  23  24
BRANCH  23  27
ATOM     27  C   UNL     1      -2.376   0.792  -0.592  0.00  0.00    +0.130 C 
BRANCH  27  28
ATOM     28  C   UNL     1      -2.067   0.548  -2.047  0.00  0.00    +0.218 C 
ATOM     29  O   UNL     1      -1.076   1.036  -2.547  0.00  0.00    -0.276 OA
ATOM     30  N   UNL     1      -2.893  -0.214  -2.792  0.00  0.00    -0.297 N 
ATOM     31  C   UNL     1      -4.098  -0.822  -2.206  0.00  0.00    +0.136 C 
ATOM     32  C   UNL     1      -5.293  -0.484  -3.111  0.00  0.00    +0.179 C 
ATOM     33  O   UNL     1      -4.984  -0.859  -4.455  0.00  0.00    -0.377 OA
ATOM     34  C   UNL     1      -3.877  -0.151  -5.020  0.00  0.00    +0.179 C 
ATOM     35  C   UNL     1      -2.612  -0.467  -4.214  0.00  0.00    +0.136 C 
ENDBRANCH  27  28
ENDBRANCH  23  27
ENDBRANCH   4  23
TORSDOF 9
