REMARK  Name = ZINC20681756
REMARK  8 active torsions:
REMARK  status: ('A' for Active; 'I' for Inactive)
REMARK    1  A    between atoms: C_1  and  C_2
REMARK    2  A    between atoms: C_4  and  C_36
REMARK    3  A    between atoms: C_6  and  N_8
REMARK    4  A    between atoms: N_8  and  S_9
REMARK    5  A    between atoms: S_9  and  C_12
REMARK    6  A    between atoms: C_25  and  C_28
REMARK    7  A    between atoms: C_31  and  O_35
REMARK    8  A    between atoms: C_33  and  O_34
REMARK                            x       y       z     vdW  Elec       q    Type
REMARK                         _______ _______ _______ _____ _____    ______ ____
ROOT
ATOM      1  C   UNL     1       3.154  -0.490   0.166  0.00  0.00    +0.109 A 
ATOM      2  C   UNL     1       2.040  -0.668   0.965  0.00  0.00    +0.030 A 
ATOM      3  C   UNL     1       2.199  -0.946   2.308  0.00  0.00    +0.025 A 
ATOM      4  C   UNL     1       3.473  -1.047   2.851  0.00  0.00    +0.031 A 
ATOM      5  C   UNL     1       4.593  -0.872   2.053  0.00  0.00    -0.018 A 
ATOM      6  C   UNL     1       4.420  -0.596   0.704  0.00  0.00    +0.034 A 
ATOM      7  C   UNL     1       5.985  -0.977   2.592  0.00  0.00    +0.049 C 
ATOM      8  C   UNL     1       6.624   0.383   2.738  0.00  0.00    -0.023 C 
ATOM      9  C   UNL     1       7.384   0.415   3.806  0.00  0.00    -0.030 C 
ATOM     10  C   UNL     1       7.358  -0.925   4.516  0.00  0.00    +0.033 C 
ATOM     11  C   UNL     1       6.036  -1.574   4.012  0.00  0.00    +0.029 C 
ATOM     12  C   UNL     1       4.896  -1.004   4.859  0.00  0.00    +0.108 C 
ATOM     13  N   UNL     1       3.618  -1.324   4.215  0.00  0.00    -0.336 N 
ATOM     14  H   UNL     1       2.803  -1.772   4.802  0.00  0.00    +0.147 HD
ENDROOT
BRANCH  12  15
ATOM     15  C   UNL     1       5.046   0.492   4.966  0.00  0.00    +0.015 A 
ATOM     16  C   UNL     1       4.546   1.309   3.970  0.00  0.00    +0.012 A 
ATOM     17  C   UNL     1       4.678   2.681   4.067  0.00  0.00    +0.046 A 
ATOM     18  C   UNL     1       5.322   3.241   5.161  0.00  0.00    +0.120 A 
ATOM     19  C   UNL     1       5.829   2.424   6.159  0.00  0.00    +0.091 A 
ATOM     20  C   UNL     1       5.691   1.048   6.062  0.00  0.00    +0.125 A 
BRANCH  20  21
ATOM     21  O   UNL     1       6.187   0.244   7.039  0.00  0.00    -0.506 OA
ATOM     22  H   UNL     1       6.698   0.684   7.907  0.00  0.00    +0.292 HD
ENDBRANCH  20  21
BRANCH  18  23
ATOM     23  O   UNL     1       5.456   4.590   5.254  0.00  0.00    -0.507 OA
ATOM     24  H   UNL     1       5.967   5.034   6.121  0.00  0.00    +0.292 HD
ENDBRANCH  18  23
ENDBRANCH  12  15
BRANCH   1  25
ATOM     25  S   UNL     1       2.956  -0.135  -1.549  0.00  0.00    +0.072 S 
ATOM     26  O   UNL     1       1.634  -0.523  -1.894  0.00  0.00    -0.150 OA
ATOM     27  O   UNL     1       4.101  -0.660  -2.207  0.00  0.00    -0.150 OA
BRANCH  25  28
ATOM     28  N   UNL     1       3.026   1.511  -1.719  0.00  0.00    -0.216 N 
ATOM     29  H   UNL     1       3.850   1.971  -2.285  0.00  0.00    +0.174 HD
BRANCH  28  35
ATOM     30  C   UNL     1      -1.729   2.416  -0.870  0.00  0.00    +0.044 C 
ATOM     31  C   UNL     1      -0.274   2.778  -0.716  0.00  0.00    -0.048 A 
ATOM     32  C   UNL     1       0.085   3.908  -0.005  0.00  0.00    +0.006 A 
ATOM     33  C   UNL     1       1.419   4.244   0.139  0.00  0.00    -0.048 A 
ATOM     34  C   UNL     1       2.397   3.451  -0.428  0.00  0.00    +0.028 A 
ATOM     35  C   UNL     1       2.039   2.315  -1.144  0.00  0.00    +0.049 A 
ATOM     36  C   UNL     1       0.699   1.983  -1.290  0.00  0.00    +0.028 A 
ATOM     37  C   UNL     1       1.805   5.477   0.914  0.00  0.00    +0.044 C 
ENDBRANCH  28  35
ENDBRANCH  25  28
ENDBRANCH   1  25
TORSDOF 6
