REMARK  Name = ZINC08902069
REMARK  6 active torsions:
REMARK  status: ('A' for Active; 'I' for Inactive)
REMARK    1  A    between atoms: C_1  and  C_2
REMARK    2  A    between atoms: C_2  and  C_3
REMARK    3  A    between atoms: C_3  and  C_27
REMARK    4  A    between atoms: N_6  and  C_10
REMARK    5  A    between atoms: C_10  and  C_11
REMARK    6  A    between atoms: C_24  and  C_26
REMARK                            x       y       z     vdW  Elec       q    Type
REMARK                         _______ _______ _______ _____ _____    ______ ____
ROOT
ATOM      1  C   UNL     1       0.742  -0.511   1.242  0.00  0.00    +0.138 C 
ATOM      2  C   UNL     1       0.055  -0.034   2.505  0.00  0.00    +0.251 C 
ATOM      3  O   UNL     1      -1.076  -0.284   2.863  0.00  0.00    -0.272 OA
ATOM      4  N   UNL     1       0.962   0.727   3.149  0.00  0.00    -0.215 N 
ATOM      5  C   UNL     1       2.116   0.796   2.474  0.00  0.00    +0.310 C 
ATOM      6  O   UNL     1       3.085   1.423   2.854  0.00  0.00    -0.252 OA
ATOM      7  N   UNL     1       2.083   0.093   1.328  0.00  0.00    -0.281 N 
ATOM      8  H   UNL     1       2.802   0.001   0.683  0.00  0.00    +0.152 HD
ENDROOT
BRANCH   1   9
ATOM      9  C   UNL     1       0.838  -2.015   1.222  0.00  0.00    -0.015 A 
ATOM     10  C   UNL     1      -0.146  -2.761   0.601  0.00  0.00    +0.009 A 
ATOM     11  C   UNL     1      -0.059  -4.141   0.582  0.00  0.00    +0.039 A 
ATOM     12  C   UNL     1       1.014  -4.774   1.185  0.00  0.00    +0.123 A 
ATOM     13  C   UNL     1       1.999  -4.025   1.807  0.00  0.00    +0.039 A 
ATOM     14  C   UNL     1       1.912  -2.646   1.820  0.00  0.00    +0.009 A 
ATOM     15  F   UNL     1       1.100  -6.122   1.168  0.00  0.00    -0.205 F 
ENDBRANCH   1   9
BRANCH   1  17
ATOM     16  C   UNL     1      -0.019   1.526   0.010  0.00  0.00    +0.007 C 
ATOM     17  C   UNL     1       0.002  -0.004   0.002  0.00  0.00    +0.037 C 
ENDBRANCH   1  17
BRANCH   4  18
ATOM     18  C   UNL     1       0.716   1.397   4.428  0.00  0.00    +0.214 C 
BRANCH  18  19
ATOM     19  C   UNL     1       1.104   0.478   5.559  0.00  0.00    +0.238 C 
ATOM     20  O   UNL     1       1.543  -0.627   5.319  0.00  0.00    -0.273 OA
ATOM     21  N   UNL     1       0.963   0.885   6.836  0.00  0.00    -0.265 N 
ATOM     22  C   UNL     1       0.452   2.157   7.127  0.00  0.00    +0.058 A 
ATOM     23  C   UNL     1      -0.890   2.441   6.934  0.00  0.00    +0.025 A 
ATOM     24  C   UNL     1      -1.380   3.695   7.249  0.00  0.00    +0.002 A 
ATOM     25  C   UNL     1      -0.537   4.666   7.758  0.00  0.00    +0.002 A 
ATOM     26  C   UNL     1       0.806   4.393   7.946  0.00  0.00    +0.025 A 
ATOM     27  C   UNL     1       1.307   3.143   7.622  0.00  0.00    +0.055 A 
ATOM     28  N   UNL     1       2.672   2.861   7.751  0.00  0.00    -0.284 N 
ATOM     29  C   UNL     1       3.083   1.731   8.366  0.00  0.00    +0.219 C 
ATOM     30  O   UNL     1       4.265   1.459   8.397  0.00  0.00    -0.275 OA
ATOM     31  C   UNL     1       2.085   0.808   9.012  0.00  0.00    +0.118 C 
ATOM     32  C   UNL     1       1.336   0.003   7.944  0.00  0.00    +0.087 C 
ATOM     33  C   UNL     1       0.073  -0.608   8.554  0.00  0.00    +0.029 C 
ATOM     34  H   UNL     1       3.327   3.482   7.396  0.00  0.00    +0.155 HD
ENDBRANCH  18  19
ENDBRANCH   4  18
TORSDOF 4
