REMARK  Name = ZINC57945843
REMARK  9 active torsions:
REMARK  status: ('A' for Active; 'I' for Inactive)
REMARK    1  A    between atoms: C_1  and  C_2
REMARK    2  A    between atoms: C_2  and  C_3
REMARK    3  A    between atoms: C_3  and  C_4
REMARK    4  A    between atoms: C_4  and  N_5
REMARK    5  A    between atoms: N_14  and  C_33
REMARK    6  A    between atoms: C_15  and  C_17
REMARK    7  A    between atoms: C_17  and  S_18
REMARK    8  A    between atoms: S_18  and  C_19
REMARK    9  A    between atoms: C_27  and  C_29
REMARK                            x       y       z     vdW  Elec       q    Type
REMARK                         _______ _______ _______ _____ _____    ______ ____
ROOT
ATOM      1  N   UNL     1       1.471  -2.526   2.420  0.00  0.00    -0.277 N 
ATOM      2  C   UNL     1       2.841  -2.732   2.372  0.00  0.00    +0.168 A 
ATOM      3  C   UNL     1       3.490  -3.193   3.511  0.00  0.00    +0.151 A 
ATOM      4  C   UNL     1       2.737  -3.437   4.680  0.00  0.00    +0.280 A 
ATOM      5  O   UNL     1       3.284  -3.840   5.691  0.00  0.00    -0.265 OA
ATOM      6  N   UNL     1       1.406  -3.217   4.665  0.00  0.00    -0.273 N 
ATOM      7  H   UNL     1       0.885  -3.383   5.466  0.00  0.00    +0.173 HD
ATOM      8  C   UNL     1       0.792  -2.766   3.557  0.00  0.00    +0.331 A 
ATOM      9  O   UNL     1      -0.409  -2.574   3.582  0.00  0.00    -0.246 OA
ATOM     10  N   UNL     1       4.824  -3.304   3.176  0.00  0.00    -0.324 N 
ATOM     11  C   UNL     1       4.941  -2.921   1.890  0.00  0.00    +0.123 A 
ATOM     12  N   UNL     1       3.766  -2.585   1.421  0.00  0.00    -0.213 NA
ATOM     13  C   UNL     1       5.908  -3.753   4.054  0.00  0.00    +0.151 C 
ENDROOT
BRANCH   1  14
ATOM     14  C   UNL     1       0.763  -2.041   1.233  0.00  0.00    +0.128 C 
BRANCH  14  15
ATOM     15  C   UNL     1       0.742  -0.511   1.242  0.00  0.00    +0.021 C 
BRANCH  15  17
ATOM     16  C   UNL     1      -0.019   1.526   0.010  0.00  0.00    +0.004 C 
ATOM     17  C   UNL     1       0.002  -0.004   0.002  0.00  0.00    -0.002 C 
ENDBRANCH  15  17
ENDBRANCH  14  15
ENDBRANCH   1  14
BRANCH  11  18
ATOM     18  C   UNL     1       6.229  -2.885   1.109  0.00  0.00    +0.150 C 
BRANCH  18  19
ATOM     19  S   UNL     1       6.487  -4.484   0.292  0.00  0.00    -0.097 S 
BRANCH  19  20
ATOM     20  C   UNL     1       8.012  -4.283  -0.568  0.00  0.00    +0.109 A 
ATOM     21  C   UNL     1       8.555  -5.337  -1.344  0.00  0.00    +0.032 A 
ATOM     22  C   UNL     1       7.915  -6.575  -1.468  0.00  0.00    +0.012 A 
ATOM     23  C   UNL     1       8.485  -7.552  -2.230  0.00  0.00    +0.001 A 
ATOM     24  C   UNL     1       9.693  -7.334  -2.886  0.00  0.00    +0.002 A 
ATOM     25  C   UNL     1      10.341  -6.138  -2.785  0.00  0.00    +0.028 A 
ATOM     26  C   UNL     1       9.784  -5.112  -2.010  0.00  0.00    +0.076 A 
ATOM     27  N   UNL     1      10.379  -3.917  -1.879  0.00  0.00    -0.224 NA
ATOM     28  C   UNL     1       9.831  -2.977  -1.146  0.00  0.00    +0.236 A 
ATOM     29  N   UNL     1       8.681  -3.139  -0.510  0.00  0.00    -0.217 NA
BRANCH  28  30
ATOM     30  C   UNL     1      10.538  -1.652  -1.029  0.00  0.00    +0.452 C 
ATOM     31  F   UNL     1       9.877  -0.699  -1.811  0.00  0.00    -0.163 F 
ATOM     32  F   UNL     1      10.537  -1.240   0.308  0.00  0.00    -0.163 F 
ATOM     33  F   UNL     1      11.857  -1.787  -1.474  0.00  0.00    -0.163 F 
ENDBRANCH  28  30
ENDBRANCH  19  20
ENDBRANCH  18  19
ENDBRANCH  11  18
TORSDOF 7
