REMARK  Name = ZINC10188470
REMARK  9 active torsions:
REMARK  status: ('A' for Active; 'I' for Inactive)
REMARK    1  A    between atoms: C_1  and  N_2
REMARK    2  A    between atoms: N_2  and  C_3
REMARK    3  A    between atoms: N_2  and  C_4
REMARK    4  A    between atoms: C_7  and  C_10
REMARK    5  A    between atoms: C_10  and  C_12
REMARK    6  A    between atoms: C_10  and  N_63
REMARK    7  A    between atoms: C_12  and  N_13
REMARK    8  A    between atoms: C_14  and  C_16
REMARK    9  A    between atoms: N_18  and  C_19
REMARK                            x       y       z     vdW  Elec       q    Type
REMARK                         _______ _______ _______ _____ _____    ______ ____
ROOT
ATOM      1  C   UNL     1      -1.571   3.155  -1.174  0.00  0.00    -0.020 C 
ENDROOT
BRANCH   1  11
ATOM      2  C   UNL     1      -0.715   1.045  -0.344  0.00  0.00    -0.073 C 
ATOM      3  C   UNL     1       0.562   0.407   0.204  0.00  0.00    +0.017 C 
ATOM      4  C   UNL     1       0.948   1.064   1.505  0.00  0.00    -0.048 A 
ATOM      5  C   UNL     1       1.852   0.414   2.331  0.00  0.00    +0.004 A 
ATOM      6  C   UNL     1       2.239   0.986   3.527  0.00  0.00    +0.000 A 
ATOM      7  C   UNL     1       1.722   2.211   3.902  0.00  0.00    +0.000 A 
ATOM      8  C   UNL     1       0.820   2.858   3.082  0.00  0.00    +0.002 A 
ATOM      9  C   UNL     1       0.429   2.285   1.880  0.00  0.00    -0.061 A 
ATOM     10  C   UNL     1      -0.561   3.026   1.021  0.00  0.00    -0.042 C 
ATOM     11  N   UNL     1      -0.518   2.509  -0.357  0.00  0.00    +0.388 N 
ATOM     12  H   UNL     1       0.399   2.720  -0.767  0.00  0.00    -0.080 HD
ENDBRANCH   1  11
BRANCH   1  16
ATOM     13  C   UNL     1      -5.191   0.892  -0.975  0.00  0.00    +0.029 A 
ATOM     14  C   UNL     1      -4.616   1.179  -2.206  0.00  0.00    +0.023 A 
ATOM     15  C   UNL     1      -3.446   1.910  -2.267  0.00  0.00    +0.004 A 
ATOM     16  C   UNL     1      -2.847   2.357  -1.104  0.00  0.00    -0.059 A 
ATOM     17  C   UNL     1      -3.413   2.068   0.124  0.00  0.00    +0.004 A 
ATOM     18  C   UNL     1      -4.586   1.342   0.192  0.00  0.00    +0.023 A 
BRANCH  13  20
ATOM     19  C   UNL     1      -7.073  -0.221  -2.141  0.00  0.00    +0.129 C 
ATOM     20  N   UNL     1      -6.374   0.152  -0.909  0.00  0.00    -0.336 N 
ATOM     21  C   UNL     1      -6.914  -0.252   0.391  0.00  0.00    +0.129 C 
ENDBRANCH  13  20
ENDBRANCH   1  16
BRANCH   1  22
ATOM     22  C   UNL     1      -1.825   4.570  -0.651  0.00  0.00    +0.094 C 
BRANCH  22  23
ATOM     23  N   UNL     1      -0.565   5.318  -0.634  0.00  0.00    -0.309 N 
ATOM     24  C   UNL     1      -0.526   6.562  -0.117  0.00  0.00    +0.299 C 
ATOM     25  O   UNL     1      -1.536   7.063   0.334  0.00  0.00    -0.265 OA
ATOM     26  H   UNL     1       0.242   4.917  -0.995  0.00  0.00    +0.149 HD
BRANCH  24  27
ATOM     27  C   UNL     1       0.758   7.324  -0.100  0.00  0.00    +0.303 C 
ATOM     28  O   UNL     1       1.767   6.823  -0.551  0.00  0.00    -0.265 OA
ATOM     29  N   UNL     1       0.796   8.568   0.417  0.00  0.00    -0.275 N 
ATOM     30  H   UNL     1       0.010   8.939   0.848  0.00  0.00    +0.155 HD
BRANCH  29  31
ATOM     31  C   UNL     1       1.970   9.325   0.332  0.00  0.00    +0.070 A 
ATOM     32  C   UNL     1       2.849   9.130  -0.725  0.00  0.00    +0.029 A 
ATOM     33  C   UNL     1       4.006   9.878  -0.807  0.00  0.00    +0.040 A 
ATOM     34  C   UNL     1       4.292  10.824   0.163  0.00  0.00    +0.126 A 
ATOM     35  C   UNL     1       3.419  11.022   1.219  0.00  0.00    +0.078 A 
ATOM     36  C   UNL     1       2.256  10.279   1.304  0.00  0.00    +0.147 A 
ATOM     37  F   UNL     1       1.400  10.476   2.331  0.00  0.00    -0.203 F 
ATOM     38  F   UNL     1       5.426  11.554   0.080  0.00  0.00    -0.205 F 
ENDBRANCH  29  31
ENDBRANCH  24  27
ENDBRANCH  22  23
ENDBRANCH   1  22
TORSDOF 7
