REMARK  Name = ZINC36116565
REMARK  12 active torsions:
REMARK  status: ('A' for Active; 'I' for Inactive)
REMARK    1  A    between atoms: C_1  and  C_2
REMARK    2  A    between atoms: C_2  and  N_3
REMARK    3  A    between atoms: N_6  and  C_7
REMARK    4  A    between atoms: N_6  and  C_30
REMARK    5  A    between atoms: C_7  and  C_8
REMARK    6  A    between atoms: C_18  and  C_20
REMARK    7  A    between atoms: C_20  and  O_21
REMARK    8  A    between atoms: O_21  and  C_22
REMARK    9  A    between atoms: C_26  and  C_28
REMARK   10  A    between atoms: C_30  and  C_31
REMARK   11  A    between atoms: C_30  and  C_32
REMARK   12  A    between atoms: C_30  and  C_33
REMARK                            x       y       z     vdW  Elec       q    Type
REMARK                         _______ _______ _______ _____ _____    ______ ____
ROOT
ATOM      1  C   UNL     1       0.508  -4.099  -3.691  0.00  0.00    +0.234 C 
ATOM      2  O   UNL     1      -0.336  -3.284  -3.997  0.00  0.00    -0.274 OA
ATOM      3  N   UNL     1       0.400  -5.373  -4.118  0.00  0.00    -0.289 N 
ATOM      4  C   UNL     1       1.414  -6.372  -3.748  0.00  0.00    +0.114 C 
ATOM      5  C   UNL     1       2.129  -6.830  -5.028  0.00  0.00    +0.061 C 
ATOM      6  C   UNL     1       1.107  -7.042  -6.098  0.00  0.00    -0.004 A 
ATOM      7  C   UNL     1      -0.178  -6.596  -6.126  0.00  0.00    -0.014 A 
ATOM      8  C   UNL     1      -0.930  -6.925  -7.253  0.00  0.00    +0.013 A 
ATOM      9  C   UNL     1      -0.376  -7.658  -8.245  0.00  0.00    +0.046 A 
ATOM     10  S   UNL     1       1.278  -7.927  -7.625  0.00  0.00    -0.101 S 
ATOM     11  C   UNL     1      -0.736  -5.785  -4.953  0.00  0.00    +0.144 C 
ENDROOT
BRANCH   1  12
ATOM     12  C   UNL     1       1.678  -3.688  -2.835  0.00  0.00    +0.205 C 
BRANCH  12  16
ATOM     13  N   UNL     1       0.438  -2.805  -0.535  0.00  0.00    -0.299 N 
ATOM     14  C   UNL     1       0.907  -1.879  -1.395  0.00  0.00    +0.303 C 
ATOM     15  O   UNL     1       0.737  -0.697  -1.170  0.00  0.00    -0.253 OA
ATOM     16  N   UNL     1       1.567  -2.265  -2.506  0.00  0.00    -0.272 N 
ATOM     17  H   UNL     1       0.507  -3.748  -0.752  0.00  0.00    +0.150 HD
BRANCH  16  18
ATOM     18  C   UNL     1       2.171  -1.261  -3.385  0.00  0.00    +0.031 C 
ATOM     19  C   UNL     1       3.192  -0.440  -2.594  0.00  0.00    +0.031 C 
ATOM     20  C   UNL     1       2.873  -1.960  -4.551  0.00  0.00    +0.031 C 
ATOM     21  C   UNL     1       1.081  -0.334  -3.926  0.00  0.00    +0.031 C 
ENDBRANCH  16  18
BRANCH  13  23
ATOM     22  C   UNL     1      -0.622  -3.622   1.512  0.00  0.00    +0.024 C 
ATOM     23  C   UNL     1      -0.177  -2.386   0.727  0.00  0.00    +0.102 C 
ENDBRANCH  13  23
ENDBRANCH  12  16
ENDBRANCH   1  12
BRANCH  11  24
ATOM     24  C   UNL     1      -1.697  -6.647  -4.132  0.00  0.00    +0.256 C 
BRANCH  24  25
ATOM     25  O   UNL     1      -1.046  -7.863  -3.759  0.00  0.00    -0.490 OA
BRANCH  25  26
ATOM     26  C   UNL     1      -1.767  -8.748  -3.021  0.00  0.00    +0.121 A 
ATOM     27  C   UNL     1      -3.076  -8.453  -2.667  0.00  0.00    +0.047 A 
ATOM     28  C   UNL     1      -3.807  -9.353  -1.917  0.00  0.00    +0.024 A 
ATOM     29  C   UNL     1      -3.235 -10.548  -1.517  0.00  0.00    +0.044 A 
ATOM     30  C   UNL     1      -1.930 -10.844  -1.868  0.00  0.00    -0.029 A 
ATOM     31  C   UNL     1      -1.197  -9.949  -2.625  0.00  0.00    +0.050 A 
ATOM     32  C   UNL     1      -1.308 -12.145  -1.431  0.00  0.00    +0.045 C 
ATOM     33 CL   UNL     1      -4.155 -11.678  -0.574  0.00  0.00    -0.083 Cl
ENDBRANCH  25  26
ENDBRANCH  24  25
ENDBRANCH  11  24
TORSDOF 7
