REMARK  Name = ZINC36930187
REMARK  6 active torsions:
REMARK  status: ('A' for Active; 'I' for Inactive)
REMARK    1  A    between atoms: C_1  and  C_2
REMARK    2  A    between atoms: C_2  and  C_3
REMARK    3  A    between atoms: C_2  and  C_4
REMARK    4  A    between atoms: C_2  and  C_5
REMARK    5  A    between atoms: C_6  and  C_18
REMARK    6  A    between atoms: C_18  and  O_19
REMARK                            x       y       z     vdW  Elec       q    Type
REMARK                         _______ _______ _______ _____ _____    ______ ____
ROOT
ATOM      1  C   UNL     1       0.740  -0.491  -1.186  0.00  0.00    +0.076 A 
ATOM      2  C   UNL     1       0.879  -1.835  -1.548  0.00  0.00    +0.038 A 
ATOM      3  C   UNL     1       1.593  -1.886  -2.698  0.00  0.00    +0.140 A 
ATOM      4  N   UNL     1       1.895  -0.609  -3.050  0.00  0.00    -0.201 N 
ATOM      5  N   UNL     1       1.342   0.243  -2.086  0.00  0.00    -0.168 NA
ATOM      6  C   UNL     1       2.624  -0.216  -4.177  0.00  0.00    +0.178 A 
ATOM      7  C   UNL     1       2.446   1.057  -4.716  0.00  0.00    +0.053 A 
ATOM      8  C   UNL     1       3.193   1.399  -5.833  0.00  0.00    +0.045 A 
ATOM      9  C   UNL     1       4.071   0.453  -6.346  0.00  0.00    +0.152 A 
ATOM     10  N   UNL     1       4.174  -0.730  -5.770  0.00  0.00    -0.136 NA
ATOM     11  N   UNL     1       3.489  -1.049  -4.733  0.00  0.00    -0.128 NA
ATOM     12 CL   UNL     1       5.030   0.826  -7.743  0.00  0.00    -0.060 Cl
ATOM     13 CL   UNL     1       2.042  -3.322  -3.563  0.00  0.00    -0.061 Cl
ENDROOT
BRANCH   1  15
ATOM     14  C   UNL     1      -0.042   1.552  -0.019  0.00  0.00    +0.017 C 
ATOM     15  C   UNL     1       0.014   0.024   0.030  0.00  0.00    +0.007 C 
ATOM     16  C   UNL     1       0.755  -0.419   1.293  0.00  0.00    +0.017 C 
ATOM     17  C   UNL     1      -1.409  -0.538   0.051  0.00  0.00    +0.017 C 
ENDBRANCH   1  15
BRANCH   2  18
ATOM     18  C   UNL     1       0.332  -3.018  -0.791  0.00  0.00    +0.196 C 
BRANCH  18  19
ATOM     19  O   UNL     1      -0.927  -3.400  -1.349  0.00  0.00    -0.390 OA
ATOM     20  H   UNL     1      -1.338  -4.157  -0.910  0.00  0.00    +0.210 HD
ENDBRANCH  18  19
ENDBRANCH   2  18
TORSDOF 3
