REMARK  Name = ZINC10865288
REMARK  8 active torsions:
REMARK  status: ('A' for Active; 'I' for Inactive)
REMARK    1  A    between atoms: C_1  and  C_2
REMARK    2  A    between atoms: C_2  and  N_69
REMARK    3  A    between atoms: C_5  and  N_8
REMARK    4  A    between atoms: C_9  and  C_11
REMARK    5  A    between atoms: C_11  and  S_12
REMARK    6  A    between atoms: S_12  and  C_13
REMARK    7  A    between atoms: C_21  and  C_25
REMARK    8  A    between atoms: N_28  and  C_29
REMARK                            x       y       z     vdW  Elec       q    Type
REMARK                         _______ _______ _______ _____ _____    ______ ____
ROOT
ATOM      1  C   UNL     1      -1.213   3.233   0.202  0.00  0.00    +0.173 A 
ATOM      2  N   UNL     1      -0.102   3.941   0.201  0.00  0.00    -0.216 NA
ATOM      3  C   UNL     1       1.077   3.355   0.024  0.00  0.00    +0.117 A 
ATOM      4  C   UNL     1       1.201   1.969  -0.168  0.00  0.00    +0.076 A 
ATOM      5  C   UNL     1       2.565   1.469  -0.349  0.00  0.00    -0.023 A 
ATOM      6  C   UNL     1       3.560   2.378  -0.315  0.00  0.00    -0.004 A 
ATOM      7  S   UNL     1       2.754   3.933  -0.043  0.00  0.00    -0.073 S 
ATOM      8  C   UNL     1       5.028   2.124  -0.474  0.00  0.00    +0.046 C 
ATOM      9  C   UNL     1       5.216   0.714  -1.052  0.00  0.00    -0.009 C 
ATOM     10  C   UNL     1       4.345  -0.263  -0.257  0.00  0.00    +0.008 C 
ATOM     11  C   UNL     1       2.868  -0.011  -0.567  0.00  0.00    +0.037 C 
ATOM     12  C   UNL     1       6.685   0.303  -0.935  0.00  0.00    +0.008 C 
ATOM     13  C   UNL     1      -0.022   1.226  -0.162  0.00  0.00    +0.263 A 
ATOM     14  O   UNL     1      -0.012   0.018  -0.321  0.00  0.00    -0.267 OA
ATOM     15  N   UNL     1      -1.184   1.881   0.018  0.00  0.00    -0.284 N 
ENDROOT
BRANCH  15  16
ATOM     16  C   UNL     1      -2.440   1.128   0.020  0.00  0.00    +0.093 C 
ATOM     17  C   UNL     1      -2.431   0.089   1.160  0.00  0.00    +0.025 C 
ATOM     18  C   UNL     1      -3.159  -1.140   0.559  0.00  0.00    +0.002 C 
ATOM     19  C   UNL     1      -2.658  -1.152  -0.907  0.00  0.00    +0.002 C 
ATOM     20  C   UNL     1      -2.584   0.340  -1.294  0.00  0.00    +0.025 C 
ENDBRANCH  15  16
BRANCH   1  21
ATOM     21  S   UNL     1      -2.760   4.044   0.440  0.00  0.00    -0.078 S 
BRANCH  21  22
ATOM     22  C   UNL     1      -2.194   5.755   0.616  0.00  0.00    +0.173 C 
BRANCH  22  24
ATOM     23  N   UNL     1      -3.200   7.982   0.994  0.00  0.00    -0.312 N 
ATOM     24  C   UNL     1      -3.381   6.656   0.835  0.00  0.00    +0.224 C 
ATOM     25  O   UNL     1      -4.500   6.189   0.868  0.00  0.00    -0.275 OA
ATOM     26  H   UNL     1      -2.305   8.356   0.967  0.00  0.00    +0.149 HD
BRANCH  23  29
ATOM     27  C   UNL     1      -5.105  11.059   2.117  0.00  0.00    -0.077 C 
ATOM     28  C   UNL     1      -3.908  10.120   1.951  0.00  0.00    +0.003 C 
ATOM     29  C   UNL     1      -4.354   8.859   1.206  0.00  0.00    +0.069 C 
ATOM     30  C   UNL     1      -4.949   9.259  -0.146  0.00  0.00    +0.003 C 
ATOM     31  C   UNL     1      -6.116  10.223   0.080  0.00  0.00    -0.077 C 
ATOM     32  N   UNL     1      -5.616  11.426   0.779  0.00  0.00    +0.380 N 
ATOM     33  H   UNL     1      -4.851  11.835   0.231  0.00  0.00    -0.082 HD
BRANCH  32  35
ATOM     34  C   UNL     1      -7.398  12.581  -0.444  0.00  0.00    -0.017 C 
ATOM     35  C   UNL     1      -6.700  12.421   0.908  0.00  0.00    -0.082 C 
ENDBRANCH  32  35
ENDBRANCH  23  29
ENDBRANCH  22  24
ENDBRANCH  21  22
ENDBRANCH   1  21
TORSDOF 6
