REMARK  Name = ZINC63373368
REMARK  4 active torsions:
REMARK  status: ('A' for Active; 'I' for Inactive)
REMARK    1  A    between atoms: C_1  and  O_2
REMARK    2  A    between atoms: O_2  and  C_3
REMARK    3  A    between atoms: C_10  and  C_18
REMARK    4  A    between atoms: N_22  and  C_25
REMARK                            x       y       z     vdW  Elec       q    Type
REMARK                         _______ _______ _______ _____ _____    ______ ____
ROOT
ATOM      1  C   UNL     1      -4.411   1.924  -0.269  0.00  0.00    +0.121 A 
ATOM      2  C   UNL     1      -5.713   2.041   0.248  0.00  0.00    +0.047 A 
ATOM      3  C   UNL     1      -6.527   0.976   0.410  0.00  0.00    +0.029 A 
ATOM      4  C   UNL     1      -6.060  -0.363   0.041  0.00  0.00    +0.043 A 
ATOM      5  N   UNL     1      -6.632  -1.543   0.118  0.00  0.00    -0.376 N 
ATOM      6  C   UNL     1      -5.737  -2.529  -0.477  0.00  0.00    +0.128 C 
ATOM      7  C   UNL     1      -5.400  -3.675   0.481  0.00  0.00    +0.121 C 
ATOM      8  N   UNL     1      -4.285  -4.445  -0.091  0.00  0.00    -0.307 NA
ATOM      9  C   UNL     1      -3.029  -3.692  -0.143  0.00  0.00    +0.086 C 
ATOM     10  C   UNL     1      -3.164  -2.506  -1.117  0.00  0.00    +0.048 C 
ATOM     11  C   UNL     1      -4.442  -1.782  -0.754  0.00  0.00    -0.035 C 
ATOM     12  C   UNL     1      -4.681  -0.491  -0.496  0.00  0.00    +0.003 A 
ATOM     13  C   UNL     1      -3.884   0.734  -0.640  0.00  0.00    +0.055 A 
ATOM     14  H   UNL     1      -4.162  -5.320   0.396  0.00  0.00    +0.123 HD
ATOM     15  H   UNL     1      -7.501  -1.727   0.506  0.00  0.00    +0.160 HD
ENDROOT
BRANCH   7  16
ATOM     16  C   UNL     1      -6.603  -4.568   0.646  0.00  0.00    +0.101 A 
ATOM     17  C   UNL     1      -7.227  -4.670   1.854  0.00  0.00    +0.263 A 
ATOM     18  N   UNL     1      -8.320  -5.489   1.982  0.00  0.00    -0.274 N 
ATOM     19  C   UNL     1      -8.776  -6.187   0.926  0.00  0.00    +0.337 A 
ATOM     20  N   UNL     1      -8.174  -6.100  -0.274  0.00  0.00    -0.229 N 
ATOM     21  C   UNL     1      -7.101  -5.303  -0.444  0.00  0.00    +0.270 A 
ATOM     22  O   UNL     1      -6.562  -5.223  -1.535  0.00  0.00    -0.267 OA
ATOM     23  O   UNL     1      -9.747  -6.908   1.058  0.00  0.00    -0.246 OA
ATOM     24  O   UNL     1      -6.772  -3.972   2.916  0.00  0.00    -0.267 OA
ATOM     25  H   UNL     1      -8.768  -5.566   2.840  0.00  0.00    +0.173 HD
BRANCH  20  26
ATOM     26  C   UNL     1      -8.670  -6.839  -1.357  0.00  0.00    +0.054 A 
ATOM     27  C   UNL     1      -8.195  -8.121  -1.599  0.00  0.00    +0.028 A 
ATOM     28  C   UNL     1      -8.686  -8.848  -2.666  0.00  0.00    +0.022 A 
ATOM     29  C   UNL     1      -9.648  -8.299  -3.495  0.00  0.00    +0.041 A 
ATOM     30  C   UNL     1     -10.123  -7.021  -3.256  0.00  0.00    +0.022 A 
ATOM     31  C   UNL     1      -9.640  -6.293  -2.186  0.00  0.00    +0.028 A 
ATOM     32 CL   UNL     1     -10.262  -9.214  -4.836  0.00  0.00    -0.084 Cl
ENDBRANCH  20  26
ENDBRANCH   7  16
BRANCH   1  34
ATOM     33  C   UNL     1      -4.251   4.281  -0.002  0.00  0.00    +0.277 C 
ATOM     34  O   UNL     1      -3.656   3.046  -0.405  0.00  0.00    -0.495 OA
ENDBRANCH   1  34
TORSDOF 3
