REMARK  Name = ZINC14887414
REMARK  15 active torsions:
REMARK  status: ('A' for Active; 'I' for Inactive)
REMARK    1  A    between atoms: C_1  and  C_2
REMARK    2  A    between atoms: C_5  and  S_7
REMARK    3  A    between atoms: S_7  and  C_8
REMARK    4  A    between atoms: C_8  and  C_9
REMARK    5  A    between atoms: C_14  and  C_17
REMARK    6  A    between atoms: C_17  and  C_28
REMARK    7  A    between atoms: N_20  and  C_24
REMARK    8  A    between atoms: C_24  and  C_25
REMARK    9  A    between atoms: C_25  and  N_70
REMARK   10  A    between atoms: C_26  and  N_70
REMARK   11  A    between atoms: C_27  and  N_70
REMARK   12  A    between atoms: C_28  and  C_29
REMARK   13  A    between atoms: C_29  and  C_30
REMARK   14  A    between atoms: C_30  and  C_31
REMARK   15  A    between atoms: C_30  and  C_32
REMARK                            x       y       z     vdW  Elec       q    Type
REMARK                         _______ _______ _______ _____ _____    ______ ____
ROOT
ATOM      1  C   UNL     1       0.029   1.103   2.506  0.00  0.00    +0.115 C 
ATOM      2  C   UNL     1       1.465   1.585   2.470  0.00  0.00    +0.247 C 
ATOM      3  O   UNL     1       1.852   2.734   2.459  0.00  0.00    -0.273 OA
ATOM      4  N   UNL     1       2.221   0.466   2.451  0.00  0.00    -0.226 N 
ATOM      5  C   UNL     1       1.468  -0.640   2.473  0.00  0.00    +0.309 C 
ATOM      6  O   UNL     1       1.923  -1.767   2.463  0.00  0.00    -0.252 OA
ATOM      7  N   UNL     1       0.152  -0.365   2.506  0.00  0.00    -0.285 N 
ATOM      8  H   UNL     1      -0.574  -1.007   2.526  0.00  0.00    +0.151 HD
ENDROOT
BRANCH   1  14
ATOM      9  C   UNL     1      -2.747   0.505  -2.148  0.00  0.00    +0.226 C 
ATOM     10  O   UNL     1      -2.109   0.226  -3.141  0.00  0.00    -0.275 OA
ATOM     11  N   UNL     1      -2.163   1.185  -1.141  0.00  0.00    -0.301 N 
ATOM     12  C   UNL     1      -0.755   1.594  -1.232  0.00  0.00    +0.108 C 
ATOM     13  C   UNL     1      -0.013   1.086   0.008  0.00  0.00    +0.025 C 
ATOM     14  C   UNL     1      -0.730   1.580   1.266  0.00  0.00    +0.024 C 
ATOM     15  C   UNL     1      -2.156   1.023   1.294  0.00  0.00    +0.025 C 
ATOM     16  C   UNL     1      -2.923   1.530   0.068  0.00  0.00    +0.108 C 
BRANCH   9  17
ATOM     17  C   UNL     1      -4.192   0.092  -2.040  0.00  0.00    +0.172 C 
BRANCH  17  18
ATOM     18  S   UNL     1      -4.680  -0.796  -3.540  0.00  0.00    -0.089 S 
BRANCH  18  23
ATOM     19  C   UNL     1      -9.512  -2.706  -4.260  0.00  0.00    +0.066 C 
ATOM     20  C   UNL     1      -8.491  -1.971  -3.429  0.00  0.00    +0.047 A 
ATOM     21  C   UNL     1      -8.815  -1.481  -2.209  0.00  0.00    +0.070 A 
ATOM     22  S   UNL     1      -7.260  -0.749  -1.721  0.00  0.00    -0.069 S 
ATOM     23  C   UNL     1      -6.362  -1.149  -3.153  0.00  0.00    +0.135 A 
ATOM     24  N   UNL     1      -7.262  -1.791  -3.874  0.00  0.00    -0.238 NA
ENDBRANCH  18  23
ENDBRANCH  17  18
ENDBRANCH   9  17
ENDBRANCH   1  14
BRANCH   4  25
ATOM     25  C   UNL     1       3.686   0.463   2.413  0.00  0.00    +0.099 C 
BRANCH  25  26
ATOM     26  C   UNL     1       4.158   0.459   0.957  0.00  0.00    -0.060 C 
BRANCH  26  29
ATOM     27  C   UNL     1       6.165  -0.796   1.464  0.00  0.00    -0.097 C 
ATOM     28  C   UNL     1       6.117   0.692  -0.446  0.00  0.00    -0.097 C 
ATOM     29  N   UNL     1       5.636   0.478   0.935  0.00  0.00    +0.377 N 
ATOM     30  H   UNL     1       5.968   1.249   1.527  0.00  0.00    -0.083 HD
ENDBRANCH  26  29
ENDBRANCH  25  26
ENDBRANCH   4  25
BRANCH   1  31
ATOM     31  C   UNL     1      -0.669   1.585   3.780  0.00  0.00    +0.036 C 
BRANCH  31  32
ATOM     32  C   UNL     1       0.109   1.095   5.003  0.00  0.00    +0.005 C 
BRANCH  32  33
ATOM     33  C   UNL     1      -0.589   1.576   6.277  0.00  0.00    -0.017 C 
ATOM     34  C   UNL     1       0.116   0.984   7.499  0.00  0.00    +0.007 C 
ATOM     35  C   UNL     1      -0.530   3.104   6.345  0.00  0.00    +0.007 C 
ENDBRANCH  32  33
ENDBRANCH  31  32
ENDBRANCH   1  31
TORSDOF 10
