REMARK  Name = ZINC17216070
REMARK  11 active torsions:
REMARK  status: ('A' for Active; 'I' for Inactive)
REMARK    1  A    between atoms: C_1  and  C_2
REMARK    2  A    between atoms: C_4  and  C_19
REMARK    3  A    between atoms: C_6  and  S_9
REMARK    4  A    between atoms: C_7  and  C_8
REMARK    5  A    between atoms: S_9  and  N_12
REMARK    6  A    between atoms: C_15  and  C_18
REMARK    7  A    between atoms: C_19  and  O_21
REMARK    8  A    between atoms: O_21  and  C_22
REMARK    9  A    between atoms: C_22  and  C_24
REMARK   10  A    between atoms: C_22  and  C_25
REMARK   11  A    between atoms: N_30  and  C_31
REMARK                            x       y       z     vdW  Elec       q    Type
REMARK                         _______ _______ _______ _____ _____    ______ ____
ROOT
ATOM      1  C   UNL     1      -0.429   0.835  -0.760  0.00  0.00    +0.044 C 
ATOM      2  C   UNL     1      -0.301  -0.635  -0.457  0.00  0.00    -0.045 A 
ATOM      3  C   UNL     1      -0.273  -1.551  -1.489  0.00  0.00    +0.018 A 
ATOM      4  C   UNL     1      -0.153  -2.913  -1.206  0.00  0.00    +0.061 A 
ATOM      5  C   UNL     1      -0.063  -3.339   0.121  0.00  0.00    +0.043 A 
ATOM      6  C   UNL     1      -0.092  -2.413   1.143  0.00  0.00    +0.109 A 
ATOM      7  C   UNL     1      -0.205  -1.064   0.855  0.00  0.00    -0.021 A 
ATOM      8  C   UNL     1      -0.230  -0.058   1.977  0.00  0.00    +0.046 C 
ENDROOT
BRANCH   6   9
ATOM      9  S   UNL     1       0.022  -2.948   2.817  0.00  0.00    +0.061 S 
ATOM     10  O   UNL     1       0.077  -4.368   2.787  0.00  0.00    -0.153 OA
ATOM     11  O   UNL     1       1.034  -2.160   3.428  0.00  0.00    -0.153 OA
BRANCH   9  12
ATOM     12  N   UNL     1      -1.403  -2.546   3.558  0.00  0.00    -0.177 NA
ATOM     13  C   UNL     1      -1.514  -1.311   4.347  0.00  0.00    +0.110 C 
ATOM     14  C   UNL     1      -2.041  -1.663   5.742  0.00  0.00    +0.020 C 
ATOM     15  C   UNL     1      -3.352  -2.442   5.606  0.00  0.00    -0.012 C 
ATOM     16  C   UNL     1      -3.096  -3.744   4.844  0.00  0.00    +0.020 C 
ATOM     17  C   UNL     1      -2.583  -3.413   3.434  0.00  0.00    +0.110 C 
ATOM     18  C   UNL     1      -3.899  -2.765   6.998  0.00  0.00    +0.007 C 
ENDBRANCH   9  12
ENDBRANCH   6   9
BRANCH   4  19
ATOM     19  C   UNL     1      -0.123  -3.899  -2.306  0.00  0.00    +0.340 C 
ATOM     20  O   UNL     1      -0.019  -5.083  -2.057  0.00  0.00    -0.245 OA
BRANCH  19  21
ATOM     21  O   UNL     1      -0.211  -3.484  -3.585  0.00  0.00    -0.449 OA
BRANCH  21  22
ATOM     22  C   UNL     1      -0.175  -4.492  -4.597  0.00  0.00    +0.259 C 
ATOM     23  C   UNL     1      -1.599  -4.965  -4.896  0.00  0.00    +0.062 C 
BRANCH  22  24
ATOM     24  C   UNL     1       0.439  -3.924  -5.850  0.00  0.00    +0.261 C 
ATOM     25  O   UNL     1       0.810  -2.770  -5.874  0.00  0.00    -0.271 OA
ATOM     26  N   UNL     1       0.576  -4.698  -6.945  0.00  0.00    -0.237 N 
ATOM     27  C   UNL     1       1.126  -4.190  -8.065  0.00  0.00    +0.306 C 
ATOM     28  O   UNL     1       1.497  -3.033  -8.089  0.00  0.00    -0.252 OA
ATOM     29  N   UNL     1       1.263  -4.965  -9.160  0.00  0.00    -0.302 N 
ATOM     30  C   UNL     1       1.860  -4.412 -10.378  0.00  0.00    +0.129 C 
ATOM     31  H   UNL     1       0.280  -5.622  -6.926  0.00  0.00    +0.159 HD
ATOM     32  H   UNL     1       0.967  -5.888  -9.141  0.00  0.00    +0.150 HD
ENDBRANCH  22  24
ENDBRANCH  21  22
ENDBRANCH  19  21
ENDBRANCH   4  19
TORSDOF 6
