REMARK  Name = ZINC01627990
REMARK  8 active torsions:
REMARK  status: ('A' for Active; 'I' for Inactive)
REMARK    1  A    between atoms: C_1  and  S_2
REMARK    2  A    between atoms: S_2  and  C_3
REMARK    3  A    between atoms: C_11  and  N_24
REMARK    4  A    between atoms: C_17  and  O_23
REMARK    5  A    between atoms: C_18  and  O_22
REMARK    6  A    between atoms: C_19  and  O_21
REMARK    7  A    between atoms: C_25  and  C_27
REMARK    8  A    between atoms: C_31  and  N_33
REMARK                            x       y       z     vdW  Elec       q    Type
REMARK                         _______ _______ _______ _____ _____    ______ ____
ROOT
ATOM      1  C   UNL     1       5.423   0.377   4.514  0.00  0.00    +0.054 A 
ATOM      2  C   UNL     1       6.251  -0.601   4.048  0.00  0.00    +0.019 A 
ATOM      3  C   UNL     1       6.587  -0.885   2.778  0.00  0.00    +0.010 A 
ATOM      4  C   UNL     1       6.213  -0.346   1.572  0.00  0.00    -0.009 A 
ATOM      5  C   UNL     1       5.286   0.679   1.381  0.00  0.00    -0.016 A 
ATOM      6  C   UNL     1       4.680   1.371   2.362  0.00  0.00    +0.058 A 
ATOM      7  C   UNL     1       4.736   1.296   3.723  0.00  0.00    +0.193 A 
ATOM      8  O   UNL     1       4.099   2.148   4.329  0.00  0.00    -0.287 OA
ATOM      9  C   UNL     1       4.915   1.058  -0.038  0.00  0.00    +0.104 C 
ATOM     10  C   UNL     1       5.965   1.948  -0.674  0.00  0.00    +0.032 C 
ATOM     11  C   UNL     1       7.370   1.420  -0.400  0.00  0.00    +0.038 C 
ATOM     12  C   UNL     1       7.402  -0.072  -0.609  0.00  0.00    -0.032 A 
ATOM     13  C   UNL     1       6.858  -0.918   0.352  0.00  0.00    +0.031 A 
ATOM     14  C   UNL     1       6.896  -2.304   0.175  0.00  0.00    +0.170 A 
ATOM     15  C   UNL     1       7.474  -2.829  -0.974  0.00  0.00    +0.201 A 
ATOM     16  C   UNL     1       8.008  -1.976  -1.934  0.00  0.00    +0.162 A 
ATOM     17  C   UNL     1       7.971  -0.600  -1.749  0.00  0.00    +0.053 A 
ENDROOT
BRANCH   9  18
ATOM     18  N   UNL     1       3.634   1.769  -0.023  0.00  0.00    -0.304 N 
ATOM     19  C   UNL     1       2.478   1.075  -0.015  0.00  0.00    +0.245 C 
ATOM     20  O   UNL     1       2.499  -0.141  -0.022  0.00  0.00    -0.270 OA
ATOM     21  H   UNL     1       3.617   2.739  -0.018  0.00  0.00    +0.150 HD
BRANCH  19  22
ATOM     22  C   UNL     1       1.185   1.792   0.000  0.00  0.00    +0.039 A 
ATOM     23  C   UNL     1       1.158   3.187   0.008  0.00  0.00    +0.013 A 
ATOM     24  C   UNL     1      -0.052   3.850   0.023  0.00  0.00    +0.003 A 
ATOM     25  C   UNL     1      -1.236   3.134   0.031  0.00  0.00    +0.033 A 
ATOM     26  C   UNL     1      -1.216   1.751   0.017  0.00  0.00    +0.127 A 
ATOM     27  C   UNL     1      -0.013   1.076   0.008  0.00  0.00    +0.045 A 
BRANCH  26  28
ATOM     28  N   UNL     1      -2.488   0.994   0.019  0.00  0.00    +0.056 N 
ATOM     29  O   UNL     1      -2.471  -0.224   0.011  0.00  0.00    -0.126 OA
ATOM     30  O   UNL     1      -3.550   1.588   0.027  0.00  0.00    -0.126 OA
ENDBRANCH  26  28
ENDBRANCH  19  22
ENDBRANCH   9  18
BRANCH   1  32
ATOM     31  C   UNL     1       6.266  -0.875   6.796  0.00  0.00    +0.090 C 
ATOM     32  S   UNL     1       5.202   0.487   6.258  0.00  0.00    -0.125 S 
ENDBRANCH   1  32
BRANCH  16  33
ATOM     33  O   UNL     1       8.569  -2.493  -3.059  0.00  0.00    -0.503 OA
ATOM     34  H   UNL     1       9.515  -2.675  -2.979  0.00  0.00    +0.292 HD
ENDBRANCH  16  33
BRANCH  15  35
ATOM     35  O   UNL     1       7.519  -4.177  -1.159  0.00  0.00    -0.501 OA
ATOM     36  H   UNL     1       8.314  -4.597  -0.805  0.00  0.00    +0.292 HD
ENDBRANCH  15  35
BRANCH  14  37
ATOM     37  O   UNL     1       6.372  -3.130   1.118  0.00  0.00    -0.503 OA
ATOM     38  H   UNL     1       7.004  -3.400   1.799  0.00  0.00    +0.292 HD
ENDBRANCH  14  37
TORSDOF 7
