REMARK  Name = ZINC10650287
REMARK  6 active torsions:
REMARK  status: ('A' for Active; 'I' for Inactive)
REMARK    1  A    between atoms: C_1  and  C_2
REMARK    2  A    between atoms: C_2  and  C_4
REMARK    3  A    between atoms: C_2  and  O_10
REMARK    4  A    between atoms: O_10  and  C_11
REMARK    5  A    between atoms: C_11  and  C_13
REMARK    6  A    between atoms: N_16  and  C_18
REMARK                            x       y       z     vdW  Elec       q    Type
REMARK                         _______ _______ _______ _____ _____    ______ ____
ROOT
ATOM      1  C   UNL     1      -3.176   1.152   2.130  0.00  0.00    +0.173 A 
ATOM      2  C   UNL     1      -2.215   1.351   1.124  0.00  0.00    +0.008 A 
ATOM      3  C   UNL     1      -2.840   1.081  -0.049  0.00  0.00    +0.049 A 
ATOM      4  N   UNL     1      -4.113   0.737   0.249  0.00  0.00    -0.236 N 
ATOM      5  N   UNL     1      -4.293   0.783   1.524  0.00  0.00    -0.159 NA
ATOM      6  C   UNL     1      -2.174   1.172  -1.397  0.00  0.00    +0.056 C 
ATOM      7  C   UNL     1      -0.886   1.990  -1.245  0.00  0.00    +0.006 C 
ATOM      8  C   UNL     1      -0.065   1.444  -0.073  0.00  0.00    +0.005 C 
ATOM      9  C   UNL     1      -0.776   1.770   1.247  0.00  0.00    +0.039 C 
ENDROOT
BRANCH   4  10
ATOM     10  C   UNL     1      -5.091   0.382  -0.690  0.00  0.00    +0.066 A 
ATOM     11  C   UNL     1      -6.390   0.852  -0.553  0.00  0.00    +0.030 A 
ATOM     12  C   UNL     1      -7.351   0.506  -1.482  0.00  0.00    +0.040 A 
ATOM     13  C   UNL     1      -7.022  -0.320  -2.545  0.00  0.00    +0.124 A 
ATOM     14  C   UNL     1      -5.728  -0.794  -2.681  0.00  0.00    +0.040 A 
ATOM     15  C   UNL     1      -4.763  -0.446  -1.756  0.00  0.00    +0.030 A 
ATOM     16  F   UNL     1      -7.965  -0.662  -3.449  0.00  0.00    -0.205 F 
ENDBRANCH   4  10
BRANCH   1  17
ATOM     17  C   UNL     1      -2.978   1.321   3.582  0.00  0.00    +0.360 C 
ATOM     18  O   UNL     1      -1.895   1.665   4.011  0.00  0.00    -0.243 OA
BRANCH  17  19
ATOM     19  O   UNL     1      -3.998   1.093   4.432  0.00  0.00    -0.448 OA
BRANCH  19  21
ATOM     20  C   UNL     1      -3.240  -0.038   6.451  0.00  0.00    +0.062 C 
ATOM     21  C   UNL     1      -3.731   1.279   5.847  0.00  0.00    +0.259 C 
BRANCH  21  22
ATOM     22  C   UNL     1      -4.995   1.711   6.545  0.00  0.00    +0.261 C 
ATOM     23  O   UNL     1      -6.039   1.761   5.931  0.00  0.00    -0.271 OA
ATOM     24  N   UNL     1      -4.965   2.042   7.851  0.00  0.00    -0.237 N 
ATOM     25  C   UNL     1      -6.095   2.428   8.475  0.00  0.00    +0.303 C 
ATOM     26  O   UNL     1      -7.142   2.478   7.859  0.00  0.00    -0.253 OA
ATOM     27  N   UNL     1      -6.065   2.759   9.781  0.00  0.00    -0.313 N 
ATOM     28  H   UNL     1      -4.129   2.002   8.342  0.00  0.00    +0.159 HD
ATOM     29  H   UNL     1      -5.229   2.719  10.272  0.00  0.00    +0.146 HD
ATOM     30  H   UNL     1      -6.878   3.036  10.230  0.00  0.00    +0.146 HD
ENDBRANCH  21  22
ENDBRANCH  19  21
ENDBRANCH  17  19
ENDBRANCH   1  17
TORSDOF 5
