REMARK  Name = ZINC28058053
REMARK  6 active torsions:
REMARK  status: ('A' for Active; 'I' for Inactive)
REMARK    1  A    between atoms: C_1  and  C_2
REMARK    2  A    between atoms: N_4  and  C_5
REMARK    3  A    between atoms: C_8  and  C_11
REMARK    4  A    between atoms: C_28  and  C_30
REMARK    5  A    between atoms: C_35  and  O_36
REMARK    6  A    between atoms: O_36  and  C_37
REMARK                            x       y       z     vdW  Elec       q    Type
REMARK                         _______ _______ _______ _____ _____    ______ ____
ROOT
ATOM      1  C   UNL     1      -4.427   2.237   2.480  0.00  0.00    +0.234 C 
ATOM      2  C   UNL     1      -3.763   2.764   3.732  0.00  0.00    +0.026 C 
ATOM      3  C   UNL     1      -4.521   3.275   4.703  0.00  0.00    +0.050 C 
ATOM      4  C   UNL     1      -5.992   3.287   4.519  0.00  0.00    +0.038 A 
ATOM      5  C   UNL     1      -6.817   4.088   5.299  0.00  0.00    +0.013 A 
ATOM      6  C   UNL     1      -8.183   4.059   5.096  0.00  0.00    +0.001 A 
ATOM      7  C   UNL     1      -8.728   3.240   4.123  0.00  0.00    +0.004 A 
ATOM      8  C   UNL     1      -7.914   2.441   3.340  0.00  0.00    +0.046 A 
ATOM      9  C   UNL     1      -6.545   2.460   3.532  0.00  0.00    +0.131 A 
ATOM     10  O   UNL     1      -5.712   1.694   2.784  0.00  0.00    -0.479 OA
ATOM     11  N   UNL     1      -3.975   3.789   5.886  0.00  0.00    -0.282 N 
ATOM     12  C   UNL     1      -2.647   3.497   6.150  0.00  0.00    +0.240 A 
ATOM     13  N   UNL     1      -1.939   3.625   7.236  0.00  0.00    -0.092 NA
ATOM     14  N   UNL     1      -0.734   3.216   7.032  0.00  0.00    -0.021 NA
ATOM     15  N   UNL     1      -0.596   2.807   5.812  0.00  0.00    -0.042 NA
ATOM     16  N   UNL     1      -1.836   2.981   5.194  0.00  0.00    -0.201 N 
ATOM     17  C   UNL     1      -2.259   2.700   3.830  0.00  0.00    +0.177 C 
ATOM     18  H   UNL     1      -4.596   4.398   6.559  0.00  0.00    +0.155 HD
ENDROOT
BRANCH   1  22
ATOM     19  C   UNL     1      -4.877   5.429  -0.326  0.00  0.00    +0.033 A 
ATOM     20  C   UNL     1      -5.680   5.380   0.806  0.00  0.00    +0.024 A 
ATOM     21  C   UNL     1      -5.532   4.346   1.710  0.00  0.00    +0.009 A 
ATOM     22  C   UNL     1      -4.586   3.362   1.490  0.00  0.00    -0.003 A 
ATOM     23  C   UNL     1      -3.781   3.412   0.366  0.00  0.00    +0.009 A 
ATOM     24  C   UNL     1      -3.928   4.439  -0.545  0.00  0.00    +0.024 A 
BRANCH  19  28
ATOM     25  C   UNL     1      -5.661   8.796  -1.815  0.00  0.00    +0.109 C 
ATOM     26  C   UNL     1      -5.380   7.702  -0.817  0.00  0.00    +0.214 C 
ATOM     27  O   UNL     1      -5.474   7.927   0.371  0.00  0.00    -0.276 OA
ATOM     28  N   UNL     1      -5.024   6.475  -1.245  0.00  0.00    -0.286 N 
ATOM     29  H   UNL     1      -4.849   6.295  -2.316  0.00  0.00    +0.155 HD
ENDBRANCH  19  28
ENDBRANCH   1  22
BRANCH  17  30
ATOM     30  C   UNL     1      -1.654   3.720   2.899  0.00  0.00    +0.023 A 
ATOM     31  C   UNL     1      -1.939   5.062   3.064  0.00  0.00    +0.009 A 
ATOM     32  C   UNL     1      -1.385   5.998   2.211  0.00  0.00    +0.001 A 
ATOM     33  C   UNL     1      -0.543   5.594   1.191  0.00  0.00    +0.004 A 
ATOM     34  C   UNL     1      -0.250   4.254   1.025  0.00  0.00    +0.046 A 
ATOM     35  C   UNL     1      -0.810   3.312   1.876  0.00  0.00    +0.126 A 
BRANCH  35  36
ATOM     36  O   UNL     1      -0.528   1.993   1.712  0.00  0.00    -0.495 OA
ATOM     37  C   UNL     1       0.348   1.646   0.638  0.00  0.00    +0.277 C 
ENDBRANCH  35  36
ENDBRANCH  17  30
TORSDOF 4
