REMARK  Name = ZINC36026069
REMARK  15 active torsions:
REMARK  status: ('A' for Active; 'I' for Inactive)
REMARK    1  A    between atoms: C_1  and  C_2
REMARK    2  A    between atoms: C_2  and  O_3
REMARK    3  A    between atoms: O_3  and  C_4
REMARK    4  A    between atoms: C_4  and  C_6
REMARK    5  A    between atoms: C_7  and  C_25
REMARK    6  A    between atoms: N_8  and  C_22
REMARK    7  A    between atoms: C_12  and  C_14
REMARK    8  A    between atoms: C_17  and  O_20
REMARK    9  A    between atoms: O_20  and  C_21
REMARK   10  A    between atoms: C_22  and  C_23
REMARK   11  A    between atoms: C_25  and  N_26
REMARK   12  A    between atoms: N_34  and  C_35
REMARK   13  A    between atoms: C_35  and  C_36
REMARK   14  A    between atoms: C_35  and  C_37
REMARK   15  A    between atoms: C_35  and  C_38
REMARK                            x       y       z     vdW  Elec       q    Type
REMARK                         _______ _______ _______ _____ _____    ______ ____
ROOT
ATOM      1  C   UNL     1       1.309  -2.356  -2.557  0.00  0.00    +0.080 C 
ATOM      2  C   UNL     1       1.635  -3.665  -2.625  0.00  0.00    +0.041 C 
ATOM      3  N   UNL     1       2.387  -4.151  -3.655  0.00  0.00    -0.254 N 
ATOM      4  C   UNL     1       2.852  -3.395  -4.657  0.00  0.00    +0.307 C 
ATOM      5  O   UNL     1       3.514  -3.919  -5.531  0.00  0.00    -0.252 OA
ATOM      6  N   UNL     1       2.610  -2.071  -4.728  0.00  0.00    -0.288 N 
ATOM      7  C   UNL     1       1.801  -1.448  -3.666  0.00  0.00    +0.144 C 
ATOM      8  H   UNL     1       2.957  -1.541  -5.463  0.00  0.00    +0.151 HD
ENDROOT
BRANCH   7   9
ATOM      9  C   UNL     1       2.628  -0.355  -3.039  0.00  0.00    -0.022 A 
ATOM     10  C   UNL     1       3.942  -0.601  -2.684  0.00  0.00    +0.009 A 
ATOM     11  C   UNL     1       4.702   0.399  -2.109  0.00  0.00    +0.046 A 
ATOM     12  C   UNL     1       4.146   1.651  -1.888  0.00  0.00    +0.120 A 
ATOM     13  C   UNL     1       2.828   1.895  -2.245  0.00  0.00    +0.046 A 
ATOM     14  C   UNL     1       2.074   0.893  -2.825  0.00  0.00    +0.009 A 
BRANCH  12  15
ATOM     15  O   UNL     1       4.891   2.636  -1.322  0.00  0.00    -0.495 OA
ATOM     16  C   UNL     1       4.254   3.900  -1.124  0.00  0.00    +0.277 C 
ENDBRANCH  12  15
ENDBRANCH   7   9
BRANCH   1  17
ATOM     17  C   UNL     1       0.529  -1.850  -1.490  0.00  0.00    +0.339 C 
ATOM     18  O   UNL     1      -0.644  -1.582  -1.668  0.00  0.00    -0.245 OA
BRANCH  17  19
ATOM     19  O   UNL     1       1.087  -1.666  -0.276  0.00  0.00    -0.462 OA
BRANCH  19  21
ATOM     20  C   UNL     1       1.044  -1.011   2.050  0.00  0.00    +0.048 C 
ATOM     21  C   UNL     1       0.241  -1.152   0.755  0.00  0.00    +0.229 C 
ENDBRANCH  19  21
ENDBRANCH  17  19
ENDBRANCH   1  17
BRANCH   3  22
ATOM     22  C   UNL     1       2.703  -5.582  -3.665  0.00  0.00    +0.141 C 
BRANCH  22  23
ATOM     23  C   UNL     1       1.627  -6.329  -4.411  0.00  0.00    -0.015 C 
ATOM     24  C   UNL     1       1.946  -7.103  -5.419  0.00  0.00    +0.005 C 
ENDBRANCH  22  23
ENDBRANCH   3  22
BRANCH   2  25
ATOM     25  C   UNL     1       1.161  -4.603  -1.545  0.00  0.00    +0.136 C 
BRANCH  25  26
ATOM     26  N   UNL     1       0.186  -5.547  -2.109  0.00  0.00    -0.294 NA
ATOM     27  C   UNL     1      -1.034  -4.850  -2.537  0.00  0.00    +0.104 C 
ATOM     28  C   UNL     1      -1.945  -5.833  -3.281  0.00  0.00    +0.124 C 
ATOM     29  N   UNL     1      -2.167  -7.006  -2.421  0.00  0.00    -0.283 N 
ATOM     30  C   UNL     1      -0.993  -7.676  -1.842  0.00  0.00    +0.124 C 
ATOM     31  C   UNL     1      -0.120  -6.621  -1.155  0.00  0.00    +0.104 C 
ATOM     32  C   UNL     1      -3.413  -7.455  -2.172  0.00  0.00    +0.303 C 
ATOM     33  O   UNL     1      -4.366  -6.946  -2.731  0.00  0.00    -0.253 OA
ATOM     34  N   UNL     1      -3.604  -8.467  -1.303  0.00  0.00    -0.294 N 
ATOM     35  H   UNL     1      -2.841  -8.918  -0.910  0.00  0.00    +0.151 HD
BRANCH  34  36
ATOM     36  C   UNL     1      -4.963  -8.884  -0.951  0.00  0.00    +0.028 C 
ATOM     37  C   UNL     1      -5.700  -9.338  -2.213  0.00  0.00    +0.031 C 
ATOM     38  C   UNL     1      -4.899 -10.043   0.046  0.00  0.00    +0.031 C 
ATOM     39  C   UNL     1      -5.711  -7.709  -0.319  0.00  0.00    +0.031 C 
ENDBRANCH  34  36
ENDBRANCH  25  26
ENDBRANCH   2  25
TORSDOF 10
