REMARK  Name = ZINC01821941
REMARK  7 active torsions:
REMARK  status: ('A' for Active; 'I' for Inactive)
REMARK    1  A    between atoms: C_1  and  O_2
REMARK    2  A    between atoms: O_2  and  C_3
REMARK    3  A    between atoms: C_6  and  C_9
REMARK    4  A    between atoms: C_17  and  O_33
REMARK    5  A    between atoms: C_20  and  C_24
REMARK    6  A    between atoms: C_28  and  N_30
REMARK    7  A    between atoms: O_33  and  C_34
REMARK                            x       y       z     vdW  Elec       q    Type
REMARK                         _______ _______ _______ _____ _____    ______ ____
ROOT
ATOM      1  C   UNL     1      -4.957  -2.983   0.095  0.00  0.00    +0.047 C 
ATOM      2  C   UNL     1      -5.264  -4.301   0.140  0.00  0.00    +0.023 C 
ATOM      3  C   UNL     1      -6.768  -4.331   0.112  0.00  0.00    +0.138 C 
ATOM      4  C   UNL     1      -7.439  -5.330   0.995  0.00  0.00    +0.021 A 
ATOM      5  C   UNL     1      -6.929  -6.598   1.174  0.00  0.00    +0.009 A 
ATOM      6  C   UNL     1      -7.582  -7.503   1.991  0.00  0.00    +0.004 A 
ATOM      7  C   UNL     1      -8.752  -7.135   2.629  0.00  0.00    +0.049 A 
ATOM      8  C   UNL     1      -9.269  -5.863   2.456  0.00  0.00    +0.162 A 
ATOM      9  C   UNL     1      -8.612  -4.943   1.639  0.00  0.00    +0.170 A 
ATOM     10  O   UNL     1      -9.126  -3.690   1.511  0.00  0.00    -0.464 OA
ATOM     11  C   UNL     1      -8.489  -2.755   0.621  0.00  0.00    +0.294 C 
ATOM     12  N   UNL     1      -7.066  -2.986   0.695  0.00  0.00    -0.175 NA
ATOM     13  N   UNL     1      -6.149  -2.222   0.063  0.00  0.00    -0.273 N 
ATOM     14  H   UNL     1      -6.282  -1.344  -0.327  0.00  0.00    +0.167 HD
ENDROOT
BRANCH   1  18
ATOM     15  C   UNL     1      -1.019  -1.380   0.070  0.00  0.00    +0.120 A 
ATOM     16  C   UNL     1      -2.115  -0.527   0.035  0.00  0.00    +0.046 A 
ATOM     17  C   UNL     1      -3.393  -1.044   0.043  0.00  0.00    +0.013 A 
ATOM     18  C   UNL     1      -3.585  -2.425   0.086  0.00  0.00    -0.003 A 
ATOM     19  C   UNL     1      -2.483  -3.278   0.120  0.00  0.00    +0.013 A 
ATOM     20  C   UNL     1      -1.207  -2.755   0.107  0.00  0.00    +0.046 A 
BRANCH  15  22
ATOM     21  C   UNL     1       0.359   0.556   0.025  0.00  0.00    +0.277 C 
ATOM     22  O   UNL     1       0.239  -0.867   0.063  0.00  0.00    -0.495 OA
ENDBRANCH  15  22
ENDBRANCH   1  18
BRANCH  11  23
ATOM     23  C   UNL     1      -8.963  -2.985  -0.791  0.00  0.00    +0.011 A 
ATOM     24  C   UNL     1     -10.079  -3.764  -1.028  0.00  0.00    +0.009 A 
ATOM     25  C   UNL     1     -10.514  -3.975  -2.323  0.00  0.00    +0.003 A 
ATOM     26  C   UNL     1      -9.831  -3.405  -3.382  0.00  0.00    +0.033 A 
ATOM     27  C   UNL     1      -8.715  -2.625  -3.145  0.00  0.00    +0.127 A 
ATOM     28  C   UNL     1      -8.283  -2.411  -1.849  0.00  0.00    +0.041 A 
BRANCH  27  29
ATOM     29  N   UNL     1      -7.984  -2.015  -4.279  0.00  0.00    +0.056 N 
ATOM     30  O   UNL     1      -8.363  -2.200  -5.412  0.00  0.00    -0.126 OA
ATOM     31  O   UNL     1      -7.008  -1.333  -4.072  0.00  0.00    -0.126 OA
ENDBRANCH  27  29
ENDBRANCH  11  23
BRANCH   8  32
ATOM     32  O   UNL     1     -10.421  -5.508   3.085  0.00  0.00    -0.491 OA
ATOM     33  C   UNL     1     -11.042  -6.497   3.907  0.00  0.00    +0.277 C 
ENDBRANCH   8  32
TORSDOF 5
