REMARK  Name = ZINC35705525
REMARK  11 active torsions:
REMARK  status: ('A' for Active; 'I' for Inactive)
REMARK    1  A    between atoms: C_1  and  N_2
REMARK    2  A    between atoms: N_2  and  C_3
REMARK    3  A    between atoms: C_3  and  C_4
REMARK    4  A    between atoms: C_10  and  C_12
REMARK    5  A    between atoms: C_15  and  C_17
REMARK    6  A    between atoms: C_17  and  N_18
REMARK    7  A    between atoms: N_18  and  C_19
REMARK    8  A    between atoms: N_18  and  C_30
REMARK    9  A    between atoms: C_19  and  C_20
REMARK   10  A    between atoms: C_24  and  C_26
REMARK   11  A    between atoms: C_30  and  C_31
REMARK                            x       y       z     vdW  Elec       q    Type
REMARK                         _______ _______ _______ _____ _____    ______ ____
ROOT
ATOM      1  N   UNL     1       2.057   3.414  -4.419  0.00  0.00    +0.391 N 
ATOM      2  H   UNL     1       2.876   3.165  -3.885  0.00  0.00    -0.080 HD
ENDROOT
BRANCH   1   3
ATOM      3  C   UNL     1       0.883   2.726  -3.864  0.00  0.00    +0.020 C 
BRANCH   3   7
ATOM      4  C   UNL     1       1.755  -0.717  -3.151  0.00  0.00    +0.164 A 
ATOM      5  C   UNL     1       1.238  -0.850  -4.403  0.00  0.00    +0.230 A 
ATOM      6  O   UNL     1       0.865   0.376  -4.804  0.00  0.00    -0.449 OA
ATOM      7  C   UNL     1       1.145   1.242  -3.821  0.00  0.00    +0.179 A 
ATOM      8  N   UNL     1       1.674   0.601  -2.822  0.00  0.00    -0.210 NA
BRANCH   4  11
ATOM      9  C   UNL     1       2.528  -0.192  -0.491  0.00  0.00    +0.132 C 
ATOM     10  N   UNL     1       2.713  -1.532  -1.055  0.00  0.00    -0.295 N 
ATOM     11  C   UNL     1       2.295  -1.799  -2.308  0.00  0.00    +0.268 C 
ATOM     12  O   UNL     1       2.362  -2.933  -2.743  0.00  0.00    -0.268 OA
BRANCH  10  13
ATOM     13  C   UNL     1       3.354  -2.580  -0.257  0.00  0.00    +0.142 C 
BRANCH  13  14
ATOM     14  C   UNL     1       2.304  -3.329   0.523  0.00  0.00    -0.030 A 
ATOM     15  C   UNL     1       1.946  -2.900   1.788  0.00  0.00    +0.005 A 
ATOM     16  C   UNL     1       0.983  -3.587   2.504  0.00  0.00    +0.000 A 
ATOM     17  C   UNL     1       0.379  -4.703   1.955  0.00  0.00    +0.000 A 
ATOM     18  C   UNL     1       0.737  -5.131   0.690  0.00  0.00    +0.000 A 
ATOM     19  C   UNL     1       1.696  -4.441  -0.027  0.00  0.00    +0.005 A 
ENDBRANCH  13  14
ENDBRANCH  10  13
ENDBRANCH   4  11
ENDBRANCH   3   7
ENDBRANCH   1   3
BRANCH   1  20
ATOM     20  C   UNL     1       1.850   4.867  -4.350  0.00  0.00    -0.042 C 
BRANCH  20  21
ATOM     21  C   UNL     1       1.799   5.300  -2.907  0.00  0.00    -0.063 A 
ATOM     22  C   UNL     1       0.581   5.412  -2.262  0.00  0.00    +0.002 A 
ATOM     23  C   UNL     1       0.534   5.809  -0.939  0.00  0.00    +0.001 A 
ATOM     24  C   UNL     1       1.705   6.093  -0.261  0.00  0.00    +0.012 A 
ATOM     25  C   UNL     1       2.922   5.979  -0.905  0.00  0.00    +0.055 A 
ATOM     26  C   UNL     1       2.970   5.578  -2.228  0.00  0.00    +0.014 A 
BRANCH  25  27
ATOM     27  C   UNL     1       4.199   6.289  -0.166  0.00  0.00    +0.417 C 
ATOM     28  F   UNL     1       3.907   6.552   1.177  0.00  0.00    -0.166 F 
ATOM     29  F   UNL     1       5.064   5.193  -0.249  0.00  0.00    -0.166 F 
ATOM     30  F   UNL     1       4.809   7.410  -0.739  0.00  0.00    -0.166 F 
ENDBRANCH  25  27
ENDBRANCH  20  21
ENDBRANCH   1  20
BRANCH   1  31
ATOM     31  C   UNL     1       2.243   3.012  -5.819  0.00  0.00    -0.039 C 
BRANCH  31  32
ATOM     32  C   UNL     1       3.536   3.587  -6.339  0.00  0.00    -0.029 A 
ATOM     33  C   UNL     1       3.514   4.661  -7.208  0.00  0.00    +0.004 A 
ATOM     34  C   UNL     1       4.700   5.189  -7.685  0.00  0.00    +0.000 A 
ATOM     35  C   UNL     1       5.908   4.642  -7.293  0.00  0.00    +0.003 A 
ATOM     36  C   UNL     1       5.932   3.568  -6.425  0.00  0.00    +0.038 A 
ATOM     37  C   UNL     1       4.745   3.042  -5.942  0.00  0.00    +0.125 A 
ATOM     38  F   UNL     1       4.767   1.995  -5.089  0.00  0.00    -0.205 F 
ENDBRANCH  31  32
ENDBRANCH   1  31
TORSDOF 10
