REMARK  Name = ZINC35500784
REMARK  4 active torsions:
REMARK  status: ('A' for Active; 'I' for Inactive)
REMARK    1  A    between atoms: C_1  and  N_2
REMARK    2  A    between atoms: N_2  and  C_3
REMARK    3  A    between atoms: C_3  and  C_5
REMARK    4  A    between atoms: C_3  and  C_16
REMARK                            x       y       z     vdW  Elec       q    Type
REMARK                         _______ _______ _______ _____ _____    ______ ____
ROOT
ATOM      1  C   UNL     1       0.690  -0.478  -1.207  0.00  0.00    -0.009 C 
ENDROOT
BRANCH   1   2
ATOM      2  C   UNL     1       2.137  -0.060  -1.158  0.00  0.00    -0.054 A 
ATOM      3  C   UNL     1       2.834  -0.128   0.036  0.00  0.00    +0.004 A 
ATOM      4  C   UNL     1       4.160   0.253   0.089  0.00  0.00    +0.030 A 
ATOM      5  C   UNL     1       4.794   0.705  -1.058  0.00  0.00    +0.087 A 
ATOM      6  C   UNL     1       4.092   0.774  -2.262  0.00  0.00    +0.157 A 
ATOM      7  C   UNL     1       2.763   0.385  -2.306  0.00  0.00    +0.051 A 
ATOM      8  O   UNL     1       4.949   1.245  -3.201  0.00  0.00    -0.408 OA
ATOM      9  C   UNL     1       6.145   1.469  -2.633  0.00  0.00    +0.419 A 
ATOM     10  O   UNL     1       7.128   1.894  -3.210  0.00  0.00    -0.223 OA
ATOM     11  N   UNL     1       6.088   1.151  -1.325  0.00  0.00    -0.288 N 
ATOM     12  H   UNL     1       6.814   1.219  -0.686  0.00  0.00    +0.172 HD
ENDBRANCH   1   2
BRANCH   1  13
ATOM     13  C   UNL     1       0.603  -1.981  -1.277  0.00  0.00    -0.037 A 
ATOM     14  C   UNL     1       0.326  -2.711  -0.137  0.00  0.00    +0.023 A 
ATOM     15  C   UNL     1       0.247  -4.091  -0.202  0.00  0.00    +0.041 A 
ATOM     16  C   UNL     1       0.445  -4.739  -1.408  0.00  0.00    +0.021 A 
ATOM     17  C   UNL     1       0.721  -4.009  -2.548  0.00  0.00    +0.021 A 
ATOM     18  C   UNL     1       0.795  -2.628  -2.484  0.00  0.00    +0.043 A 
ATOM     19 CL   UNL     1       1.136  -1.710  -3.918  0.00  0.00    -0.083 Cl
ATOM     20 CL   UNL     1      -0.100  -5.009   1.230  0.00  0.00    -0.084 Cl
ENDBRANCH   1  13
BRANCH   1  22
ATOM     21  C   UNL     1      -0.018   1.465   0.010  0.00  0.00    -0.099 C 
ATOM     22  N   UNL     1       0.002  -0.004   0.002  0.00  0.00    +0.384 N 
ATOM     23  H   UNL     1       0.490  -0.338   0.820  0.00  0.00    -0.085 HD
ATOM     24  H   UNL     1      -0.945  -0.353   0.009  0.00  0.00    -0.085 HD
ENDBRANCH   1  22
TORSDOF 3
