REMARK  Name = ZINC09907629
REMARK  12 active torsions:
REMARK  status: ('A' for Active; 'I' for Inactive)
REMARK    1  A    between atoms: C_1  and  C_2
REMARK    2  A    between atoms: C_2  and  O_3
REMARK    3  A    between atoms: O_3  and  C_4
REMARK    4  A    between atoms: C_12  and  N_25
REMARK    5  A    between atoms: C_13  and  C_14
REMARK    6  A    between atoms: N_16  and  C_17
REMARK    7  A    between atoms: C_22  and  O_23
REMARK    8  A    between atoms: O_23  and  C_24
REMARK    9  A    between atoms: C_26  and  C_27
REMARK   10  A    between atoms: C_30  and  N_33
REMARK   11  A    between atoms: N_33  and  C_34
REMARK   12  A    between atoms: N_33  and  C_35
REMARK                            x       y       z     vdW  Elec       q    Type
REMARK                         _______ _______ _______ _____ _____    ______ ____
ROOT
ATOM      1  C   UNL     1       0.785  -1.753  -1.367  0.00  0.00    +0.403 C 
ATOM      2  O   UNL     1       0.323  -2.498  -0.525  0.00  0.00    -0.226 OA
ATOM      3  N   UNL     1       1.402  -2.262  -2.451  0.00  0.00    -0.262 N 
ATOM      4  C   UNL     1       1.528  -3.715  -2.648  0.00  0.00    +0.116 C 
ATOM      5  C   UNL     1       0.740  -4.135  -3.889  0.00  0.00    +0.056 C 
ATOM      6  C   UNL     1       1.091  -3.205  -5.048  0.00  0.00    -0.020 A 
ATOM      7  C   UNL     1       1.638  -1.986  -4.818  0.00  0.00    +0.013 A 
ATOM      8  S   UNL     1       1.860  -1.279  -6.427  0.00  0.00    -0.072 S 
ATOM      9  C   UNL     1       1.219  -2.639  -7.391  0.00  0.00    +0.114 A 
ATOM     10  C   UNL     1       0.870  -3.556  -6.393  0.00  0.00    +0.073 A 
ATOM     11  C   UNL     1       1.974  -1.385  -3.492  0.00  0.00    +0.153 C 
ENDROOT
BRANCH  10  12
ATOM     12  C   UNL     1       0.287  -4.856  -6.741  0.00  0.00    +0.251 C 
ATOM     13  O   UNL     1      -0.921  -4.976  -6.837  0.00  0.00    -0.270 OA
ATOM     14  N   UNL     1       1.088  -5.918  -6.956  0.00  0.00    -0.278 N 
ATOM     15  H   UNL     1       2.052  -5.809  -6.944  0.00  0.00    +0.155 HD
BRANCH  14  16
ATOM     16  C   UNL     1       0.529  -7.180  -7.196  0.00  0.00    +0.076 A 
ATOM     17  C   UNL     1      -0.660  -7.291  -7.902  0.00  0.00    +0.027 A 
ATOM     18  C   UNL     1      -1.210  -8.537  -8.138  0.00  0.00    +0.002 A 
ATOM     19  C   UNL     1      -0.577  -9.675  -7.672  0.00  0.00    +0.004 A 
ATOM     20  C   UNL     1       0.608  -9.572  -6.968  0.00  0.00    +0.047 A 
ATOM     21  C   UNL     1       1.169  -8.327  -6.732  0.00  0.00    +0.141 A 
BRANCH  21  22
ATOM     22  O   UNL     1       2.338  -8.225  -6.045  0.00  0.00    -0.493 OA
ATOM     23  C   UNL     1       2.937  -9.444  -5.600  0.00  0.00    +0.277 C 
ENDBRANCH  21  22
ENDBRANCH  14  16
ENDBRANCH  10  12
BRANCH   9  24
ATOM     24  N   UNL     1       1.100  -2.752  -8.731  0.00  0.00    -0.247 NA
ATOM     25  C   UNL     1       1.488  -1.773  -9.507  0.00  0.00    +0.120 C 
BRANCH  25  26
ATOM     26  C   UNL     1       1.359  -1.896 -10.964  0.00  0.00    -0.007 A 
ATOM     27  C   UNL     1       0.817  -3.059 -11.526  0.00  0.00    +0.011 A 
ATOM     28  C   UNL     1       0.698  -3.169 -12.887  0.00  0.00    +0.024 A 
ATOM     29  C   UNL     1       1.116  -2.127 -13.711  0.00  0.00    +0.029 A 
ATOM     30  C   UNL     1       1.656  -0.970 -13.158  0.00  0.00    +0.024 A 
ATOM     31  C   UNL     1       1.773  -0.848 -11.797  0.00  0.00    +0.011 A 
BRANCH  29  32
ATOM     32  N   UNL     1       0.994  -2.244 -15.092  0.00  0.00    -0.336 N 
ATOM     33  C   UNL     1       0.427  -3.461 -15.678  0.00  0.00    +0.129 C 
ATOM     34  C   UNL     1       1.433  -1.150 -15.962  0.00  0.00    +0.129 C 
ENDBRANCH  29  32
ENDBRANCH  25  26
ENDBRANCH   9  24
BRANCH   1  35
ATOM     35  O   UNL     1       0.680  -0.419  -1.216  0.00  0.00    -0.451 OA
BRANCH  35  37
ATOM     36  C   UNL     1      -0.008   1.580  -0.047  0.00  0.00    +0.048 C 
ATOM     37  C   UNL     1       0.013   0.050  -0.043  0.00  0.00    +0.230 C 
ENDBRANCH  35  37
ENDBRANCH   1  35
TORSDOF 8
