REMARK  Name = ZINC35664478
REMARK  12 active torsions:
REMARK  status: ('A' for Active; 'I' for Inactive)
REMARK    1  A    between atoms: C_1  and  C_2
REMARK    2  A    between atoms: C_2  and  N_3
REMARK    3  A    between atoms: C_4  and  C_24
REMARK    4  A    between atoms: C_5  and  C_19
REMARK    5  A    between atoms: C_6  and  C_11
REMARK    6  A    between atoms: C_13  and  C_18
REMARK    7  A    between atoms: C_16  and  C_17
REMARK    8  A    between atoms: C_19  and  O_21
REMARK    9  A    between atoms: O_21  and  C_22
REMARK   10  A    between atoms: C_22  and  C_23
REMARK   11  A    between atoms: C_24  and  N_25
REMARK   12  A    between atoms: C_31  and  C_33
REMARK                            x       y       z     vdW  Elec       q    Type
REMARK                         _______ _______ _______ _____ _____    ______ ____
ROOT
ATOM      1  N   UNL     1       1.570  -0.726  -1.741  0.00  0.00    -0.258 N 
ATOM      2  C   UNL     1       0.431  -0.645  -2.490  0.00  0.00    +0.041 C 
ATOM      3  C   UNL     1       0.434  -0.967  -3.801  0.00  0.00    +0.080 C 
ATOM      4  C   UNL     1       1.744  -1.420  -4.413  0.00  0.00    +0.144 C 
ATOM      5  N   UNL     1       2.914  -1.472  -3.521  0.00  0.00    -0.288 N 
ATOM      6  C   UNL     1       2.754  -1.114  -2.231  0.00  0.00    +0.307 C 
ATOM      7  O   UNL     1       3.715  -1.150  -1.487  0.00  0.00    -0.252 OA
ATOM      8  H   UNL     1       3.780  -1.754  -3.854  0.00  0.00    +0.151 HD
ENDROOT
BRANCH   4   9
ATOM      9  C   UNL     1       2.071  -0.489  -5.553  0.00  0.00    -0.019 A 
ATOM     10  C   UNL     1       2.897   0.599  -5.341  0.00  0.00    +0.009 A 
ATOM     11  C   UNL     1       3.197   1.452  -6.386  0.00  0.00    -0.050 A 
ATOM     12  C   UNL     1       2.671   1.217  -7.643  0.00  0.00    +0.003 A 
ATOM     13  C   UNL     1       1.846   0.129  -7.855  0.00  0.00    +0.004 A 
ATOM     14  C   UNL     1       1.549  -0.727  -6.810  0.00  0.00    -0.045 A 
ATOM     15  C   UNL     1       0.653  -1.916  -7.042  0.00  0.00    +0.044 C 
ATOM     16  C   UNL     1       4.097   2.639  -6.156  0.00  0.00    +0.044 C 
ENDBRANCH   4   9
BRANCH   1  18
ATOM     17  C   UNL     1       1.778   1.134  -0.167  0.00  0.00    +0.025 C 
ATOM     18  C   UNL     1       1.494  -0.361  -0.325  0.00  0.00    +0.111 C 
ENDBRANCH   1  18
BRANCH   3  19
ATOM     19  C   UNL     1      -0.746  -0.884  -4.578  0.00  0.00    +0.339 C 
ATOM     20  O   UNL     1      -1.420  -1.879  -4.768  0.00  0.00    -0.245 OA
BRANCH  19  21
ATOM     21  O   UNL     1      -1.124   0.298  -5.107  0.00  0.00    -0.462 OA
BRANCH  21  22
ATOM     22  C   UNL     1      -2.380   0.332  -5.788  0.00  0.00    +0.229 C 
ATOM     23  C   UNL     1      -2.580   1.711  -6.420  0.00  0.00    +0.048 C 
ENDBRANCH  21  22
ENDBRANCH  19  21
ENDBRANCH   3  19
BRANCH   2  24
ATOM     24  C   UNL     1      -0.851  -0.189  -1.841  0.00  0.00    +0.136 C 
BRANCH  24  25
ATOM     25  N   UNL     1      -1.277  -1.183  -0.847  0.00  0.00    -0.294 NA
ATOM     26  C   UNL     1      -1.635  -2.453  -1.492  0.00  0.00    +0.104 C 
ATOM     27  C   UNL     1      -1.898  -3.513  -0.417  0.00  0.00    +0.123 C 
ATOM     28  N   UNL     1      -2.901  -2.987   0.522  0.00  0.00    -0.295 N 
ATOM     29  C   UNL     1      -2.678  -1.656   1.105  0.00  0.00    +0.123 C 
ATOM     30  C   UNL     1      -2.385  -0.669  -0.030  0.00  0.00    +0.104 C 
ATOM     31  C   UNL     1      -3.995  -3.707   0.839  0.00  0.00    +0.247 C 
ATOM     32  O   UNL     1      -4.865  -3.217   1.534  0.00  0.00    -0.270 OA
BRANCH  31  33
ATOM     33  C   UNL     1      -4.139  -5.091   0.342  0.00  0.00    +0.037 A 
ATOM     34  C   UNL     1      -3.023  -5.927   0.266  0.00  0.00    +0.016 A 
ATOM     35  C   UNL     1      -3.163  -7.217  -0.199  0.00  0.00    +0.039 A 
ATOM     36  C   UNL     1      -4.408  -7.686  -0.589  0.00  0.00    +0.123 A 
ATOM     37  C   UNL     1      -5.519  -6.860  -0.515  0.00  0.00    +0.039 A 
ATOM     38  C   UNL     1      -5.392  -5.569  -0.046  0.00  0.00    +0.016 A 
ATOM     39  F   UNL     1      -4.539  -8.951  -1.044  0.00  0.00    -0.205 F 
ENDBRANCH  31  33
ENDBRANCH  24  25
ENDBRANCH   2  24
TORSDOF 8
