REMARK  Name = ZINC35870291
REMARK  6 active torsions:
REMARK  status: ('A' for Active; 'I' for Inactive)
REMARK    1  A    between atoms: C_1  and  C_2
REMARK    2  A    between atoms: C_2  and  C_4
REMARK    3  A    between atoms: C_2  and  N_10
REMARK    4  A    between atoms: C_11  and  C_13
REMARK    5  A    between atoms: C_18  and  N_36
REMARK    6  A    between atoms: N_26  and  C_29
REMARK                            x       y       z     vdW  Elec       q    Type
REMARK                         _______ _______ _______ _____ _____    ______ ____
ROOT
ATOM      1  C   UNL     1      -3.444  -1.143  -1.128  0.00  0.00    +0.101 C 
ATOM      2  C   UNL     1      -3.466  -2.541  -0.512  0.00  0.00    +0.051 C 
ATOM      3  C   UNL     1      -2.681  -3.473  -1.399  0.00  0.00    -0.023 A 
ATOM      4  C   UNL     1      -2.041  -4.566  -0.843  0.00  0.00    +0.038 A 
ATOM      5  C   UNL     1      -1.309  -5.420  -1.647  0.00  0.00    +0.127 A 
ATOM      6  C   UNL     1      -1.215  -5.184  -3.006  0.00  0.00    +0.034 A 
ATOM      7  C   UNL     1      -1.855  -4.096  -3.565  0.00  0.00    +0.025 A 
ATOM      8  C   UNL     1      -2.597  -3.237  -2.759  0.00  0.00    +0.033 A 
ATOM      9  N   UNL     1      -3.259  -2.154  -3.362  0.00  0.00    -0.323 N 
ATOM     10  C   UNL     1      -3.993  -1.195  -2.558  0.00  0.00    +0.103 C 
ATOM     11  C   UNL     1      -3.970   0.212  -3.130  0.00  0.00    +0.128 C 
ATOM     12  N   UNL     1      -3.929   0.235  -4.579  0.00  0.00    -0.327 N 
ATOM     13  C   UNL     1      -3.109  -0.683  -5.352  0.00  0.00    +0.124 C 
ATOM     14  C   UNL     1      -3.209  -2.091  -4.822  0.00  0.00    +0.124 C 
ENDROOT
BRANCH  12  15
ATOM     15  C   UNL     1      -4.708   1.176  -5.258  0.00  0.00    +0.030 A 
ATOM     16  C   UNL     1      -4.606   1.298  -6.638  0.00  0.00    +0.026 A 
ATOM     17  C   UNL     1      -5.377   2.227  -7.308  0.00  0.00    +0.040 A 
ATOM     18  C   UNL     1      -6.253   3.037  -6.604  0.00  0.00    +0.124 A 
ATOM     19  C   UNL     1      -6.357   2.917  -5.229  0.00  0.00    +0.040 A 
ATOM     20  C   UNL     1      -5.591   1.986  -4.556  0.00  0.00    +0.026 A 
ATOM     21  F   UNL     1      -7.006   3.946  -7.261  0.00  0.00    -0.205 F 
ENDBRANCH  12  15
BRANCH   1  23
ATOM     22  N   UNL     1      -1.339  -0.495  -0.004  0.00  0.00    -0.308 N 
ATOM     23  C   UNL     1      -2.028  -0.630  -1.154  0.00  0.00    +0.219 C 
ATOM     24  O   UNL     1      -1.507  -0.339  -2.211  0.00  0.00    -0.275 OA
ATOM     25  H   UNL     1      -1.755  -0.728   0.841  0.00  0.00    +0.149 HD
BRANCH  22  27
ATOM     26  C   UNL     1       0.027   1.534  -0.031  0.00  0.00    +0.033 C 
ATOM     27  C   UNL     1       0.039   0.004  -0.029  0.00  0.00    +0.100 C 
BRANCH  27  28
ATOM     28  C   UNL     1       0.775  -0.492   1.189  0.00  0.00    -0.027 A 
ATOM     29  C   UNL     1       0.134  -0.534   2.413  0.00  0.00    +0.005 A 
ATOM     30  C   UNL     1       0.809  -0.989   3.531  0.00  0.00    +0.000 A 
ATOM     31  C   UNL     1       2.125  -1.401   3.424  0.00  0.00    +0.000 A 
ATOM     32  C   UNL     1       2.765  -1.358   2.199  0.00  0.00    +0.000 A 
ATOM     33  C   UNL     1       2.088  -0.908   1.081  0.00  0.00    +0.005 A 
ENDBRANCH  27  28
ENDBRANCH  22  27
ENDBRANCH   1  23
BRANCH   5  34
ATOM     34  N   UNL     1      -0.625  -6.590  -1.051  0.00  0.00    +0.056 N 
ATOM     35  O   UNL     1      -0.707  -6.798   0.137  0.00  0.00    -0.126 OA
ATOM     36  O   UNL     1       0.015  -7.338  -1.753  0.00  0.00    -0.126 OA
ENDBRANCH   5  34
TORSDOF 5
