REMARK  Name = ZINC39520704
REMARK  7 active torsions:
REMARK  status: ('A' for Active; 'I' for Inactive)
REMARK    1  A    between atoms: C_4  and  C_7
REMARK    2  A    between atoms: C_7  and  N_8
REMARK    3  A    between atoms: C_9  and  C_31
REMARK    4  A    between atoms: C_18  and  S_21
REMARK    5  A    between atoms: S_21  and  O_24
REMARK    6  A    between atoms: O_24  and  C_25
REMARK    7  A    between atoms: C_36  and  O_37
REMARK                            x       y       z     vdW  Elec       q    Type
REMARK                         _______ _______ _______ _____ _____    ______ ____
ROOT
ATOM      1  N   UNL     1       3.995  -1.376   0.870  0.00  0.00    +0.391 N 
ATOM      2  C   UNL     1       3.359  -1.798   2.123  0.00  0.00    -0.033 C 
ATOM      3  C   UNL     1       3.297  -3.326   2.179  0.00  0.00    -0.011 C 
ATOM      4  C   UNL     1       4.719  -3.892   2.110  0.00  0.00    -0.003 C 
ATOM      5  C   UNL     1       5.398  -3.385   0.834  0.00  0.00    -0.012 C 
ATOM      6  C   UNL     1       5.382  -1.854   0.828  0.00  0.00    -0.062 C 
ATOM      7  C   UNL     1       6.060  -1.345  -0.445  0.00  0.00    -0.012 C 
ATOM      8  C   UNL     1       6.050   0.185  -0.452  0.00  0.00    +0.001 C 
ATOM      9  C   UNL     1       6.808   0.706   0.771  0.00  0.00    +0.030 C 
ATOM     10  C   UNL     1       6.130   0.197   2.045  0.00  0.00    +0.170 C 
ATOM     11  C   UNL     1       6.139  -1.333   2.052  0.00  0.00    +0.018 C 
ATOM     12  H   UNL     1       3.986  -0.368   0.814  0.00  0.00    -0.080 HD
ENDROOT
BRANCH   2  13
ATOM     13  C   UNL     1       1.962  -1.237   2.191  0.00  0.00    -0.019 A 
ATOM     14  C   UNL     1       0.873  -2.074   2.042  0.00  0.00    +0.005 A 
ATOM     15  C   UNL     1      -0.409  -1.560   2.103  0.00  0.00    +0.000 A 
ATOM     16  C   UNL     1      -0.604  -0.208   2.316  0.00  0.00    +0.004 A 
ATOM     17  C   UNL     1       0.481   0.633   2.466  0.00  0.00    +0.045 A 
ATOM     18  C   UNL     1       1.769   0.119   2.410  0.00  0.00    +0.118 A 
BRANCH  18  19
ATOM     19  O   UNL     1       2.838   0.943   2.564  0.00  0.00    -0.507 OA
ATOM     20  H   UNL     1       3.199   1.278   1.732  0.00  0.00    +0.292 HD
ENDBRANCH  18  19
ENDBRANCH   2  13
BRANCH  10  21
ATOM     21  S   UNL     1       7.027   0.814   3.495  0.00  0.00    +0.123 S 
ATOM     22  O   UNL     1       6.312   0.501   4.683  0.00  0.00    -0.136 OA
ATOM     23  O   UNL     1       8.410   0.509   3.381  0.00  0.00    -0.136 OA
BRANCH  21  24
ATOM     24  O   UNL     1       6.953   2.330   3.385  0.00  0.00    -0.346 OA
BRANCH  24  25
ATOM     25  C   UNL     1       5.738   2.849   3.706  0.00  0.00    +0.156 A 
ATOM     26  C   UNL     1       4.771   3.009   2.724  0.00  0.00    +0.048 A 
ATOM     27  C   UNL     1       3.537   3.536   3.053  0.00  0.00    +0.004 A 
ATOM     28  C   UNL     1       3.266   3.904   4.357  0.00  0.00    +0.000 A 
ATOM     29  C   UNL     1       4.229   3.746   5.337  0.00  0.00    +0.004 A 
ATOM     30  C   UNL     1       5.462   3.214   5.015  0.00  0.00    +0.048 A 
ENDBRANCH  24  25
ENDBRANCH  21  24
ENDBRANCH  10  21
BRANCH   1  31
ATOM     31  C   UNL     1       3.252  -1.935  -0.267  0.00  0.00    -0.041 C 
BRANCH  31  35
ATOM     32  C   UNL     1      -0.336   0.305  -0.864  0.00  0.00    +0.000 A 
ATOM     33  C   UNL     1       0.873   0.961  -0.726  0.00  0.00    +0.000 A 
ATOM     34  C   UNL     1       2.034   0.236  -0.532  0.00  0.00    +0.002 A 
ATOM     35  C   UNL     1       1.986  -1.145  -0.477  0.00  0.00    -0.064 A 
ATOM     36  C   UNL     1       0.777  -1.800  -0.615  0.00  0.00    +0.002 A 
ATOM     37  C   UNL     1      -0.384  -1.075  -0.809  0.00  0.00    +0.000 A 
ENDBRANCH  31  35
ENDBRANCH   1  31
TORSDOF 7
