REMARK  Name = ZINC38831551
REMARK  11 active torsions:
REMARK  status: ('A' for Active; 'I' for Inactive)
REMARK    1  A    between atoms: C_1  and  C_2
REMARK    2  A    between atoms: C_2  and  S_3
REMARK    3  A    between atoms: S_3  and  N_6
REMARK    4  A    between atoms: N_9  and  C_12
REMARK    5  A    between atoms: C_12  and  C_13
REMARK    6  A    between atoms: C_16  and  C_19
REMARK    7  A    between atoms: N_21  and  C_22
REMARK    8  A    between atoms: C_22  and  C_23
REMARK    9  A    between atoms: C_26  and  C_29
REMARK   10  A    between atoms: C_29  and  N_30
REMARK   11  A    between atoms: C_34  and  C_37
REMARK                            x       y       z     vdW  Elec       q    Type
REMARK                         _______ _______ _______ _____ _____    ______ ____
ROOT
ATOM      1  C   UNL     1      -0.148  -9.553   4.240  0.00  0.00    +0.244 C 
ATOM      2  O   UNL     1       0.332  -9.350   5.338  0.00  0.00    -0.270 OA
ATOM      3  N   UNL     1      -0.888 -10.657   4.021  0.00  0.00    -0.307 N 
ATOM      4  H   UNL     1      -1.271 -10.819   3.144  0.00  0.00    +0.149 HD
ENDROOT
BRANCH   1   8
ATOM      5  C   UNL     1       0.513  -6.780   1.091  0.00  0.00    -0.033 A 
ATOM      6  C   UNL     1       1.060  -6.546   2.340  0.00  0.00    +0.005 A 
ATOM      7  C   UNL     1       0.849  -7.443   3.367  0.00  0.00    +0.013 A 
ATOM      8  C   UNL     1       0.082  -8.587   3.144  0.00  0.00    +0.037 A 
ATOM      9  C   UNL     1      -0.467  -8.817   1.881  0.00  0.00    +0.013 A 
ATOM     10  C   UNL     1      -0.253  -7.910   0.864  0.00  0.00    +0.005 A 
BRANCH   5  11
ATOM     11  C   UNL     1       0.748  -5.796  -0.027  0.00  0.00    +0.119 C 
BRANCH  11  15
ATOM     12  N   UNL     1      -1.545  -2.281   0.005  0.00  0.00    -0.179 NA
ATOM     13  C   UNL     1      -1.481  -3.025  -1.262  0.00  0.00    +0.124 C 
ATOM     14  C   UNL     1      -0.257  -3.946  -1.224  0.00  0.00    +0.102 C 
ATOM     15  N   UNL     1      -0.314  -4.780  -0.016  0.00  0.00    -0.296 NA
ATOM     16  C   UNL     1      -0.245  -3.961   1.201  0.00  0.00    +0.102 C 
ATOM     17  C   UNL     1      -1.463  -3.039   1.262  0.00  0.00    +0.124 C 
BRANCH  12  18
ATOM     18  S   UNL     1      -1.700  -0.632   0.015  0.00  0.00    +0.032 S 
ATOM     19  O   UNL     1      -2.322  -0.334   1.257  0.00  0.00    -0.158 OA
ATOM     20  O   UNL     1      -2.346  -0.321  -1.212  0.00  0.00    -0.158 OA
BRANCH  18  22
ATOM     21  C   UNL     1      -0.019   1.526   0.010  0.00  0.00    +0.029 C 
ATOM     22  C   UNL     1       0.002  -0.004   0.002  0.00  0.00    +0.182 C 
ENDBRANCH  18  22
ENDBRANCH  12  18
ENDBRANCH  11  15
ENDBRANCH   5  11
ENDBRANCH   1   8
BRANCH   3  23
ATOM     23  C   UNL     1      -1.116 -11.614   5.107  0.00  0.00    +0.139 C 
BRANCH  23  24
ATOM     24  C   UNL     1      -1.969 -12.750   4.605  0.00  0.00    -0.030 A 
ATOM     25  C   UNL     1      -3.346 -12.671   4.689  0.00  0.00    +0.005 A 
ATOM     26  C   UNL     1      -4.128 -13.714   4.229  0.00  0.00    +0.002 A 
ATOM     27  C   UNL     1      -3.533 -14.835   3.683  0.00  0.00    -0.064 A 
ATOM     28  C   UNL     1      -2.155 -14.914   3.598  0.00  0.00    +0.002 A 
ATOM     29  C   UNL     1      -1.373 -13.870   4.054  0.00  0.00    +0.005 A 
BRANCH  27  30
ATOM     30  C   UNL     1      -4.385 -15.973   3.182  0.00  0.00    -0.043 C 
BRANCH  30  31
ATOM     31  N   UNL     1      -4.707 -15.756   1.765  0.00  0.00    +0.383 N 
ATOM     32  C   UNL     1      -5.534 -14.551   1.631  0.00  0.00    -0.078 C 
ATOM     33  C   UNL     1      -5.805 -14.275   0.151  0.00  0.00    -0.018 C 
ATOM     34  C   UNL     1      -6.540 -15.471  -0.460  0.00  0.00    -0.001 C 
ATOM     35  C   UNL     1      -5.701 -16.735  -0.249  0.00  0.00    -0.031 C 
ATOM     36  C   UNL     1      -5.435 -16.920   1.246  0.00  0.00    -0.075 C 
ATOM     37  C   UNL     1      -6.462 -17.948  -0.787  0.00  0.00    +0.005 C 
ATOM     38  H   UNL     1      -3.852 -15.634   1.242  0.00  0.00    -0.081 HD
ENDBRANCH  30  31
ENDBRANCH  27  30
ENDBRANCH  23  24
ENDBRANCH   3  23
TORSDOF 9
