REMARK  Name = ZINC02669778
REMARK  8 active torsions:
REMARK  status: ('A' for Active; 'I' for Inactive)
REMARK    1  A    between atoms: C_1  and  O_2
REMARK    2  A    between atoms: O_2  and  C_3
REMARK    3  A    between atoms: C_3  and  C_5
REMARK    4  A    between atoms: C_9  and  N_10
REMARK    5  A    between atoms: C_11  and  C_13
REMARK    6  A    between atoms: C_13  and  C_28
REMARK    7  A    between atoms: C_14  and  C_15
REMARK    8  A    between atoms: C_18  and  C_20
REMARK                            x       y       z     vdW  Elec       q    Type
REMARK                         _______ _______ _______ _____ _____    ______ ____
ROOT
ATOM      1  N   UNL     1      -2.223   7.539  -3.907  0.00  0.00    -0.275 N 
ATOM      2  C   UNL     1      -1.356   7.723  -2.891  0.00  0.00    +0.259 C 
ATOM      3  O   UNL     1      -1.065   8.850  -2.535  0.00  0.00    -0.269 OA
ATOM      4  H   UNL     1      -2.454   6.641  -4.191  0.00  0.00    +0.156 HD
ENDROOT
BRANCH   1   9
ATOM      5  C   UNL     1      -3.681   8.647  -5.604  0.00  0.00    +0.091 A 
ATOM      6  C   UNL     1      -4.122   9.944  -6.092  0.00  0.00    -0.021 A 
ATOM      7  C   UNL     1      -3.590  11.009  -5.455  0.00  0.00    -0.004 A 
ATOM      8  S   UNL     1      -2.526  10.316  -4.222  0.00  0.00    -0.077 S 
ATOM      9  C   UNL     1      -2.782   8.633  -4.545  0.00  0.00    +0.087 A 
ATOM     10  C   UNL     1      -3.852  12.456  -5.742  0.00  0.00    +0.043 C 
ATOM     11  C   UNL     1      -4.530  12.562  -7.115  0.00  0.00    +0.005 C 
ATOM     12  C   UNL     1      -5.675  11.546  -7.180  0.00  0.00    +0.005 C 
ATOM     13  C   UNL     1      -5.108  10.127  -7.240  0.00  0.00    +0.037 C 
BRANCH   5  14
ATOM     14  C   UNL     1      -4.169   7.404  -6.204  0.00  0.00    +0.342 C 
ATOM     15  O   UNL     1      -5.175   6.874  -5.772  0.00  0.00    -0.245 OA
BRANCH  14  17
ATOM     16  C   UNL     1      -4.044   5.613  -7.780  0.00  0.00    +0.280 C 
ATOM     17  O   UNL     1      -3.503   6.846  -7.236  0.00  0.00    -0.464 OA
ENDBRANCH  14  17
ENDBRANCH   5  14
ENDBRANCH   1   9
BRANCH   2  18
ATOM     18  C   UNL     1      -0.763   6.564  -2.215  0.00  0.00    +0.117 C 
ATOM     19  C   UNL     1       0.130   6.753  -1.168  0.00  0.00    +0.070 C 
BRANCH  19  20
ATOM     20  C   UNL     1       0.698   5.644  -0.521  0.00  0.00    +0.130 A 
ATOM     21  C   UNL     1       1.599   5.690   0.533  0.00  0.00    +0.050 A 
ATOM     22  C   UNL     1       1.895   4.370   0.869  0.00  0.00    +0.050 A 
ATOM     23  C   UNL     1       1.176   3.564   0.009  0.00  0.00    +0.137 A 
ATOM     24  O   UNL     1       0.461   4.347  -0.816  0.00  0.00    -0.455 OA
BRANCH  23  25
ATOM     25  C   UNL     1       1.187   2.089   0.002  0.00  0.00    +0.037 A 
ATOM     26  C   UNL     1       2.400   1.395  -0.013  0.00  0.00    +0.013 A 
ATOM     27  C   UNL     1       2.403   0.017  -0.020  0.00  0.00    +0.002 A 
ATOM     28  C   UNL     1       1.209  -0.682  -0.013  0.00  0.00    +0.021 A 
ATOM     29  C   UNL     1       0.002  -0.004   0.002  0.00  0.00    +0.060 A 
ATOM     30  C   UNL     1      -0.017   1.378   0.010  0.00  0.00    +0.070 A 
ATOM     31 CL   UNL     1      -1.530   2.228   0.021  0.00  0.00    -0.081 Cl
ATOM     32 CL   UNL     1      -1.490  -0.891   0.011  0.00  0.00    -0.082 Cl
ENDBRANCH  23  25
ENDBRANCH  19  20
BRANCH  18  33
ATOM     33  C   UNL     1      -1.105   5.238  -2.634  0.00  0.00    +0.104 C 
ATOM     34  N   UNL     1      -1.376   4.186  -2.966  0.00  0.00    -0.191 NA
ENDBRANCH  18  33
ENDBRANCH   2  18
TORSDOF 7
