REMARK  Name = ZINC33470185
REMARK  11 active torsions:
REMARK  status: ('A' for Active; 'I' for Inactive)
REMARK    1  A    between atoms: C_1  and  C_2
REMARK    2  A    between atoms: C_2  and  C_3
REMARK    3  A    between atoms: C_3  and  C_5
REMARK    4  A    between atoms: C_3  and  N_6
REMARK    5  A    between atoms: C_10  and  C_11
REMARK    6  A    between atoms: C_12  and  C_29
REMARK    7  A    between atoms: C_13  and  C_27
REMARK    8  A    between atoms: N_16  and  C_25
REMARK    9  A    between atoms: C_17  and  N_18
REMARK   10  A    between atoms: C_21  and  C_24
REMARK   11  A    between atoms: C_25  and  C_26
REMARK                            x       y       z     vdW  Elec       q    Type
REMARK                         _______ _______ _______ _____ _____    ______ ____
ROOT
ATOM      1  C   UNL     1      -0.974   1.093   2.178  0.00  0.00    +0.019 A 
ATOM      2  C   UNL     1      -1.905   1.490   3.152  0.00  0.00    -0.017 A 
ATOM      3  C   UNL     1      -2.400   2.791   3.118  0.00  0.00    +0.120 A 
ATOM      4  C   UNL     1      -1.950   3.682   2.111  0.00  0.00    +0.270 A 
ATOM      5  O   UNL     1      -2.380   4.822   2.076  0.00  0.00    -0.266 OA
ATOM      6  N   UNL     1      -1.053   3.279   1.193  0.00  0.00    -0.295 N 
ATOM      7  C   UNL     1      -0.556   2.015   1.205  0.00  0.00    +0.112 A 
ATOM      8  C   UNL     1      -2.366   0.523   4.211  0.00  0.00    +0.046 C 
ENDROOT
BRANCH   1  13
ATOM      9  N   UNL     1       1.651  -2.133   4.542  0.00  0.00    -0.252 N 
ATOM     10  C   UNL     1       0.889  -1.983   3.473  0.00  0.00    +0.259 C 
ATOM     11  O   UNL     1       0.648  -2.924   2.737  0.00  0.00    -0.269 OA
ATOM     12  C   UNL     1       0.359  -0.685   3.204  0.00  0.00    +0.077 C 
ATOM     13  C   UNL     1      -0.438  -0.270   2.182  0.00  0.00    +0.032 C 
ATOM     14  S   UNL     1       1.023   0.245   4.578  0.00  0.00    -0.061 S 
ATOM     15  C   UNL     1       1.913  -1.091   5.362  0.00  0.00    +0.121 C 
ATOM     16  S   UNL     1       2.858  -1.059   6.789  0.00  0.00    -0.027 S 
BRANCH   9  17
ATOM     17  C   UNL     1       2.217  -3.450   4.847  0.00  0.00    +0.080 C 
ATOM     18  C   UNL     1       3.744  -3.358   4.863  0.00  0.00    +0.028 C 
BRANCH  17  20
ATOM     19  C   UNL     1       0.205  -4.125   6.165  0.00  0.00    +0.006 C 
ATOM     20  C   UNL     1       1.719  -3.914   6.217  0.00  0.00    +0.019 C 
ENDBRANCH  17  20
ENDBRANCH   9  17
ENDBRANCH   1  13
BRANCH   7  21
ATOM     21  N   UNL     1       0.353   1.637   0.260  0.00  0.00    -0.316 N 
ATOM     22  C   UNL     1       1.609   1.201   0.883  0.00  0.00    +0.107 C 
ATOM     23  C   UNL     1       2.650   0.925  -0.204  0.00  0.00    +0.022 C 
ATOM     24  C   UNL     1       2.122  -0.162  -1.145  0.00  0.00    -0.011 C 
ATOM     25  C   UNL     1       0.788   0.297  -1.743  0.00  0.00    +0.022 C 
ATOM     26  C   UNL     1      -0.198   0.592  -0.612  0.00  0.00    +0.107 C 
ATOM     27  C   UNL     1       3.131  -0.400  -2.270  0.00  0.00    +0.007 C 
ENDBRANCH   7  21
BRANCH   6  28
ATOM     28  C   UNL     1      -0.605   4.219   0.163  0.00  0.00    +0.123 C 
ATOM     29  C   UNL     1      -1.524   4.115  -1.056  0.00  0.00    +0.027 C 
ENDBRANCH   6  28
BRANCH   3  30
ATOM     30  C   UNL     1      -3.355   3.226   4.093  0.00  0.00    +0.105 C 
ATOM     31  N   UNL     1      -4.112   3.571   4.866  0.00  0.00    -0.191 NA
ENDBRANCH   3  30
TORSDOF 6
