REMARK  Name = ZINC39610234
REMARK  7 active torsions:
REMARK  status: ('A' for Active; 'I' for Inactive)
REMARK    1  A    between atoms: C_1  and  C_2
REMARK    2  A    between atoms: C_2  and  C_3
REMARK    3  A    between atoms: C_3  and  C_5
REMARK    4  A    between atoms: C_3  and  C_11
REMARK    5  A    between atoms: C_15  and  C_24
REMARK    6  A    between atoms: N_26  and  C_27
REMARK    7  A    between atoms: C_27  and  C_28
REMARK                            x       y       z     vdW  Elec       q    Type
REMARK                         _______ _______ _______ _____ _____    ______ ____
ROOT
ATOM      1  C   UNL     1       0.818  -1.742   1.015  0.00  0.00    +0.223 C 
ATOM      2  O   UNL     1       0.270  -2.352   1.909  0.00  0.00    -0.275 OA
ATOM      3  N   UNL     1       1.486  -2.411   0.054  0.00  0.00    -0.300 N 
ATOM      4  C   UNL     1       2.217  -1.846  -1.104  0.00  0.00    +0.121 C 
ATOM      5  C   UNL     1       3.483  -2.723  -1.232  0.00  0.00    +0.100 C 
ATOM      6  C   UNL     1       3.106  -4.055  -0.562  0.00  0.00    -0.004 C 
ATOM      7  C   UNL     1       1.659  -3.877  -0.079  0.00  0.00    +0.115 C 
ATOM      8  C   UNL     1       4.023  -4.326   0.627  0.00  0.00    -0.010 C 
ATOM      9  C   UNL     1       3.666  -5.682   1.242  0.00  0.00    -0.082 C 
ATOM     10  N   UNL     1       3.819  -6.735   0.231  0.00  0.00    +0.379 N 
ATOM     11  C   UNL     1       2.868  -6.518  -0.866  0.00  0.00    -0.082 C 
ATOM     12  C   UNL     1       3.191  -5.197  -1.570  0.00  0.00    -0.010 C 
ATOM     13  H   UNL     1       4.760  -6.717  -0.133  0.00  0.00    -0.086 HD
ATOM     14  H   UNL     1       3.643  -7.634   0.654  0.00  0.00    -0.086 HD
ENDROOT
BRANCH   5  15
ATOM     15  C   UNL     1       4.641  -2.081  -0.514  0.00  0.00    +0.218 C 
ATOM     16  O   UNL     1       4.441  -1.383   0.457  0.00  0.00    -0.275 OA
ATOM     17  N   UNL     1       5.900  -2.283  -0.951  0.00  0.00    -0.311 N 
ATOM     18  H   UNL     1       6.061  -2.841  -1.728  0.00  0.00    +0.149 HD
BRANCH  17  19
ATOM     19  C   UNL     1       7.027  -1.658  -0.253  0.00  0.00    +0.139 C 
BRANCH  19  20
ATOM     20  C   UNL     1       8.315  -2.039  -0.936  0.00  0.00    -0.027 A 
ATOM     21  C   UNL     1       8.994  -3.177  -0.542  0.00  0.00    +0.009 A 
ATOM     22  C   UNL     1      10.176  -3.531  -1.167  0.00  0.00    +0.050 A 
ATOM     23  C   UNL     1      10.683  -2.744  -2.188  0.00  0.00    +0.166 A 
ATOM     24  C   UNL     1       9.998  -1.598  -2.585  0.00  0.00    +0.167 A 
ATOM     25  C   UNL     1       8.812  -1.253  -1.959  0.00  0.00    +0.054 A 
ATOM     26  O   UNL     1      10.694  -1.003  -3.597  0.00  0.00    -0.453 OA
ATOM     27  C   UNL     1      12.016  -1.570  -3.541  0.00  0.00    +0.466 C 
ATOM     28  O   UNL     1      11.807  -2.868  -2.953  0.00  0.00    -0.453 OA
ENDBRANCH  19  20
ENDBRANCH  17  19
ENDBRANCH   5  15
BRANCH   1  29
ATOM     29  C   UNL     1       0.753  -0.237   0.979  0.00  0.00    +0.105 C 
BRANCH  29  30
ATOM     30  C   UNL     1      -0.046   0.259   2.157  0.00  0.00    -0.036 A 
ATOM     31  C   UNL     1      -1.362  -0.133   2.314  0.00  0.00    +0.004 A 
ATOM     32  C   UNL     1      -2.095   0.322   3.394  0.00  0.00    +0.000 A 
ATOM     33  C   UNL     1      -1.512   1.170   4.317  0.00  0.00    +0.000 A 
ATOM     34  C   UNL     1      -0.195   1.561   4.161  0.00  0.00    +0.000 A 
ATOM     35  C   UNL     1       0.539   1.103   3.083  0.00  0.00    +0.004 A 
ENDBRANCH  29  30
BRANCH  29  37
ATOM     36  C   UNL     1       0.126   1.740  -0.414  0.00  0.00    +0.005 C 
ATOM     37  C   UNL     1       0.081   0.213  -0.319  0.00  0.00    +0.014 C 
ENDBRANCH  29  37
ENDBRANCH   1  29
TORSDOF 6
