REMARK  Name = ZINC14833570
REMARK  9 active torsions:
REMARK  status: ('A' for Active; 'I' for Inactive)
REMARK    1  A    between atoms: C_1  and  C_2
REMARK    2  A    between atoms: C_2  and  C_3
REMARK    3  A    between atoms: C_3  and  C_5
REMARK    4  A    between atoms: C_3  and  O_6
REMARK    5  A    between atoms: O_6  and  C_7
REMARK    6  A    between atoms: C_7  and  C_9
REMARK    7  A    between atoms: C_9  and  C_10
REMARK    8  A    between atoms: C_18  and  C_20
REMARK    9  A    between atoms: C_21  and  C_22
REMARK                            x       y       z     vdW  Elec       q    Type
REMARK                         _______ _______ _______ _____ _____    ______ ____
ROOT
ATOM      1  C   UNL     1      -7.382   0.868   0.249  0.00  0.00    +0.173 C 
ATOM      2  C   UNL     1      -8.403   1.544  -0.618  0.00  0.00    +0.234 C 
ATOM      3  O   UNL     1      -9.446   0.967  -0.841  0.00  0.00    -0.274 OA
ATOM      4  N   UNL     1      -8.215   2.749  -1.158  0.00  0.00    -0.312 N 
ATOM      5  C   UNL     1      -6.983   3.519  -1.052  0.00  0.00    +0.123 C 
ATOM      6  C   UNL     1      -6.159   3.062   0.153  0.00  0.00    +0.127 C 
ATOM      7  N   UNL     1      -6.105   1.590   0.141  0.00  0.00    -0.284 N 
ATOM      8  C   UNL     1      -4.935   0.932   0.030  0.00  0.00    +0.240 C 
ATOM      9  O   UNL     1      -4.926  -0.280  -0.079  0.00  0.00    -0.271 OA
ATOM     10  H   UNL     1      -8.950   3.140  -1.656  0.00  0.00    +0.149 HD
ENDROOT
BRANCH   8  11
ATOM     11  C   UNL     1      -3.673   1.675   0.042  0.00  0.00    +0.068 C 
ATOM     12  C   UNL     1      -2.500   1.010   0.036  0.00  0.00    +0.013 C 
BRANCH  12  13
ATOM     13  C   UNL     1      -1.232   1.757   0.048  0.00  0.00    -0.025 A 
ATOM     14  C   UNL     1      -0.012   1.071   0.042  0.00  0.00    +0.009 A 
ATOM     15  C   UNL     1       1.171   1.778   0.047  0.00  0.00    +0.020 A 
ATOM     16  C   UNL     1       1.156   3.163   0.063  0.00  0.00    +0.041 A 
ATOM     17  C   UNL     1      -0.048   3.848   0.074  0.00  0.00    +0.020 A 
ATOM     18  C   UNL     1      -1.240   3.156   0.069  0.00  0.00    +0.009 A 
ATOM     19 CL   UNL     1       2.651   4.044   0.069  0.00  0.00    -0.084 Cl
ENDBRANCH  12  13
ENDBRANCH   8  11
BRANCH   1  20
ATOM     20  C   UNL     1      -7.859   0.886   1.703  0.00  0.00    +0.152 C 
BRANCH  20  21
ATOM     21  C   UNL     1      -6.890   0.111   2.559  0.00  0.00    +0.310 C 
ATOM     22  O   UNL     1      -5.918  -0.403   2.058  0.00  0.00    -0.251 OA
BRANCH  21  23
ATOM     23  O   UNL     1      -7.107  -0.009   3.878  0.00  0.00    -0.462 OA
BRANCH  23  24
ATOM     24  C   UNL     1      -6.133  -0.769   4.640  0.00  0.00    +0.173 C 
ATOM     25  C   UNL     1      -6.548  -2.241   4.674  0.00  0.00    +0.052 C 
BRANCH  24  27
ATOM     26  C   UNL     1      -5.531   1.208   6.044  0.00  0.00    +0.007 C 
ATOM     27  C   UNL     1      -6.066  -0.226   6.069  0.00  0.00    +0.041 C 
ENDBRANCH  24  27
ENDBRANCH  23  24
ENDBRANCH  21  23
ENDBRANCH  20  21
ENDBRANCH   1  20
TORSDOF 7
