REMARK  Name = ZINC40475528
REMARK  6 active torsions:
REMARK  status: ('A' for Active; 'I' for Inactive)
REMARK    1  A    between atoms: C_1  and  O_2
REMARK    2  A    between atoms: O_2  and  C_3
REMARK    3  A    between atoms: C_5  and  C_10
REMARK    4  A    between atoms: C_8  and  O_9
REMARK    5  A    between atoms: N_25  and  C_28
REMARK    6  A    between atoms: C_31  and  N_34
REMARK                            x       y       z     vdW  Elec       q    Type
REMARK                         _______ _______ _______ _____ _____    ______ ____
ROOT
ATOM      1  C   UNL     1       2.403   0.379  -4.230  0.00  0.00    +0.072 C 
ATOM      2  C   UNL     1       3.854   0.113  -4.249  0.00  0.00    +0.032 A 
ATOM      3  C   UNL     1       4.700  -0.015  -5.309  0.00  0.00    +0.110 A 
ATOM      4  N   UNL     1       5.983  -0.191  -4.996  0.00  0.00    -0.225 NA
ATOM      5  C   UNL     1       6.383  -0.282  -3.746  0.00  0.00    +0.147 A 
ATOM      6  S   UNL     1       8.019  -0.521  -3.136  0.00  0.00    -0.023 SA
ATOM      7  S   UNL     1       4.955  -0.113  -2.871  0.00  0.00    -0.063 S 
ATOM      8  S   UNL     1       4.059   0.026  -6.964  0.00  0.00    -0.091 S 
ATOM      9  C   UNL     1       2.382   0.611  -6.774  0.00  0.00    +0.152 C 
ATOM     10  C   UNL     1       1.653   0.091  -5.529  0.00  0.00    +0.110 C 
ATOM     11  C   UNL     1       0.512   1.133  -5.518  0.00  0.00    +0.232 C 
ATOM     12  O   UNL     1      -0.618   0.965  -5.112  0.00  0.00    -0.274 OA
ATOM     13  N   UNL     1       1.017   2.266  -6.048  0.00  0.00    -0.209 N 
ATOM     14  C   UNL     1       2.204   2.095  -6.664  0.00  0.00    +0.240 C 
ATOM     15  O   UNL     1       2.960   2.958  -7.057  0.00  0.00    -0.274 OA
ENDROOT
BRANCH   1  18
ATOM     16  C   UNL     1       0.606  -0.608  -1.056  0.00  0.00    +0.162 A 
ATOM     17  C   UNL     1       1.173   0.159  -2.062  0.00  0.00    +0.053 A 
ATOM     18  C   UNL     1       1.787  -0.456  -3.137  0.00  0.00    -0.035 A 
ATOM     19  C   UNL     1       1.837  -1.836  -3.212  0.00  0.00    +0.008 A 
ATOM     20  C   UNL     1       1.273  -2.606  -2.212  0.00  0.00    +0.049 A 
ATOM     21  C   UNL     1       0.662  -1.996  -1.129  0.00  0.00    +0.158 A 
BRANCH  16  23
ATOM     22  C   UNL     1      -0.017   1.425   0.010  0.00  0.00    +0.277 C 
ATOM     23  O   UNL     1       0.002  -0.004   0.002  0.00  0.00    -0.491 OA
ENDBRANCH  16  23
BRANCH  21  24
ATOM     24  O   UNL     1       0.112  -2.753  -0.142  0.00  0.00    -0.503 OA
ATOM     25  H   UNL     1      -0.816  -2.979  -0.291  0.00  0.00    +0.292 HD
ENDBRANCH  21  24
ENDBRANCH   1  18
BRANCH  13  26
ATOM     26  C   UNL     1       0.375   3.509  -5.952  0.00  0.00    +0.044 A 
ATOM     27  C   UNL     1      -0.836   3.617  -5.284  0.00  0.00    +0.026 A 
ATOM     28  C   UNL     1      -1.466   4.842  -5.191  0.00  0.00    +0.034 A 
ATOM     29  C   UNL     1      -0.891   5.962  -5.763  0.00  0.00    +0.126 A 
ATOM     30  C   UNL     1       0.316   5.858  -6.431  0.00  0.00    +0.034 A 
ATOM     31  C   UNL     1       0.953   4.636  -6.522  0.00  0.00    +0.026 A 
BRANCH  29  32
ATOM     32  N   UNL     1      -1.568   7.274  -5.662  0.00  0.00    +0.056 N 
ATOM     33  O   UNL     1      -2.624   7.366  -5.080  0.00  0.00    -0.126 OA
ATOM     34  O   UNL     1      -1.066   8.254  -6.162  0.00  0.00    -0.126 OA
ENDBRANCH  29  32
ENDBRANCH  13  26
TORSDOF 5
