REMARK  Name = ZINC13043825
REMARK  6 active torsions:
REMARK  status: ('A' for Active; 'I' for Inactive)
REMARK    1  A    between atoms: C_6  and  S_7
REMARK    2  A    between atoms: S_7  and  N_10
REMARK    3  A    between atoms: C_18  and  C_20
REMARK    4  A    between atoms: C_20  and  O_21
REMARK    5  A    between atoms: O_21  and  C_22
REMARK    6  A    between atoms: C_25  and  C_29
REMARK                            x       y       z     vdW  Elec       q    Type
REMARK                         _______ _______ _______ _____ _____    ______ ____
ROOT
ATOM      1  C   UNL     1      -3.839   3.670   0.955  0.00  0.00    +0.030 A 
ATOM      2  C   UNL     1      -2.809   2.976   1.556  0.00  0.00    +0.026 A 
ATOM      3  C   UNL     1      -1.849   2.327   0.778  0.00  0.00    +0.040 A 
ATOM      4  C   UNL     1      -1.947   2.393  -0.603  0.00  0.00    -0.023 A 
ATOM      5  C   UNL     1      -2.979   3.089  -1.201  0.00  0.00    +0.034 A 
ATOM      6  C   UNL     1      -3.927   3.729  -0.423  0.00  0.00    +0.106 A 
ATOM      7  C   UNL     1      -0.797   1.615  -1.204  0.00  0.00    +0.056 C 
ATOM      8  C   UNL     1      -0.013   1.086   0.008  0.00  0.00    +0.118 C 
ATOM      9  N   UNL     1      -0.738   1.578   1.182  0.00  0.00    -0.268 N 
ATOM     10  C   UNL     1      -0.387   1.342   2.462  0.00  0.00    +0.257 C 
ATOM     11  O   UNL     1      -1.055   1.795   3.368  0.00  0.00    -0.272 OA
ENDROOT
BRANCH   6  12
ATOM     12  S   UNL     1      -5.243   4.617  -1.187  0.00  0.00    +0.061 S 
ATOM     13  O   UNL     1      -5.686   5.580  -0.241  0.00  0.00    -0.153 OA
ATOM     14  O   UNL     1      -4.791   4.976  -2.485  0.00  0.00    -0.153 OA
BRANCH  12  15
ATOM     15  N   UNL     1      -6.494   3.552  -1.399  0.00  0.00    -0.177 NA
ATOM     16  C   UNL     1      -6.715   2.716  -2.588  0.00  0.00    +0.109 C 
ATOM     17  C   UNL     1      -8.008   1.909  -2.347  0.00  0.00    +0.018 C 
ATOM     18  C   UNL     1      -8.752   2.758  -1.283  0.00  0.00    +0.018 C 
ATOM     19  C   UNL     1      -7.573   3.290  -0.430  0.00  0.00    +0.109 C 
ENDBRANCH  12  15
ENDBRANCH   6  12
BRANCH  10  20
ATOM     20  C   UNL     1       0.837   0.517   2.768  0.00  0.00    +0.325 C 
BRANCH  20  21
ATOM     21  O   UNL     1       0.997   0.410   4.184  0.00  0.00    -0.480 OA
BRANCH  21  22
ATOM     22  C   UNL     1       2.060  -0.307   4.631  0.00  0.00    +0.158 A 
ATOM     23  C   UNL     1       1.926  -1.671   4.866  0.00  0.00    +0.085 A 
ATOM     24  C   UNL     1       3.004  -2.403   5.316  0.00  0.00    +0.039 A 
ATOM     25  C   UNL     1       4.229  -1.771   5.545  0.00  0.00    +0.066 A 
ATOM     26  C   UNL     1       4.358  -0.399   5.312  0.00  0.00    +0.039 A 
ATOM     27  C   UNL     1       3.277   0.326   4.858  0.00  0.00    +0.085 A 
ATOM     28 CL   UNL     1       3.436   2.030   4.569  0.00  0.00    -0.080 Cl
ATOM     29 CL   UNL     1       0.402  -2.454   4.587  0.00  0.00    -0.080 Cl
BRANCH  25  30
ATOM     30  C   UNL     1       5.383  -2.550   6.031  0.00  0.00    +0.387 C 
ATOM     31  O   UNL     1       6.448  -1.999   6.230  0.00  0.00    -0.241 OA
ATOM     32  O   UNL     1       5.257  -3.873   6.255  0.00  0.00    -0.241 OA
ENDBRANCH  25  30
ENDBRANCH  21  22
ENDBRANCH  20  21
ENDBRANCH  10  20
TORSDOF 6
