REMARK  Name = ZINC08838051
REMARK  12 active torsions:
REMARK  status: ('A' for Active; 'I' for Inactive)
REMARK    1  A    between atoms: C_1  and  C_2
REMARK    2  A    between atoms: C_2  and  C_4
REMARK    3  A    between atoms: C_2  and  N_10
REMARK    4  A    between atoms: C_17  and  O_18
REMARK    5  A    between atoms: C_19  and  N_65
REMARK    6  A    between atoms: C_25  and  O_33
REMARK    7  A    between atoms: C_26  and  O_31
REMARK    8  A    between atoms: C_27  and  O_29
REMARK    9  A    between atoms: O_29  and  C_30
REMARK   10  A    between atoms: O_31  and  C_32
REMARK   11  A    between atoms: O_33  and  C_34
REMARK   12  A    between atoms: C_35  and  N_65
REMARK                            x       y       z     vdW  Elec       q    Type
REMARK                         _______ _______ _______ _____ _____    ______ ____
ROOT
ATOM      1  N   UNL     1      -3.294  -4.254   1.190  0.00  0.00    -0.273 NA
ATOM      2  C   UNL     1      -3.303  -2.959   0.908  0.00  0.00    +0.100 A 
ATOM      3  C   UNL     1      -3.336  -2.587  -0.436  0.00  0.00    +0.031 A 
ATOM      4  C   UNL     1      -3.325  -1.380  -0.954  0.00  0.00    +0.011 A 
ATOM      5  C   UNL     1      -3.283  -0.103  -0.410  0.00  0.00    -0.012 A 
ATOM      6  C   UNL     1      -3.297   0.213   0.932  0.00  0.00    -0.050 A 
ATOM      7  C   UNL     1      -3.285  -0.693   1.964  0.00  0.00    +0.050 A 
ATOM      8  C   UNL     1      -3.280  -2.028   2.011  0.00  0.00    +0.142 A 
ATOM      9  C   UNL     1      -3.363   1.675   1.326  0.00  0.00    -0.040 C 
ATOM     10  C   UNL     1      -2.009   2.349   1.228  0.00  0.00    -0.007 C 
ATOM     11  C   UNL     1      -1.302   1.973  -0.071  0.00  0.00    +0.035 C 
ATOM     12  C   UNL     1      -2.283   2.042  -1.214  0.00  0.00    -0.033 A 
ATOM     13  C   UNL     1      -3.224   1.032  -1.379  0.00  0.00    +0.031 A 
ATOM     14  C   UNL     1      -4.129   1.079  -2.444  0.00  0.00    +0.173 A 
ATOM     15  C   UNL     1      -4.085   2.147  -3.330  0.00  0.00    +0.204 A 
ATOM     16  C   UNL     1      -3.146   3.157  -3.154  0.00  0.00    +0.165 A 
ATOM     17  C   UNL     1      -2.247   3.102  -2.096  0.00  0.00    +0.054 A 
ENDROOT
BRANCH   9  19
ATOM     18  C   UNL     1      -4.382   3.116   2.984  0.00  0.00    -0.100 C 
ATOM     19  N   UNL     1      -3.846   1.768   2.717  0.00  0.00    +0.382 N 
ATOM     20  H   UNL     1      -3.067   1.580   3.359  0.00  0.00    -0.085 HD
ATOM     21  H   UNL     1      -4.587   1.073   2.865  0.00  0.00    -0.085 HD
ENDBRANCH   9  19
BRANCH   1  23
ATOM     22  C   UNL     1      -2.218  -5.984  -0.162  0.00  0.00    +0.038 C 
ATOM     23  C   UNL     1      -3.521  -5.237   0.129  0.00  0.00    +0.133 C 
BRANCH  23  24
ATOM     24  C   UNL     1      -4.575  -6.219   0.571  0.00  0.00    -0.023 A 
ATOM     25  C   UNL     1      -4.584  -6.683   1.873  0.00  0.00    +0.006 A 
ATOM     26  C   UNL     1      -5.554  -7.580   2.280  0.00  0.00    +0.000 A 
ATOM     27  C   UNL     1      -6.508  -8.021   1.383  0.00  0.00    +0.000 A 
ATOM     28  C   UNL     1      -6.495  -7.561   0.079  0.00  0.00    +0.000 A 
ATOM     29  C   UNL     1      -5.529  -6.660  -0.327  0.00  0.00    +0.006 A 
ENDBRANCH  23  24
ENDBRANCH   1  23
BRANCH   8  30
ATOM     30  O   UNL     1      -3.248  -2.578   3.250  0.00  0.00    -0.505 OA
ATOM     31  H   UNL     1      -2.356  -2.734   3.588  0.00  0.00    +0.292 HD
ENDBRANCH   8  30
BRANCH  16  32
ATOM     32  O   UNL     1      -3.107   4.204  -4.020  0.00  0.00    -0.491 OA
ATOM     33  C   UNL     1      -2.118   5.207  -3.781  0.00  0.00    +0.277 C 
ENDBRANCH  16  32
BRANCH  15  34
ATOM     34  O   UNL     1      -4.961   2.206  -4.371  0.00  0.00    -0.488 OA
ATOM     35  C   UNL     1      -4.524   1.661  -5.617  0.00  0.00    +0.277 C 
ENDBRANCH  15  34
BRANCH  14  36
ATOM     36  O   UNL     1      -5.044   0.088  -2.610  0.00  0.00    -0.491 OA
ATOM     37  C   UNL     1      -6.342   0.303  -2.053  0.00  0.00    +0.277 C 
ENDBRANCH  14  36
TORSDOF 7
