REMARK  Name = ZINC58066213
REMARK  6 active torsions:
REMARK  status: ('A' for Active; 'I' for Inactive)
REMARK    1  A    between atoms: C_1  and  C_2
REMARK    2  A    between atoms: C_9  and  C_11
REMARK    3  A    between atoms: N_13  and  N_14
REMARK    4  A    between atoms: N_14  and  S_15
REMARK    5  A    between atoms: S_15  and  C_18
REMARK    6  A    between atoms: C_20  and  C_24
REMARK                            x       y       z     vdW  Elec       q    Type
REMARK                         _______ _______ _______ _____ _____    ______ ____
ROOT
ATOM      1  C   UNL     1       1.610  -5.258   2.944  0.00  0.00    +0.233 C 
ATOM      2  O   UNL     1       1.772  -5.004   4.123  0.00  0.00    -0.271 OA
ATOM      3  N   UNL     1       1.697  -6.531   2.511  0.00  0.00    -0.370 N 
ATOM      4  H   UNL     1       1.568  -6.734   1.572  0.00  0.00    +0.124 HD
ENDROOT
BRANCH   1  12
ATOM      5  C   UNL     1      -0.019   1.526   0.010  0.00  0.00    +0.008 C 
ATOM      6  C   UNL     1       0.002  -0.004   0.002  0.00  0.00    -0.009 C 
ATOM      7  C   UNL     1       0.716  -0.496  -1.260  0.00  0.00    +0.009 C 
ATOM      8  C   UNL     1       0.494  -2.009  -1.394  0.00  0.00    +0.043 C 
ATOM      9  C   UNL     1       0.790  -2.651  -0.071  0.00  0.00    -0.006 A 
ATOM     10  C   UNL     1       0.909  -2.022   1.133  0.00  0.00    -0.036 A 
ATOM     11  C   UNL     1       1.189  -2.823   2.230  0.00  0.00    +0.024 A 
ATOM     12  C   UNL     1       1.319  -4.179   1.995  0.00  0.00    +0.073 A 
ATOM     13  S   UNL     1       1.042  -4.274   0.237  0.00  0.00    -0.088 S 
ATOM     14  C   UNL     1       0.739  -0.509   1.243  0.00  0.00    +0.039 C 
ENDBRANCH   1  12
BRANCH   3  15
ATOM     15  N   UNL     1       1.975  -7.562   3.418  0.00  0.00    +0.522 NA
BRANCH  15  16
ATOM     16  S   UNL     1       2.082  -9.127   2.886  0.00  0.00    -0.031 S 
ATOM     17  O   UNL     1       0.783  -9.495   2.442  0.00  0.00    -0.189 OA
ATOM     18  O   UNL     1       3.222  -9.191   2.041  0.00  0.00    -0.189 OA
BRANCH  16  19
ATOM     19  C   UNL     1       2.438 -10.131   4.290  0.00  0.00    +0.121 A 
ATOM     20  C   UNL     1       1.610 -11.121   4.835  0.00  0.00    +0.082 A 
ATOM     21  C   UNL     1       2.285 -11.647   5.916  0.00  0.00    +0.219 A 
ATOM     22  O   UNL     1       3.468 -11.003   6.017  0.00  0.00    -0.440 OA
ATOM     23  C   UNL     1       3.566 -10.095   5.038  0.00  0.00    +0.194 A 
ATOM     24 BR   UNL     1       5.038  -8.944   4.750  0.00  0.00    -0.007 Br
BRANCH  21  25
ATOM     25  C   UNL     1       1.821 -12.679   6.769  0.00  0.00    +0.421 C 
ATOM     26  O   UNL     1       0.724 -13.188   6.574  0.00  0.00    -0.237 OA
ATOM     27  O   UNL     1       2.517 -13.063   7.701  0.00  0.00    -0.237 OA
ENDBRANCH  21  25
ENDBRANCH  16  19
ENDBRANCH  15  16
ENDBRANCH   3  15
TORSDOF 5
