REMARK  Name = ZINC13811284
REMARK  4 active torsions:
REMARK  status: ('A' for Active; 'I' for Inactive)
REMARK    1  A    between atoms: C_1  and  S_2
REMARK    2  A    between atoms: S_2  and  C_3
REMARK    3  A    between atoms: C_6  and  C_9
REMARK    4  A    between atoms: C_27  and  C_29
REMARK                            x       y       z     vdW  Elec       q    Type
REMARK                         _______ _______ _______ _____ _____    ______ ____
ROOT
ATOM      1  C   UNL     1       2.901  -1.397  -5.106  0.00  0.00    +0.234 C 
ATOM      2  C   UNL     1       4.329  -1.735  -4.790  0.00  0.00    +0.028 C 
ATOM      3  C   UNL     1       4.688  -3.004  -4.506  0.00  0.00    +0.083 C 
ATOM      4  C   UNL     1       3.623  -4.039  -4.531  0.00  0.00    +0.044 A 
ATOM      5  C   UNL     1       3.809  -5.285  -3.949  0.00  0.00    +0.033 A 
ATOM      6  C   UNL     1       2.790  -6.218  -3.994  0.00  0.00    +0.042 A 
ATOM      7  C   UNL     1       1.591  -5.911  -4.616  0.00  0.00    +0.023 A 
ATOM      8  C   UNL     1       1.399  -4.672  -5.198  0.00  0.00    +0.048 A 
ATOM      9  C   UNL     1       2.412  -3.729  -5.161  0.00  0.00    +0.131 A 
ATOM     10  O   UNL     1       2.255  -2.509  -5.728  0.00  0.00    -0.479 OA
ATOM     11 CL   UNL     1       3.013  -7.780  -3.269  0.00  0.00    -0.084 Cl
ATOM     12  N   UNL     1       5.971  -3.328  -4.211  0.00  0.00    -0.213 NA
ATOM     13  C   UNL     1       6.963  -2.470  -4.180  0.00  0.00    +0.237 C 
ATOM     14  N   UNL     1       8.279  -2.621  -3.913  0.00  0.00    -0.205 NA
ATOM     15  C   UNL     1       8.896  -1.475  -4.005  0.00  0.00    +0.203 C 
ATOM     16  N   UNL     1       8.002  -0.504  -4.340  0.00  0.00    -0.251 N 
ATOM     17  N   UNL     1       6.760  -1.132  -4.454  0.00  0.00    -0.208 N 
ATOM     18  C   UNL     1       5.405  -0.672  -4.780  0.00  0.00    +0.166 C 
ATOM     19  H   UNL     1       8.191   0.438  -4.474  0.00  0.00    +0.171 HD
ENDROOT
BRANCH   1  23
ATOM     20  C   UNL     1       0.848  -0.411  -1.489  0.00  0.00    +0.008 A 
ATOM     21  C   UNL     1       1.315   0.599  -2.322  0.00  0.00    +0.015 A 
ATOM     22  C   UNL     1       1.978   0.276  -3.490  0.00  0.00    +0.008 A 
ATOM     23  C   UNL     1       2.178  -1.049  -3.830  0.00  0.00    -0.003 A 
ATOM     24  C   UNL     1       1.714  -2.056  -3.004  0.00  0.00    +0.008 A 
ATOM     25  C   UNL     1       1.056  -1.742  -1.831  0.00  0.00    +0.015 A 
BRANCH  20  27
ATOM     26  C   UNL     1      -0.022   1.810   0.012  0.00  0.00    +0.090 C 
ATOM     27  S   UNL     1       0.002  -0.004   0.002  0.00  0.00    -0.129 S 
ENDBRANCH  20  27
ENDBRANCH   1  23
BRANCH  18  28
ATOM     28  C   UNL     1       5.442  -0.027  -6.141  0.00  0.00    +0.016 A 
ATOM     29  C   UNL     1       4.906   1.151  -6.543  0.00  0.00    +0.013 A 
ATOM     30  C   UNL     1       5.067   1.548  -7.857  0.00  0.00    +0.008 A 
ATOM     31  C   UNL     1       5.756   0.746  -8.706  0.00  0.00    +0.045 A 
ATOM     32  S   UNL     1       6.209  -0.615  -7.643  0.00  0.00    -0.099 S 
ENDBRANCH  18  28
TORSDOF 3
