REMARK  Name = ZINC59471875
REMARK  12 active torsions:
REMARK  status: ('A' for Active; 'I' for Inactive)
REMARK    1  A    between atoms: C_1  and  C_2
REMARK    2  A    between atoms: C_2  and  C_3
REMARK    3  A    between atoms: C_6  and  O_9
REMARK    4  A    between atoms: O_9  and  C_10
REMARK    5  A    between atoms: C_10  and  C_11
REMARK    6  A    between atoms: C_11  and  N_12
REMARK    7  A    between atoms: C_13  and  C_15
REMARK    8  A    between atoms: C_18  and  C_21
REMARK    9  A    between atoms: C_21  and  N_22
REMARK   10  A    between atoms: N_22  and  C_23
REMARK   11  A    between atoms: N_22  and  S_29
REMARK   12  A    between atoms: S_29  and  C_32
REMARK                            x       y       z     vdW  Elec       q    Type
REMARK                         _______ _______ _______ _____ _____    ______ ____
ROOT
ATOM      1  C   UNL     1       5.303  -0.878   9.544  0.00  0.00    +0.037 A 
ATOM      2  C   UNL     1       5.166   0.257   8.744  0.00  0.00    +0.013 A 
ATOM      3  C   UNL     1       6.110   1.261   8.809  0.00  0.00    +0.006 A 
ATOM      4  C   UNL     1       7.191   1.144   9.664  0.00  0.00    -0.028 A 
ATOM      5  C   UNL     1       7.334   0.020  10.459  0.00  0.00    +0.006 A 
ATOM      6  C   UNL     1       6.393  -0.988  10.408  0.00  0.00    +0.013 A 
ENDROOT
BRANCH   1   8
ATOM      7  N   UNL     1       3.243  -1.849   8.644  0.00  0.00    -0.308 N 
ATOM      8  C   UNL     1       4.295  -1.958   9.480  0.00  0.00    +0.244 C 
ATOM      9  O   UNL     1       4.414  -2.943  10.181  0.00  0.00    -0.270 OA
ATOM     10  H   UNL     1       3.148  -1.062   8.084  0.00  0.00    +0.149 HD
BRANCH   7  11
ATOM     11  C   UNL     1       2.244  -2.919   8.581  0.00  0.00    +0.145 C 
BRANCH  11  12
ATOM     12  C   UNL     1       1.164  -2.548   7.562  0.00  0.00    +0.247 C 
BRANCH  12  13
ATOM     13  O   UNL     1       1.741  -2.492   6.256  0.00  0.00    -0.490 OA
BRANCH  13  17
ATOM     14  C   UNL     1      -0.778  -1.528   3.135  0.00  0.00    -0.047 A 
ATOM     15  C   UNL     1       0.559  -1.778   2.890  0.00  0.00    +0.007 A 
ATOM     16  C   UNL     1       1.405  -2.102   3.933  0.00  0.00    +0.046 A 
ATOM     17  C   UNL     1       0.911  -2.174   5.228  0.00  0.00    +0.121 A 
ATOM     18  C   UNL     1      -0.431  -1.921   5.471  0.00  0.00    +0.046 A 
ATOM     19  C   UNL     1      -1.272  -1.594   4.425  0.00  0.00    +0.007 A 
BRANCH  14  21
ATOM     20  C   UNL     1      -1.708   0.341   1.796  0.00  0.00    +0.009 C 
ATOM     21  C   UNL     1      -1.699  -1.176   1.995  0.00  0.00    +0.032 C 
ENDBRANCH  14  21
ENDBRANCH  13  17
ENDBRANCH  12  13
ENDBRANCH  11  12
ENDBRANCH   7  11
ENDBRANCH   1   8
BRANCH   4  22
ATOM     22  C   UNL     1       8.219   2.244   9.729  0.00  0.00    +0.166 C 
BRANCH  22  23
ATOM     23  N   UNL     1       7.766   3.281  10.659  0.00  0.00    -0.199 N 
BRANCH  23  24
ATOM     24  C   UNL     1       6.873   4.264  10.228  0.00  0.00    +0.052 A 
ATOM     25  C   UNL     1       7.228   5.121   9.194  0.00  0.00    +0.025 A 
ATOM     26  C   UNL     1       6.342   6.092   8.770  0.00  0.00    +0.002 A 
ATOM     27  C   UNL     1       5.104   6.213   9.374  0.00  0.00    +0.000 A 
ATOM     28  C   UNL     1       4.748   5.362  10.404  0.00  0.00    +0.002 A 
ATOM     29  C   UNL     1       5.627   4.385  10.829  0.00  0.00    +0.025 A 
ENDBRANCH  23  24
BRANCH  23  30
ATOM     30  S   UNL     1       8.313   3.286  12.223  0.00  0.00    +0.075 S 
ATOM     31  O   UNL     1       7.410   4.094  12.966  0.00  0.00    -0.150 OA
ATOM     32  O   UNL     1       8.582   1.933  12.563  0.00  0.00    -0.150 OA
BRANCH  30  33
ATOM     33  C   UNL     1       9.862   4.126  12.230  0.00  0.00    +0.109 A 
ATOM     34  C   UNL     1      11.023   3.436  11.934  0.00  0.00    +0.029 A 
ATOM     35  C   UNL     1      12.238   4.095  11.939  0.00  0.00    +0.002 A 
ATOM     36  C   UNL     1      12.293   5.443  12.241  0.00  0.00    +0.000 A 
ATOM     37  C   UNL     1      11.132   6.132  12.536  0.00  0.00    +0.002 A 
ATOM     38  C   UNL     1       9.916   5.475  12.526  0.00  0.00    +0.029 A 
ENDBRANCH  30  33
ENDBRANCH  23  30
ENDBRANCH  22  23
ENDBRANCH   4  22
TORSDOF 11
