REMARK  Name = ZINC62007261
REMARK  7 active torsions:
REMARK  status: ('A' for Active; 'I' for Inactive)
REMARK    1  A    between atoms: C_1  and  C_2
REMARK    2  A    between atoms: C_3  and  C_27
REMARK    3  A    between atoms: C_6  and  C_7
REMARK    4  A    between atoms: C_11  and  C_14
REMARK    5  A    between atoms: N_16  and  C_17
REMARK    6  A    between atoms: C_17  and  C_19
REMARK    7  A    between atoms: C_17  and  C_20
REMARK                            x       y       z     vdW  Elec       q    Type
REMARK                         _______ _______ _______ _____ _____    ______ ____
ROOT
ATOM      1  C   UNL     1      -0.018   1.503   0.010  0.00  0.00    +0.047 C 
ATOM      2  C   UNL     1       0.002  -0.004   0.002  0.00  0.00    -0.007 A 
ATOM      3  C   UNL     1       0.009  -0.821  -1.135  0.00  0.00    +0.064 A 
ATOM      4  N   UNL     1       0.027  -2.070  -0.746  0.00  0.00    -0.170 NA
ATOM      5  N   UNL     1       0.033  -2.092   0.655  0.00  0.00    -0.218 N 
ATOM      6  C   UNL     1       0.023  -0.805   1.091  0.00  0.00    +0.047 A 
ATOM      7  C   UNL     1       0.032  -0.352   2.529  0.00  0.00    +0.066 C 
ATOM      8  C   UNL     1       0.052  -3.232   1.459  0.00  0.00    +0.154 A 
ATOM      9  C   UNL     1      -0.440  -4.433   0.957  0.00  0.00    +0.049 A 
ATOM     10  C   UNL     1      -0.419  -5.558   1.757  0.00  0.00    +0.018 A 
ATOM     11  C   UNL     1       0.102  -5.443   3.054  0.00  0.00    +0.055 A 
ATOM     12  C   UNL     1       0.577  -4.204   3.485  0.00  0.00    +0.126 A 
ATOM     13  N   UNL     1       0.542  -3.158   2.687  0.00  0.00    -0.235 NA
ATOM     14  C   UNL     1      -0.005  -0.343  -2.564  0.00  0.00    +0.068 C 
ENDROOT
BRANCH  11  15
ATOM     15  C   UNL     1       0.147  -6.616   3.950  0.00  0.00    +0.246 C 
ATOM     16  O   UNL     1      -0.269  -7.691   3.565  0.00  0.00    -0.270 OA
ATOM     17  N   UNL     1       0.650  -6.494   5.194  0.00  0.00    -0.305 N 
ATOM     18  H   UNL     1       0.982  -5.636   5.501  0.00  0.00    +0.150 HD
BRANCH  17  19
ATOM     19  C   UNL     1       0.695  -7.658   6.083  0.00  0.00    +0.100 C 
ATOM     20  C   UNL     1       1.966  -8.463   5.806  0.00  0.00    +0.033 C 
BRANCH  19  21
ATOM     21  C   UNL     1       0.696  -7.195   7.517  0.00  0.00    -0.027 A 
ATOM     22  C   UNL     1       1.431  -6.083   7.883  0.00  0.00    +0.008 A 
ATOM     23  C   UNL     1       1.432  -5.657   9.198  0.00  0.00    +0.038 A 
ATOM     24  C   UNL     1       0.696  -6.344  10.149  0.00  0.00    +0.123 A 
ATOM     25  C   UNL     1      -0.040  -7.457   9.780  0.00  0.00    +0.038 A 
ATOM     26  C   UNL     1      -0.044  -7.878   8.464  0.00  0.00    +0.008 A 
ATOM     27  F   UNL     1       0.697  -5.929  11.434  0.00  0.00    -0.205 F 
ENDBRANCH  19  21
ENDBRANCH  17  19
ENDBRANCH  11  15
TORSDOF 3
