REMARK  Name = ZINC37425643
REMARK  12 active torsions:
REMARK  status: ('A' for Active; 'I' for Inactive)
REMARK    1  A    between atoms: C_1  and  C_2
REMARK    2  A    between atoms: C_7  and  N_8
REMARK    3  A    between atoms: C_11  and  C_13
REMARK    4  A    between atoms: C_13  and  C_14
REMARK    5  A    between atoms: C_13  and  C_15
REMARK    6  A    between atoms: C_13  and  C_16
REMARK    7  A    between atoms: C_17  and  C_31
REMARK    8  A    between atoms: N_23  and  C_24
REMARK    9  A    between atoms: C_24  and  C_25
REMARK   10  A    between atoms: N_27  and  C_28
REMARK   11  A    between atoms: C_28  and  C_29
REMARK   12  A    between atoms: C_28  and  C_30
REMARK                            x       y       z     vdW  Elec       q    Type
REMARK                         _______ _______ _______ _____ _____    ______ ____
ROOT
ATOM      1  N   UNL     1       1.438   3.630   1.192  0.00  0.00    -0.217 N 
ATOM      2  C   UNL     1       2.411   2.775   1.588  0.00  0.00    +0.136 A 
ATOM      3  C   UNL     1       2.206   2.481   2.893  0.00  0.00    +0.034 A 
ATOM      4  C   UNL     1       1.069   3.171   3.315  0.00  0.00    +0.075 A 
ATOM      5  N   UNL     1       0.610   3.864   2.300  0.00  0.00    -0.169 NA
ATOM      6  C   UNL     1       3.077   1.567   3.716  0.00  0.00    +0.112 C 
ATOM      7  S   UNL     1       2.760  -0.160   3.203  0.00  0.00    -0.138 S 
ATOM      8  C   UNL     1       2.635   0.005   1.390  0.00  0.00    +0.166 C 
ATOM      9  C   UNL     1       3.689   0.934   0.867  0.00  0.00    +0.231 C 
ATOM     10  O   UNL     1       4.749   0.488   0.481  0.00  0.00    -0.274 OA
ATOM     11  N   UNL     1       3.466   2.251   0.826  0.00  0.00    -0.246 N 
ENDROOT
BRANCH   1  18
ATOM     12  C   UNL     1       1.093   6.447   0.974  0.00  0.00    +0.046 C 
ATOM     13  C   UNL     1       1.119   5.552  -0.238  0.00  0.00    -0.025 A 
ATOM     14  C   UNL     1       0.978   6.094  -1.501  0.00  0.00    +0.005 A 
ATOM     15  C   UNL     1       1.002   5.274  -2.614  0.00  0.00    +0.000 A 
ATOM     16  C   UNL     1       1.166   3.909  -2.467  0.00  0.00    +0.002 A 
ATOM     17  C   UNL     1       1.308   3.361  -1.207  0.00  0.00    +0.028 A 
ATOM     18  C   UNL     1       1.290   4.183  -0.088  0.00  0.00    +0.070 A 
ENDBRANCH   1  18
BRANCH   6  19
ATOM     19  C   UNL     1       2.746   1.733   5.177  0.00  0.00    -0.029 A 
ATOM     20  C   UNL     1       1.961   0.793   5.819  0.00  0.00    +0.005 A 
ATOM     21  C   UNL     1       1.657   0.944   7.159  0.00  0.00    +0.002 A 
ATOM     22  C   UNL     1       2.136   2.036   7.858  0.00  0.00    +0.020 A 
ATOM     23  C   UNL     1       2.921   2.977   7.216  0.00  0.00    +0.041 A 
ATOM     24  C   UNL     1       3.231   2.822   5.876  0.00  0.00    +0.025 A 
ATOM     25 CL   UNL     1       3.524   4.349   8.093  0.00  0.00    -0.084 Cl
ENDBRANCH   6  19
BRANCH   4  26
ATOM     26  C   UNL     1       0.474   3.132   4.699  0.00  0.00    +0.007 C 
ATOM     27  C   UNL     1       1.320   3.990   5.642  0.00  0.00    +0.017 C 
ATOM     28  C   UNL     1      -0.955   3.678   4.656  0.00  0.00    +0.017 C 
ATOM     29  C   UNL     1       0.454   1.688   5.204  0.00  0.00    +0.017 C 
ENDBRANCH   4  26
BRANCH  11  30
ATOM     30  C   UNL     1       4.303   3.127   0.003  0.00  0.00    +0.210 C 
BRANCH  30  31
ATOM     31  C   UNL     1       5.532   3.522   0.779  0.00  0.00    +0.231 C 
ATOM     32  O   UNL     1       5.694   3.112   1.909  0.00  0.00    -0.274 OA
ATOM     33  N   UNL     1       6.453   4.331   0.218  0.00  0.00    -0.312 N 
ATOM     34  H   UNL     1       6.324   4.659  -0.686  0.00  0.00    +0.149 HD
BRANCH  33  35
ATOM     35  C   UNL     1       7.648   4.715   0.973  0.00  0.00    +0.067 C 
ATOM     36  C   UNL     1       8.774   5.070  -0.001  0.00  0.00    +0.027 C 
ATOM     37  C   UNL     1       7.330   5.928   1.849  0.00  0.00    +0.027 C 
ENDBRANCH  33  35
ENDBRANCH  30  31
ENDBRANCH  11  30
TORSDOF 6
