REMARK  Name = ZINC35047353
REMARK  8 active torsions:
REMARK  status: ('A' for Active; 'I' for Inactive)
REMARK    1  A    between atoms: C_1  and  C_2
REMARK    2  A    between atoms: C_2  and  O_3
REMARK    3  A    between atoms: O_3  and  C_4
REMARK    4  A    between atoms: C_4  and  C_6
REMARK    5  A    between atoms: C_10  and  N_11
REMARK    6  A    between atoms: C_12  and  C_14
REMARK    7  A    between atoms: C_15  and  C_16
REMARK    8  A    between atoms: C_20  and  N_22
REMARK                            x       y       z     vdW  Elec       q    Type
REMARK                         _______ _______ _______ _____ _____    ______ ____
ROOT
ATOM      1  C   UNL     1       6.087  -2.023   0.560  0.00  0.00    +0.068 C 
ATOM      2  C   UNL     1       7.391  -2.331   0.709  0.00  0.00    +0.013 C 
ENDROOT
BRANCH   2   3
ATOM      3  C   UNL     1       8.276  -2.373  -0.467  0.00  0.00    -0.023 A 
ATOM      4  C   UNL     1       7.768  -2.088  -1.739  0.00  0.00    +0.008 A 
ATOM      5  C   UNL     1       8.600  -2.128  -2.838  0.00  0.00    +0.002 A 
ATOM      6  C   UNL     1       9.937  -2.450  -2.688  0.00  0.00    +0.024 A 
ATOM      7  C   UNL     1      10.452  -2.736  -1.430  0.00  0.00    +0.044 A 
ATOM      8  C   UNL     1       9.628  -2.693  -0.317  0.00  0.00    +0.032 A 
BRANCH   7   9
ATOM      9  N   UNL     1      11.808  -3.061  -1.286  0.00  0.00    -0.210 N 
ATOM     10  C   UNL     1      12.791  -2.179  -1.500  0.00  0.00    +0.231 C 
ATOM     11  O   UNL     1      12.634  -1.025  -1.834  0.00  0.00    -0.274 OA
ATOM     12  C   UNL     1      14.126  -2.845  -1.259  0.00  0.00    +0.095 C 
ATOM     13  C   UNL     1      14.848  -3.006  -2.634  0.00  0.00    +0.025 C 
ATOM     14  C   UNL     1      15.600  -4.367  -2.404  0.00  0.00    +0.016 C 
ATOM     15  C   UNL     1      14.276  -5.149  -2.076  0.00  0.00    +0.025 C 
ATOM     16  C   UNL     1      13.735  -4.298  -0.858  0.00  0.00    +0.095 C 
ATOM     17  C   UNL     1      12.224  -4.278  -0.917  0.00  0.00    +0.231 C 
ATOM     18  O   UNL     1      11.502  -5.220  -0.670  0.00  0.00    -0.274 OA
ATOM     19  C   UNL     1      13.412  -4.710  -3.264  0.00  0.00    -0.027 C 
ATOM     20  C   UNL     1      13.737  -3.454  -3.590  0.00  0.00    -0.027 C 
ENDBRANCH   7   9
ENDBRANCH   2   3
BRANCH   1  22
ATOM     21  N   UNL     1       3.904  -1.673   1.581  0.00  0.00    -0.276 N 
ATOM     22  C   UNL     1       5.208  -1.981   1.730  0.00  0.00    +0.241 C 
ATOM     23  O   UNL     1       5.654  -2.224   2.835  0.00  0.00    -0.270 OA
ATOM     24  H   UNL     1       3.549  -1.479   0.700  0.00  0.00    +0.156 HD
BRANCH  21  29
ATOM     25  C   UNL     1       1.717  -1.338   2.725  0.00  0.00    +0.091 A 
ATOM     26  C   UNL     1       1.067  -1.371   4.024  0.00  0.00    -0.021 A 
ATOM     27  C   UNL     1       1.891  -1.687   5.046  0.00  0.00    -0.004 A 
ATOM     28  S   UNL     1       3.472  -1.929   4.291  0.00  0.00    -0.077 S 
ATOM     29  C   UNL     1       3.072  -1.633   2.687  0.00  0.00    +0.087 A 
ATOM     30  C   UNL     1       1.526  -1.800   6.495  0.00  0.00    +0.043 C 
ATOM     31  C   UNL     1       0.156  -1.136   6.700  0.00  0.00    +0.005 C 
ATOM     32  C   UNL     1      -0.808  -1.645   5.624  0.00  0.00    +0.005 C 
ATOM     33  C   UNL     1      -0.409  -1.083   4.258  0.00  0.00    +0.037 C 
BRANCH  25  34
ATOM     34  C   UNL     1       0.972  -1.013   1.508  0.00  0.00    +0.342 C 
ATOM     35  O   UNL     1       0.437  -1.898   0.867  0.00  0.00    -0.245 OA
BRANCH  34  36
ATOM     36  O   UNL     1       0.879   0.268   1.096  0.00  0.00    -0.461 OA
BRANCH  36  38
ATOM     37  C   UNL     1       0.143   2.012  -0.407  0.00  0.00    +0.048 C 
ATOM     38  C   UNL     1       0.137   0.513  -0.101  0.00  0.00    +0.229 C 
ENDBRANCH  36  38
ENDBRANCH  34  36
ENDBRANCH  25  34
ENDBRANCH  21  29
ENDBRANCH   1  22
TORSDOF 7
