REMARK  Name = ZINC35396736
REMARK  11 active torsions:
REMARK  status: ('A' for Active; 'I' for Inactive)
REMARK    1  A    between atoms: C_1  and  C_2
REMARK    2  A    between atoms: C_5  and  S_8
REMARK    3  A    between atoms: S_8  and  C_11
REMARK    4  A    between atoms: C_12  and  C_32
REMARK    5  A    between atoms: C_14  and  C_31
REMARK    6  A    between atoms: N_15  and  C_18
REMARK    7  A    between atoms: C_18  and  C_19
REMARK    8  A    between atoms: N_21  and  C_22
REMARK    9  A    between atoms: C_22  and  C_23
REMARK   10  A    between atoms: C_23  and  C_24
REMARK   11  A    between atoms: C_24  and  C_25
REMARK                            x       y       z     vdW  Elec       q    Type
REMARK                         _______ _______ _______ _____ _____    ______ ____
ROOT
ATOM      1  C   UNL     1       1.710  -5.236  -0.103  0.00  0.00    +0.161 A 
ATOM      2  C   UNL     1       2.304  -5.622   1.063  0.00  0.00    -0.018 A 
ATOM      3  C   UNL     1       3.694  -5.798   1.098  0.00  0.00    +0.026 A 
ATOM      4  C   UNL     1       4.431  -5.585  -0.018  0.00  0.00    +0.020 A 
ATOM      5  N   UNL     1       3.837  -5.201  -1.177  0.00  0.00    -0.302 N 
ATOM      6  C   UNL     1       2.504  -5.029  -1.244  0.00  0.00    +0.278 A 
ATOM      7  O   UNL     1       1.984  -4.689  -2.295  0.00  0.00    -0.266 OA
ATOM      8  C   UNL     1       5.925  -5.776   0.028  0.00  0.00    +0.063 C 
ATOM      9  C   UNL     1       1.475  -5.856   2.300  0.00  0.00    +0.046 C 
ENDROOT
BRANCH   1  10
ATOM     10  S   UNL     1      -0.036  -5.008  -0.179  0.00  0.00    +0.030 S 
ATOM     11  O   UNL     1      -0.578  -5.635   0.975  0.00  0.00    -0.164 OA
ATOM     12  O   UNL     1      -0.434  -5.361  -1.496  0.00  0.00    -0.164 OA
BRANCH  10  17
ATOM     13  C   UNL     1      -1.091   0.903   0.415  0.00  0.00    +0.044 C 
ATOM     14  C   UNL     1      -0.827  -0.573   0.267  0.00  0.00    -0.050 A 
ATOM     15  C   UNL     1      -0.636  -1.118  -0.989  0.00  0.00    +0.005 A 
ATOM     16  C   UNL     1      -0.394  -2.472  -1.125  0.00  0.00    +0.027 A 
ATOM     17  C   UNL     1      -0.343  -3.281  -0.006  0.00  0.00    +0.094 A 
ATOM     18  C   UNL     1      -0.533  -2.736   1.250  0.00  0.00    +0.027 A 
ATOM     19  C   UNL     1      -0.770  -1.381   1.387  0.00  0.00    +0.005 A 
ENDBRANCH  10  17
ENDBRANCH   1  10
BRANCH   5  20
ATOM     20  C   UNL     1       4.657  -4.978  -2.370  0.00  0.00    +0.220 C 
BRANCH  20  21
ATOM     21  C   UNL     1       4.775  -6.263  -3.147  0.00  0.00    +0.233 C 
ATOM     22  O   UNL     1       4.228  -7.268  -2.744  0.00  0.00    -0.274 OA
ATOM     23  N   UNL     1       5.488  -6.297  -4.290  0.00  0.00    -0.314 N 
ATOM     24  H   UNL     1       5.926  -5.494  -4.613  0.00  0.00    +0.149 HD
BRANCH  23  25
ATOM     25  C   UNL     1       5.603  -7.548  -5.045  0.00  0.00    +0.104 C 
BRANCH  25  26
ATOM     26  C   UNL     1       6.459  -7.314  -6.292  0.00  0.00    +0.023 C 
BRANCH  26  27
ATOM     27  C   UNL     1       6.579  -8.619  -7.080  0.00  0.00    +0.036 C 
BRANCH  27  28
ATOM     28  C   UNL     1       7.422  -8.389  -8.308  0.00  0.00    -0.047 A 
ATOM     29  C   UNL     1       6.827  -7.993  -9.491  0.00  0.00    +0.003 A 
ATOM     30  C   UNL     1       7.600  -7.782 -10.617  0.00  0.00    +0.000 A 
ATOM     31  C   UNL     1       8.969  -7.966 -10.560  0.00  0.00    +0.000 A 
ATOM     32  C   UNL     1       9.565  -8.362  -9.377  0.00  0.00    +0.000 A 
ATOM     33  C   UNL     1       8.791  -8.569  -8.249  0.00  0.00    +0.003 A 
ENDBRANCH  27  28
ENDBRANCH  26  27
ENDBRANCH  25  26
ENDBRANCH  23  25
ENDBRANCH  20  21
ENDBRANCH   5  20
TORSDOF 8
