REMARK  Name = ZINC11012511
REMARK  12 active torsions:
REMARK  status: ('A' for Active; 'I' for Inactive)
REMARK    1  A    between atoms: C_1  and  C_2
REMARK    2  A    between atoms: C_2  and  C_3
REMARK    3  A    between atoms: C_2  and  O_4
REMARK    4  A    between atoms: O_4  and  C_5
REMARK    5  A    between atoms: C_5  and  C_7
REMARK    6  A    between atoms: C_10  and  N_13
REMARK    7  A    between atoms: C_14  and  C_16
REMARK    8  A    between atoms: C_16  and  N_51
REMARK    9  A    between atoms: C_17  and  N_51
REMARK   10  A    between atoms: C_18  and  C_19
REMARK   11  A    between atoms: C_18  and  N_51
REMARK   12  A    between atoms: C_21  and  N_26
REMARK                            x       y       z     vdW  Elec       q    Type
REMARK                         _______ _______ _______ _____ _____    ______ ____
ROOT
ATOM      1  N   UNL     1       1.395   7.228  -3.222  0.00  0.00    -0.287 N 
ATOM      2  C   UNL     1       0.982   5.990  -2.883  0.00  0.00    +0.201 C 
ATOM      3  O   UNL     1       0.566   5.235  -3.736  0.00  0.00    -0.278 OA
ATOM      4  H   UNL     1       1.657   7.857  -2.533  0.00  0.00    +0.155 HD
ENDROOT
BRANCH   1   8
ATOM      5  C   UNL     1       1.548   8.347  -7.231  0.00  0.00    +0.059 A 
ATOM      6  C   UNL     1       1.233   9.293  -6.251  0.00  0.00    +0.017 A 
ATOM      7  C   UNL     1       1.183   8.919  -4.928  0.00  0.00    +0.024 A 
ATOM      8  C   UNL     1       1.446   7.602  -4.564  0.00  0.00    +0.033 A 
ATOM      9  C   UNL     1       1.766   6.659  -5.536  0.00  0.00    +0.024 A 
ATOM     10  C   UNL     1       1.812   7.024  -6.862  0.00  0.00    +0.017 A 
BRANCH   5  11
ATOM     11  C   UNL     1       1.602   8.743  -8.651  0.00  0.00    +0.339 C 
ATOM     12  O   UNL     1       1.373   9.892  -8.970  0.00  0.00    -0.245 OA
BRANCH  11  13
ATOM     13  O   UNL     1       1.906   7.830  -9.594  0.00  0.00    -0.458 OA
BRANCH  13  15
ATOM     14  C   UNL     1       3.353   8.771 -11.312  0.00  0.00    +0.052 C 
ATOM     15  C   UNL     1       1.941   8.290 -10.970  0.00  0.00    +0.171 C 
ATOM     16  C   UNL     1       1.555   7.141 -11.903  0.00  0.00    +0.052 C 
ENDBRANCH  13  15
ENDBRANCH  11  13
ENDBRANCH   5  11
ENDBRANCH   1   8
BRANCH   2  17
ATOM     17  C   UNL     1       1.036   5.546  -1.444  0.00  0.00    +0.019 C 
BRANCH  17  19
ATOM     18  C   UNL     1      -0.895   4.103  -1.670  0.00  0.00    -0.095 C 
ATOM     19  N   UNL     1       0.548   4.153  -1.357  0.00  0.00    +0.386 N 
ATOM     20  H   UNL     1       1.058   3.578  -2.037  0.00  0.00    -0.081 HD
BRANCH  19  21
ATOM     21  C   UNL     1       0.789   3.618   0.000  0.00  0.00    -0.041 C 
BRANCH  21  22
ATOM     22  C   UNL     1       0.718   2.114  -0.055  0.00  0.00    -0.043 A 
ATOM     23  C   UNL     1      -0.378   1.454   0.469  0.00  0.00    +0.036 A 
ATOM     24  C   UNL     1      -0.442   0.074   0.419  0.00  0.00    +0.126 A 
ATOM     25  C   UNL     1       0.589  -0.647  -0.155  0.00  0.00    +0.034 A 
ATOM     26  C   UNL     1       1.685   0.012  -0.678  0.00  0.00    +0.022 A 
ATOM     27  C   UNL     1       1.750   1.393  -0.628  0.00  0.00    +0.042 A 
ATOM     28 CL   UNL     1       3.131   2.221  -1.279  0.00  0.00    -0.083 Cl
BRANCH  24  29
ATOM     29  N   UNL     1      -1.616  -0.632   0.980  0.00  0.00    +0.056 N 
ATOM     30  O   UNL     1      -1.673  -1.848   0.936  0.00  0.00    -0.126 OA
ATOM     31  O   UNL     1      -2.524   0.002   1.485  0.00  0.00    -0.126 OA
ENDBRANCH  24  29
ENDBRANCH  21  22
ENDBRANCH  19  21
ENDBRANCH  17  19
ENDBRANCH   2  17
TORSDOF 9
