REMARK  Name = ZINC13215796
REMARK  8 active torsions:
REMARK  status: ('A' for Active; 'I' for Inactive)
REMARK    1  A    between atoms: C_1  and  C_2
REMARK    2  A    between atoms: C_5  and  C_33
REMARK    3  A    between atoms: C_7  and  N_8
REMARK    4  A    between atoms: C_9  and  C_26
REMARK    5  A    between atoms: C_11  and  C_16
REMARK    6  A    between atoms: C_16  and  C_18
REMARK    7  A    between atoms: C_23  and  O_24
REMARK    8  A    between atoms: O_24  and  C_25
REMARK                            x       y       z     vdW  Elec       q    Type
REMARK                         _______ _______ _______ _____ _____    ______ ____
ROOT
ATOM      1  N   UNL     1      -0.064  -0.251   2.581  0.00  0.00    -0.253 N 
ATOM      2  C   UNL     1      -1.212   0.321   3.294  0.00  0.00    +0.152 C 
ATOM      3  C   UNL     1      -0.639   1.235   4.352  0.00  0.00    +0.077 C 
ATOM      4  C   UNL     1       0.708   1.172   4.234  0.00  0.00    +0.250 C 
ATOM      5  C   UNL     1       1.056   0.245   3.137  0.00  0.00    +0.292 C 
ATOM      6  O   UNL     1       2.188  -0.028   2.788  0.00  0.00    -0.266 OA
ATOM      7  O   UNL     1       1.595   1.848   5.001  0.00  0.00    -0.282 OA
ENDROOT
BRANCH   1  14
ATOM      8  C   UNL     1      -0.407   0.790  -0.040  0.00  0.00    +0.045 C 
ATOM      9  C   UNL     1      -0.290  -0.690   0.218  0.00  0.00    -0.029 A 
ATOM     10  C   UNL     1      -0.344  -1.580  -0.839  0.00  0.00    +0.006 A 
ATOM     11  C   UNL     1      -0.238  -2.936  -0.611  0.00  0.00    +0.015 A 
ATOM     12  C   UNL     1      -0.075  -3.416   0.692  0.00  0.00    +0.065 A 
ATOM     13  C   UNL     1      -0.021  -2.517   1.758  0.00  0.00    +0.039 A 
ATOM     14  C   UNL     1      -0.123  -1.155   1.517  0.00  0.00    +0.041 A 
BRANCH  12  15
ATOM     15  C   UNL     1       0.037  -4.866   0.939  0.00  0.00    +0.387 C 
ATOM     16  O   UNL     1      -0.011  -5.651   0.002  0.00  0.00    -0.241 OA
ATOM     17  O   UNL     1       0.179  -5.283   2.079  0.00  0.00    -0.241 OA
ENDBRANCH  12  15
ENDBRANCH   1  14
BRANCH   2  18
ATOM     18  C   UNL     1      -2.022  -0.775   3.937  0.00  0.00    +0.013 A 
ATOM     19  C   UNL     1      -3.396  -0.794   3.794  0.00  0.00    +0.008 A 
ATOM     20  C   UNL     1      -4.139  -1.800   4.384  0.00  0.00    +0.001 A 
ATOM     21  C   UNL     1      -3.508  -2.788   5.118  0.00  0.00    +0.003 A 
ATOM     22  C   UNL     1      -2.133  -2.770   5.262  0.00  0.00    +0.039 A 
ATOM     23  C   UNL     1      -1.388  -1.766   4.667  0.00  0.00    +0.129 A 
ATOM     24  F   UNL     1      -0.044  -1.751   4.803  0.00  0.00    -0.205 F 
ENDBRANCH   2  18
BRANCH   3  25
ATOM     25  C   UNL     1      -1.395   2.035   5.320  0.00  0.00    +0.199 C 
ATOM     26  O   UNL     1      -1.318   1.785   6.509  0.00  0.00    -0.287 OA
BRANCH  25  27
ATOM     27  C   UNL     1      -2.250   3.143   4.853  0.00  0.00    +0.064 A 
ATOM     28  C   UNL     1      -2.258   3.505   3.503  0.00  0.00    +0.015 A 
ATOM     29  C   UNL     1      -3.059   4.540   3.073  0.00  0.00    +0.001 A 
ATOM     30  C   UNL     1      -3.858   5.226   3.974  0.00  0.00    +0.004 A 
ATOM     31  C   UNL     1      -3.860   4.880   5.311  0.00  0.00    +0.046 A 
ATOM     32  C   UNL     1      -3.065   3.837   5.760  0.00  0.00    +0.131 A 
BRANCH  32  33
ATOM     33  O   UNL     1      -3.071   3.491   7.072  0.00  0.00    -0.494 OA
ATOM     34  C   UNL     1      -3.926   4.242   7.937  0.00  0.00    +0.277 C 
ENDBRANCH  32  33
ENDBRANCH  25  27
ENDBRANCH   3  25
TORSDOF 6
