REMARK  Name = ZINC08597651
REMARK  7 active torsions:
REMARK  status: ('A' for Active; 'I' for Inactive)
REMARK    1  A    between atoms: C_1  and  C_2
REMARK    2  A    between atoms: C_5  and  C_8
REMARK    3  A    between atoms: C_8  and  C_9
REMARK    4  A    between atoms: C_9  and  N_10
REMARK    5  A    between atoms: C_11  and  C_13
REMARK    6  A    between atoms: N_19  and  C_30
REMARK    7  A    between atoms: C_30  and  C_31
REMARK                            x       y       z     vdW  Elec       q    Type
REMARK                         _______ _______ _______ _____ _____    ______ ____
ROOT
ATOM      1  C   UNL     1       2.722  -8.369  -0.059  0.00  0.00    +0.039 A 
ATOM      2  C   UNL     1       1.523  -9.084  -0.062  0.00  0.00    +0.014 A 
ATOM      3  C   UNL     1       1.552 -10.463  -0.071  0.00  0.00    +0.020 A 
ATOM      4  C   UNL     1       2.759 -11.140  -0.076  0.00  0.00    +0.065 A 
ATOM      5  C   UNL     1       3.958 -10.445  -0.071  0.00  0.00    +0.054 A 
ATOM      6  C   UNL     1       3.935  -9.051  -0.069  0.00  0.00    +0.037 A 
ATOM      7  N   UNL     1       5.185 -11.083  -0.068  0.00  0.00    -0.262 N 
ATOM      8  C   UNL     1       5.620 -12.093  -0.773  0.00  0.00    +0.252 C 
ATOM      9  O   UNL     1       6.772 -12.421  -0.565  0.00  0.00    -0.270 OA
ATOM     10  C   UNL     1       4.909 -12.886  -1.780  0.00  0.00    +0.053 A 
ATOM     11  C   UNL     1       5.564 -13.227  -2.971  0.00  0.00    +0.014 A 
ATOM     12  C   UNL     1       4.912 -13.969  -3.931  0.00  0.00    +0.001 A 
ATOM     13  C   UNL     1       3.607 -14.380  -3.727  0.00  0.00    +0.001 A 
ATOM     14  C   UNL     1       2.952 -14.049  -2.555  0.00  0.00    +0.018 A 
ATOM     15  C   UNL     1       3.596 -13.309  -1.585  0.00  0.00    +0.056 A 
ATOM     16  S   UNL     1       2.755 -12.903  -0.091  0.00  0.00    +0.088 S 
ATOM     17  O   UNL     1       3.677 -13.257   0.931  0.00  0.00    -0.247 OA
ENDROOT
BRANCH   1  19
ATOM     18  N   UNL     1       1.527  -6.231  -0.040  0.00  0.00    -0.311 N 
ATOM     19  C   UNL     1       2.703  -6.890  -0.050  0.00  0.00    +0.244 C 
ATOM     20  O   UNL     1       3.748  -6.269  -0.053  0.00  0.00    -0.270 OA
ATOM     21  H   UNL     1       0.694  -6.727  -0.038  0.00  0.00    +0.149 HD
BRANCH  18  22
ATOM     22  C   UNL     1       1.508  -4.767  -0.032  0.00  0.00    +0.109 C 
BRANCH  22  23
ATOM     23  C   UNL     1       0.059  -4.275  -0.021  0.00  0.00    +0.054 C 
BRANCH  23  28
ATOM     24  C   UNL     1      -0.018   1.503   0.010  0.00  0.00    +0.044 C 
ATOM     25  C   UNL     1       0.002  -0.004   0.002  0.00  0.00    -0.050 A 
ATOM     26  C   UNL     1       0.006  -0.689  -1.199  0.00  0.00    +0.003 A 
ATOM     27  C   UNL     1       0.025  -2.071  -1.206  0.00  0.00    +0.004 A 
ATOM     28  C   UNL     1       0.040  -2.768  -0.013  0.00  0.00    -0.046 A 
ATOM     29  C   UNL     1       0.037  -2.084   1.188  0.00  0.00    +0.004 A 
ATOM     30  C   UNL     1       0.023  -0.702   1.195  0.00  0.00    +0.003 A 
ENDBRANCH  23  28
ENDBRANCH  22  23
ENDBRANCH  18  22
ENDBRANCH   1  19
BRANCH   7  31
ATOM     31  C   UNL     1       6.157 -10.536   0.881  0.00  0.00    +0.152 C 
BRANCH  31  32
ATOM     32  C   UNL     1       6.022 -11.245   2.204  0.00  0.00    +0.005 A 
ATOM     33  C   UNL     1       5.317 -10.655   3.236  0.00  0.00    +0.008 A 
ATOM     34  C   UNL     1       5.192 -11.306   4.449  0.00  0.00    +0.000 A 
ATOM     35  C   UNL     1       5.773 -12.547   4.632  0.00  0.00    +0.003 A 
ATOM     36  C   UNL     1       6.479 -13.139   3.602  0.00  0.00    +0.038 A 
ATOM     37  C   UNL     1       6.599 -12.491   2.384  0.00  0.00    +0.128 A 
ATOM     38  F   UNL     1       7.285 -13.070   1.374  0.00  0.00    -0.205 F 
ENDBRANCH  31  32
ENDBRANCH   7  31
TORSDOF 6
