REMARK  Name = ZINC35455488
REMARK  9 active torsions:
REMARK  status: ('A' for Active; 'I' for Inactive)
REMARK    1  A    between atoms: C_1  and  C_2
REMARK    2  A    between atoms: C_5  and  O_30
REMARK    3  A    between atoms: C_9  and  C_29
REMARK    4  A    between atoms: C_11  and  O_28
REMARK    5  A    between atoms: C_13  and  O_27
REMARK    6  A    between atoms: C_14  and  C_26
REMARK    7  A    between atoms: C_23  and  C_24
REMARK    8  A    between atoms: C_23  and  C_25
REMARK    9  A    between atoms: O_30  and  C_31
REMARK                            x       y       z     vdW  Elec       q    Type
REMARK                         _______ _______ _______ _____ _____    ______ ____
ROOT
ATOM      1  C   UNL     1       0.594   1.886   0.402  0.00  0.00    +0.048 C 
ATOM      2  C   UNL     1       0.756   0.406   0.168  0.00  0.00    -0.001 A 
ATOM      3  C   UNL     1       0.981  -0.092  -1.089  0.00  0.00    +0.014 A 
ATOM      4  C   UNL     1       1.150  -1.476  -1.316  0.00  0.00    +0.108 A 
ATOM      5  C   UNL     1       1.090  -2.388  -0.252  0.00  0.00    +0.141 A 
ATOM      6  C   UNL     1       0.851  -1.867   1.022  0.00  0.00    +0.037 A 
ATOM      7  C   UNL     1       0.688  -0.510   1.232  0.00  0.00    +0.131 A 
ATOM      8  O   UNL     1       0.443  -0.001   2.466  0.00  0.00    -0.485 OA
ATOM      9  C   UNL     1       0.703  -0.824   3.604  0.00  0.00    +0.114 C 
ATOM     10  C   UNL     1       0.019  -0.206   4.830  0.00  0.00    +0.082 C 
ATOM     11  C   UNL     1       0.325  -1.063   6.057  0.00  0.00    +0.154 C 
ATOM     12  C   UNL     1      -0.257  -2.473   5.874  0.00  0.00    +0.136 C 
ATOM     13  C   UNL     1       0.180  -3.072   4.583  0.00  0.00    +0.010 C 
ATOM     14  C   UNL     1       0.078  -2.203   3.357  0.00  0.00    +0.046 C 
ATOM     15  C   UNL     1       0.791  -2.847   2.170  0.00  0.00    +0.050 C 
ATOM     16  C   UNL     1       1.400  -3.977   4.615  0.00  0.00    +0.021 C 
ATOM     17  C   UNL     1       2.529  -3.362   5.433  0.00  0.00    +0.121 C 
ATOM     18  C   UNL     1       2.287  -3.677   6.897  0.00  0.00    +0.308 C 
ATOM     19  O   UNL     1       2.997  -4.489   7.441  0.00  0.00    -0.251 OA
ATOM     20  O   UNL     1       1.341  -3.104   7.592  0.00  0.00    -0.456 OA
ATOM     21  C   UNL     1       0.002  -3.268   7.121  0.00  0.00    +0.139 C 
ATOM     22  C   UNL     1      -0.969  -2.812   8.212  0.00  0.00    +0.058 C 
ATOM     23  C   UNL     1      -0.244  -4.749   6.827  0.00  0.00    +0.058 C 
ATOM     24  C   UNL     1      -0.928  -4.095   4.325  0.00  0.00    +0.015 C 
ATOM     25  C   UNL     1       2.211  -0.958   3.828  0.00  0.00    +0.056 C 
ATOM     26  C   UNL     1       1.367  -1.672  -2.743  0.00  0.00    +0.343 C 
ATOM     27  O   UNL     1       1.548  -2.747  -3.280  0.00  0.00    -0.245 OA
ATOM     28  O   UNL     1       1.338  -0.484  -3.378  0.00  0.00    -0.456 OA
ATOM     29  C   UNL     1       1.103   0.564  -2.429  0.00  0.00    +0.269 C 
ENDROOT
BRANCH  12  30
ATOM     30  O   UNL     1      -1.673  -2.314   5.778  0.00  0.00    -0.381 OA
ATOM     31  H   UNL     1      -2.077  -1.907   6.557  0.00  0.00    +0.210 HD
ENDBRANCH  12  30
BRANCH  11  32
ATOM     32  O   UNL     1       1.740  -1.155   6.229  0.00  0.00    -0.389 OA
ATOM     33  H   UNL     1       2.177  -0.303   6.360  0.00  0.00    +0.210 HD
ENDBRANCH  11  32
BRANCH   5  34
ATOM     34  O   UNL     1       1.258  -3.719  -0.451  0.00  0.00    -0.494 OA
ATOM     35  C   UNL     1       2.591  -4.226  -0.364  0.00  0.00    +0.277 C 
ENDBRANCH   5  34
TORSDOF 3
