REMARK  Name = ZINC10353129
REMARK  5 active torsions:
REMARK  status: ('A' for Active; 'I' for Inactive)
REMARK    1  A    between atoms: C_1  and  C_2
REMARK    2  A    between atoms: C_8  and  C_10
REMARK    3  A    between atoms: C_11  and  C_30
REMARK    4  A    between atoms: N_12  and  C_24
REMARK    5  A    between atoms: C_16  and  C_18
REMARK                            x       y       z     vdW  Elec       q    Type
REMARK                         _______ _______ _______ _____ _____    ______ ____
ROOT
ATOM      1  C   UNL     1      -1.472   7.082   0.092  0.00  0.00    +0.057 C 
ATOM      2  C   UNL     1      -1.047   5.835   0.387  0.00  0.00    +0.025 C 
ATOM      3  N   UNL     1       0.285   5.556   0.514  0.00  0.00    -0.255 N 
ATOM      4  C   UNL     1       1.252   6.470   0.367  0.00  0.00    +0.142 C 
ATOM      5  S   UNL     1       2.884   5.987   0.560  0.00  0.00    -0.018 S 
ATOM      6  N   UNL     1       0.984   7.756   0.067  0.00  0.00    -0.314 N 
ATOM      7  C   UNL     1      -0.423   8.160  -0.091  0.00  0.00    +0.146 C 
ATOM      8  C   UNL     1      -2.057   4.733   0.577  0.00  0.00    +0.062 C 
ATOM      9  H   UNL     1       1.701   8.401  -0.039  0.00  0.00    +0.149 HD
ENDROOT
BRANCH   1  17
ATOM     10  C   UNL     1      -8.193   8.199  -0.880  0.00  0.00    +0.089 C 
ATOM     11  C   UNL     1      -6.765   8.680  -0.842  0.00  0.00    +0.136 A 
ATOM     12  C   UNL     1      -5.675   7.947  -0.520  0.00  0.00    +0.091 A 
ATOM     13  C   UNL     1      -4.598   8.866  -0.639  0.00  0.00    +0.168 A 
ATOM     14  N   UNL     1      -5.129  10.006  -0.999  0.00  0.00    -0.063 NA
ATOM     15  O   UNL     1      -6.329   9.916  -1.120  0.00  0.00    -0.358 OA
ATOM     16  N   UNL     1      -3.247   8.607  -0.413  0.00  0.00    -0.264 N 
ATOM     17  C   UNL     1      -2.852   7.374  -0.039  0.00  0.00    +0.249 C 
ATOM     18  O   UNL     1      -3.680   6.510   0.185  0.00  0.00    -0.270 OA
ATOM     19  H   UNL     1      -2.592   9.313  -0.525  0.00  0.00    +0.157 HD
ENDBRANCH   1  17
BRANCH   7  20
ATOM     20  C   UNL     1      -0.705   9.258   0.902  0.00  0.00    +0.016 A 
ATOM     21  C   UNL     1      -1.197  10.502   0.682  0.00  0.00    +0.028 A 
ATOM     22  C   UNL     1      -1.379  11.350   1.759  0.00  0.00    +0.025 A 
ATOM     23  C   UNL     1      -1.052  10.915   3.001  0.00  0.00    +0.060 A 
ATOM     24  S   UNL     1      -0.472   9.259   2.672  0.00  0.00    -0.098 S 
ATOM     25 BR   UNL     1      -2.068  13.092   1.502  0.00  0.00    -0.050 Br
ENDBRANCH   7  20
BRANCH   3  26
ATOM     26  C   UNL     1       0.658   4.241   0.820  0.00  0.00    +0.040 A 
ATOM     27  C   UNL     1       0.460   3.742   2.100  0.00  0.00    +0.024 A 
ATOM     28  C   UNL     1       0.829   2.445   2.399  0.00  0.00    +0.002 A 
ATOM     29  C   UNL     1       1.395   1.644   1.425  0.00  0.00    +0.000 A 
ATOM     30  C   UNL     1       1.599   2.140   0.150  0.00  0.00    +0.002 A 
ATOM     31  C   UNL     1       1.227   3.434  -0.156  0.00  0.00    +0.024 A 
ENDBRANCH   3  26
TORSDOF 3
