REMARK  Name = ZINC53129370
REMARK  7 active torsions:
REMARK  status: ('A' for Active; 'I' for Inactive)
REMARK    1  A    between atoms: C_1  and  C_2
REMARK    2  A    between atoms: C_2  and  C_3
REMARK    3  A    between atoms: C_2  and  C_4
REMARK    4  A    between atoms: C_4  and  C_6
REMARK    5  A    between atoms: C_4  and  N_16
REMARK    6  A    between atoms: C_17  and  C_19
REMARK    7  A    between atoms: N_29  and  C_30
REMARK                            x       y       z     vdW  Elec       q    Type
REMARK                         _______ _______ _______ _____ _____    ______ ____
ROOT
ATOM      1  N   UNL     1       0.738  -1.962  -1.265  0.00  0.00    -0.304 N 
ATOM      2  C   UNL     1       1.710  -2.627  -0.608  0.00  0.00    +0.245 C 
ATOM      3  O   UNL     1       2.570  -2.010  -0.009  0.00  0.00    -0.270 OA
ATOM      4  H   UNL     1       0.052  -2.454  -1.743  0.00  0.00    +0.150 HD
ENDROOT
BRANCH   2   5
ATOM      5  C   UNL     1       1.730  -4.102  -0.616  0.00  0.00    +0.039 A 
ATOM      6  C   UNL     1       0.744  -4.810  -1.310  0.00  0.00    +0.015 A 
ATOM      7  C   UNL     1       0.762  -6.188  -1.320  0.00  0.00    +0.026 A 
ATOM      8  C   UNL     1       1.760  -6.872  -0.640  0.00  0.00    +0.051 A 
ATOM      9  C   UNL     1       2.748  -6.171   0.059  0.00  0.00    +0.055 A 
ATOM     10  C   UNL     1       2.738  -4.791   0.065  0.00  0.00    +0.038 A 
ATOM     11  N   UNL     1       3.740  -6.881   0.749  0.00  0.00    -0.283 N 
ATOM     12  C   UNL     1       3.930  -8.194   0.518  0.00  0.00    +0.235 C 
ATOM     13  O   UNL     1       4.765  -8.801   1.155  0.00  0.00    -0.274 OA
ATOM     14  C   UNL     1       3.114  -8.918  -0.523  0.00  0.00    +0.200 C 
ATOM     15  N   UNL     1       1.801  -8.267  -0.641  0.00  0.00    -0.323 N 
ATOM     16  C   UNL     1       0.574  -9.059  -0.757  0.00  0.00    +0.130 C 
ATOM     17  H   UNL     1       4.296  -6.422   1.398  0.00  0.00    +0.155 HD
ENDBRANCH   2   5
BRANCH   1  18
ATOM     18  C   UNL     1       0.718  -0.497  -1.257  0.00  0.00    +0.106 C 
BRANCH  18  19
ATOM     19  C   UNL     1      -0.011   0.002  -2.478  0.00  0.00    -0.023 A 
ATOM     20  C   UNL     1      -1.154  -0.643  -2.910  0.00  0.00    +0.009 A 
ATOM     21  C   UNL     1      -1.825  -0.189  -4.030  0.00  0.00    +0.050 A 
ATOM     22  C   UNL     1      -1.352   0.915  -4.723  0.00  0.00    +0.162 A 
ATOM     23  C   UNL     1      -0.203   1.565  -4.287  0.00  0.00    +0.162 A 
ATOM     24  C   UNL     1       0.462   1.107  -3.160  0.00  0.00    +0.055 A 
ATOM     25  O   UNL     1       0.273   2.655  -4.947  0.00  0.00    -0.485 OA
ATOM     26  C   UNL     1      -0.209   2.863  -6.279  0.00  0.00    +0.270 C 
ATOM     27  C   UNL     1      -1.732   2.678  -6.273  0.00  0.00    +0.270 C 
ATOM     28  O   UNL     1      -2.021   1.348  -5.827  0.00  0.00    -0.485 OA
ENDBRANCH  18  19
BRANCH  18  30
ATOM     29  C   UNL     1      -0.019   1.526   0.010  0.00  0.00    +0.009 C 
ATOM     30  C   UNL     1       0.002  -0.004   0.002  0.00  0.00    +0.008 C 
ATOM     31  C   UNL     1      -1.433  -0.534   0.013  0.00  0.00    +0.009 C 
ENDBRANCH  18  30
ENDBRANCH   1  18
TORSDOF 4
