REMARK  Name = ZINC23259814
REMARK  14 active torsions:
REMARK  status: ('A' for Active; 'I' for Inactive)
REMARK    1  A    between atoms: C_1  and  C_2
REMARK    2  A    between atoms: C_2  and  C_4
REMARK    3  A    between atoms: C_2  and  N_14
REMARK    4  A    between atoms: C_7  and  S_10
REMARK    5  A    between atoms: S_10  and  N_13
REMARK    6  A    between atoms: N_14  and  C_15
REMARK    7  A    between atoms: N_14  and  C_16
REMARK    8  A    between atoms: C_16  and  C_17
REMARK    9  A    between atoms: N_19  and  C_20
REMARK   10  A    between atoms: C_23  and  C_26
REMARK   11  A    between atoms: C_26  and  O_28
REMARK   12  A    between atoms: O_28  and  C_29
REMARK   13  A    between atoms: C_29  and  C_30
REMARK   14  A    between atoms: C_29  and  C_31
REMARK                            x       y       z     vdW  Elec       q    Type
REMARK                         _______ _______ _______ _____ _____    ______ ____
ROOT
ATOM      1  N   UNL     1       0.691  -0.478  -1.205  0.00  0.00    +0.388 N 
ATOM      2  C   UNL     1       2.068   0.035  -1.227  0.00  0.00    -0.095 C 
ATOM      3  H   UNL     1       0.196  -0.146  -2.020  0.00  0.00    -0.081 HD
ENDROOT
BRANCH   1   5
ATOM      4  C   UNL     1      -0.014   1.525   0.014  0.00  0.00    -0.008 C 
ATOM      5  C   UNL     1       0.011  -0.005   0.008  0.00  0.00    -0.041 C 
BRANCH   5   6
ATOM      6  C   UNL     1      -1.401  -0.531   0.030  0.00  0.00    -0.061 A 
ATOM      7  C   UNL     1      -2.139  -0.578  -1.138  0.00  0.00    +0.004 A 
ATOM      8  C   UNL     1      -3.434  -1.060  -1.118  0.00  0.00    +0.029 A 
ATOM      9  C   UNL     1      -3.991  -1.496   0.070  0.00  0.00    +0.105 A 
ATOM     10  C   UNL     1      -3.253  -1.450   1.238  0.00  0.00    +0.029 A 
ATOM     11  C   UNL     1      -1.956  -0.972   1.216  0.00  0.00    +0.004 A 
BRANCH   9  12
ATOM     12  S   UNL     1      -5.643  -2.110   0.096  0.00  0.00    +0.056 S 
ATOM     13  O   UNL     1      -6.116  -1.946   1.425  0.00  0.00    -0.153 OA
ATOM     14  O   UNL     1      -6.306  -1.540  -1.024  0.00  0.00    -0.153 OA
BRANCH  12  15
ATOM     15  N   UNL     1      -5.563  -3.741  -0.181  0.00  0.00    -0.204 NA
ATOM     16  H   UNL     1      -6.233  -4.330   0.200  0.00  0.00    +0.144 HD
ATOM     17  H   UNL     1      -4.847  -4.106  -0.724  0.00  0.00    +0.144 HD
ENDBRANCH  12  15
ENDBRANCH   9  12
ENDBRANCH   5   6
ENDBRANCH   1   5
BRANCH   1  18
ATOM     18  C   UNL     1       0.716  -1.947  -1.212  0.00  0.00    +0.019 C 
BRANCH  18  19
ATOM     19  C   UNL     1       1.302  -2.434  -2.512  0.00  0.00    +0.201 C 
ATOM     20  O   UNL     1       1.664  -1.636  -3.350  0.00  0.00    -0.278 OA
ATOM     21  N   UNL     1       1.424  -3.756  -2.742  0.00  0.00    -0.287 N 
ATOM     22  H   UNL     1       1.197  -4.393  -2.046  0.00  0.00    +0.155 HD
BRANCH  21  23
ATOM     23  C   UNL     1       1.877  -4.209  -3.981  0.00  0.00    +0.033 A 
ATOM     24  C   UNL     1       2.842  -3.485  -4.674  0.00  0.00    +0.024 A 
ATOM     25  C   UNL     1       3.291  -3.929  -5.897  0.00  0.00    +0.017 A 
ATOM     26  C   UNL     1       2.777  -5.109  -6.442  0.00  0.00    +0.059 A 
ATOM     27  C   UNL     1       1.808  -5.834  -5.743  0.00  0.00    +0.017 A 
ATOM     28  C   UNL     1       1.367  -5.387  -4.518  0.00  0.00    +0.024 A 
BRANCH  26  29
ATOM     29  C   UNL     1       3.256  -5.587  -7.752  0.00  0.00    +0.339 C 
ATOM     30  O   UNL     1       4.098  -4.956  -8.359  0.00  0.00    -0.245 OA
BRANCH  29  31
ATOM     31  O   UNL     1       2.759  -6.725  -8.277  0.00  0.00    -0.458 OA
BRANCH  31  32
ATOM     32  C   UNL     1       3.268  -7.129  -9.549  0.00  0.00    +0.171 C 
ATOM     33  C   UNL     1       4.489  -8.029  -9.348  0.00  0.00    +0.052 C 
ATOM     34  C   UNL     1       2.187  -7.900 -10.309  0.00  0.00    +0.052 C 
ENDBRANCH  31  32
ENDBRANCH  29  31
ENDBRANCH  26  29
ENDBRANCH  21  23
ENDBRANCH  18  19
ENDBRANCH   1  18
TORSDOF 10
