REMARK  Name = ZINC35777473
REMARK  13 active torsions:
REMARK  status: ('A' for Active; 'I' for Inactive)
REMARK    1  A    between atoms: C_1  and  C_2
REMARK    2  A    between atoms: C_2  and  C_3
REMARK    3  A    between atoms: C_4  and  C_22
REMARK    4  A    between atoms: C_5  and  O_14
REMARK    5  A    between atoms: N_6  and  C_8
REMARK    6  A    between atoms: O_14  and  C_15
REMARK    7  A    between atoms: C_22  and  N_23
REMARK    8  A    between atoms: N_23  and  C_24
REMARK    9  A    between atoms: N_23  and  C_35
REMARK   10  A    between atoms: C_24  and  C_25
REMARK   11  A    between atoms: C_25  and  C_27
REMARK   12  A    between atoms: C_25  and  O_34
REMARK   13  A    between atoms: C_27  and  C_28
REMARK                            x       y       z     vdW  Elec       q    Type
REMARK                         _______ _______ _______ _____ _____    ______ ____
ROOT
ATOM      1  C   UNL     1      -1.415  -0.741  -0.198  0.00  0.00    +0.068 A 
ATOM      2  C   UNL     1      -1.666  -0.742   1.178  0.00  0.00    +0.021 A 
ATOM      3  C   UNL     1      -2.973  -1.069   1.364  0.00  0.00    +0.225 A 
ATOM      4  N   UNL     1      -3.523  -1.266   0.136  0.00  0.00    -0.200 N 
ATOM      5  N   UNL     1      -2.524  -1.048  -0.821  0.00  0.00    -0.168 NA
ENDROOT
BRANCH   4   6
ATOM      6  C   UNL     1      -4.854  -1.619  -0.126  0.00  0.00    +0.069 A 
ATOM      7  C   UNL     1      -5.488  -2.573   0.660  0.00  0.00    +0.028 A 
ATOM      8  C   UNL     1      -6.800  -2.919   0.400  0.00  0.00    +0.002 A 
ATOM      9  C   UNL     1      -7.482  -2.317  -0.641  0.00  0.00    +0.000 A 
ATOM     10  C   UNL     1      -6.853  -1.367  -1.425  0.00  0.00    +0.002 A 
ATOM     11  C   UNL     1      -5.543  -1.012  -1.167  0.00  0.00    +0.028 A 
ENDBRANCH   4   6
BRANCH   1  13
ATOM     12  C   UNL     1       0.016   1.076  -1.093  0.00  0.00    +0.010 C 
ATOM     13  C   UNL     1      -0.093  -0.431  -0.852  0.00  0.00    +0.054 C 
ENDBRANCH   1  13
BRANCH   3  14
ATOM     14  O   UNL     1      -3.611  -1.179   2.557  0.00  0.00    -0.435 OA
BRANCH  14  15
ATOM     15  C   UNL     1      -3.514  -2.358   3.226  0.00  0.00    +0.165 A 
ATOM     16  C   UNL     1      -2.700  -3.369   2.738  0.00  0.00    +0.049 A 
ATOM     17  C   UNL     1      -2.603  -4.567   3.420  0.00  0.00    +0.004 A 
ATOM     18  C   UNL     1      -3.317  -4.759   4.589  0.00  0.00    +0.003 A 
ATOM     19  C   UNL     1      -4.130  -3.753   5.079  0.00  0.00    +0.042 A 
ATOM     20  C   UNL     1      -4.227  -2.550   4.403  0.00  0.00    +0.165 A 
ATOM     21  F   UNL     1      -5.017  -1.566   4.884  0.00  0.00    -0.202 F 
ENDBRANCH  14  15
ENDBRANCH   3  14
BRANCH   2  22
ATOM     22  C   UNL     1      -0.665  -0.436   2.262  0.00  0.00    -0.035 C 
BRANCH  22  23
ATOM     23  N   UNL     1      -0.648   1.010   2.519  0.00  0.00    +0.386 N 
ATOM     24  H   UNL     1      -0.478   1.503   1.656  0.00  0.00    -0.081 HD
BRANCH  23  25
ATOM     25  C   UNL     1       0.418   1.324   3.480  0.00  0.00    -0.068 C 
ATOM     26  C   UNL     1       1.329   2.511   3.162  0.00  0.00    -0.017 C 
ATOM     27  C   UNL     1       1.862   1.082   3.037  0.00  0.00    -0.017 C 
ENDBRANCH  23  25
BRANCH  23  28
ATOM     28  C   UNL     1      -1.944   1.424   3.073  0.00  0.00    -0.046 C 
BRANCH  28  29
ATOM     29  C   UNL     1      -1.972   2.946   3.224  0.00  0.00    +0.102 C 
BRANCH  29  30
ATOM     30  O   UNL     1      -1.900   3.554   1.933  0.00  0.00    -0.393 OA
ATOM     31  H   UNL     1      -2.628   3.313   1.344  0.00  0.00    +0.210 HD
ENDBRANCH  29  30
BRANCH  29  32
ATOM     32  C   UNL     1      -3.270   3.367   3.915  0.00  0.00    +0.064 C 
BRANCH  32  33
ATOM     33  C   UNL     1      -3.243   4.851   4.175  0.00  0.00    -0.045 A 
ATOM     34  C   UNL     1      -2.721   5.336   5.359  0.00  0.00    +0.004 A 
ATOM     35  C   UNL     1      -2.696   6.697   5.598  0.00  0.00    +0.000 A 
ATOM     36  C   UNL     1      -3.193   7.574   4.651  0.00  0.00    +0.000 A 
ATOM     37  C   UNL     1      -3.714   7.089   3.466  0.00  0.00    +0.000 A 
ATOM     38  C   UNL     1      -3.735   5.728   3.226  0.00  0.00    +0.004 A 
ENDBRANCH  32  33
ENDBRANCH  29  32
ENDBRANCH  28  29
ENDBRANCH  23  28
ENDBRANCH  22  23
ENDBRANCH   2  22
TORSDOF 12
