REMARK  Name = ZINC33609419
REMARK  3 active torsions:
REMARK  status: ('A' for Active; 'I' for Inactive)
REMARK    1  A    between atoms: C_1  and  C_2
REMARK    2  A    between atoms: C_4  and  S_12
REMARK    3  A    between atoms: C_6  and  N_9
REMARK                            x       y       z     vdW  Elec       q    Type
REMARK                         _______ _______ _______ _____ _____    ______ ____
ROOT
ATOM      1  C   UNL     1       0.790   6.133   2.534  0.00  0.00    +0.048 C 
ATOM      2  C   UNL     1       0.877   5.394   1.223  0.00  0.00    +0.000 A 
ATOM      3  C   UNL     1       1.059   4.025   1.212  0.00  0.00    +0.036 A 
ATOM      4  C   UNL     1       1.138   3.347   0.009  0.00  0.00    +0.122 A 
ATOM      5  C   UNL     1       1.042   4.039  -1.185  0.00  0.00    +0.066 A 
ATOM      6  C   UNL     1       0.854   5.407  -1.178  0.00  0.00    +0.175 A 
ATOM      7  C   UNL     1       0.773   6.090   0.027  0.00  0.00    +0.212 A 
ATOM      8  O   UNL     1       0.594   7.436   0.036  0.00  0.00    -0.285 OA
ENDROOT
BRANCH   4   9
ATOM      9  S   UNL     1       1.371   1.601  -0.002  0.00  0.00    +0.140 S 
ATOM     10  O   UNL     1       1.982   1.264   1.235  0.00  0.00    -0.140 OA
ATOM     11  O   UNL     1       1.958   1.278  -1.255  0.00  0.00    -0.140 OA
ATOM     12  O   UNL     1      -0.011   0.963   0.007  0.00  0.00    -0.043 OA
ENDBRANCH   4   9
BRANCH   6  13
ATOM     13  N   UNL     1       0.744   6.146  -2.456  0.00  0.00    +0.060 N 
ATOM     14  O   UNL     1       0.815   5.546  -3.514  0.00  0.00    -0.126 OA
ATOM     15  O   UNL     1       0.583   7.353  -2.450  0.00  0.00    -0.126 OA
ENDBRANCH   6  13
TORSDOF 2
