REMARK  Name = ZINC33587769
REMARK  14 active torsions:
REMARK  status: ('A' for Active; 'I' for Inactive)
REMARK    1  A    between atoms: C_1  and  C_2
REMARK    2  A    between atoms: C_2  and  O_3
REMARK    3  A    between atoms: O_3  and  C_4
REMARK    4  A    between atoms: C_7  and  C_10
REMARK    5  A    between atoms: C_12  and  C_13
REMARK    6  A    between atoms: C_13  and  C_14
REMARK    7  A    between atoms: C_17  and  O_20
REMARK    8  A    between atoms: O_20  and  C_21
REMARK    9  A    between atoms: N_27  and  C_28
REMARK   10  A    between atoms: C_28  and  C_29
REMARK   11  A    between atoms: C_29  and  O_30
REMARK   12  A    between atoms: O_30  and  C_31
REMARK   13  A    between atoms: C_31  and  C_32
REMARK   14  A    between atoms: C_32  and  O_33
REMARK                            x       y       z     vdW  Elec       q    Type
REMARK                         _______ _______ _______ _____ _____    ______ ____
ROOT
ATOM      1  C   UNL     1       4.870   3.896  -0.057  0.00  0.00    +0.145 C 
ATOM      2  C   UNL     1       5.559   3.881  -1.402  0.00  0.00    +0.076 C 
ATOM      3  C   UNL     1       6.775   3.210  -1.210  0.00  0.00    +0.249 C 
ATOM      4  O   UNL     1       7.615   2.995  -2.066  0.00  0.00    -0.282 OA
ATOM      5  C   UNL     1       6.862   2.806   0.219  0.00  0.00    +0.288 C 
ATOM      6  O   UNL     1       7.792   2.205   0.717  0.00  0.00    -0.266 OA
ATOM      7  N   UNL     1       5.761   3.204   0.878  0.00  0.00    -0.281 N 
ENDROOT
BRANCH   1  11
ATOM      8  C   UNL     1       1.131   1.841  -0.306  0.00  0.00    +0.121 A 
ATOM      9  C   UNL     1       2.320   1.135  -0.416  0.00  0.00    +0.046 A 
ATOM     10  C   UNL     1       3.527   1.803  -0.342  0.00  0.00    +0.009 A 
ATOM     11  C   UNL     1       3.551   3.171  -0.145  0.00  0.00    -0.022 A 
ATOM     12  C   UNL     1       2.367   3.876  -0.030  0.00  0.00    +0.009 A 
ATOM     13  C   UNL     1       1.157   3.214  -0.110  0.00  0.00    +0.046 A 
BRANCH   8  14
ATOM     14  O   UNL     1      -0.058   1.187  -0.386  0.00  0.00    -0.492 OA
BRANCH  14  16
ATOM     15  C   UNL     1      -1.433  -0.782  -0.652  0.00  0.00    +0.048 C 
ATOM     16  C   UNL     1      -0.009  -0.226  -0.589  0.00  0.00    +0.225 C 
ENDBRANCH  14  16
ENDBRANCH   8  14
ENDBRANCH   1  11
BRANCH   2  17
ATOM     17  C   UNL     1       5.086   4.420  -2.583  0.00  0.00    +0.195 C 
ATOM     18  O   UNL     1       5.760   4.219  -3.735  0.00  0.00    -0.287 OA
BRANCH  17  19
ATOM     19  C   UNL     1       3.847   5.214  -2.585  0.00  0.00    +0.022 A 
ATOM     20  C   UNL     1       2.848   4.955  -3.531  0.00  0.00    +0.015 A 
ATOM     21  C   UNL     1       1.689   5.697  -3.526  0.00  0.00    +0.046 A 
ATOM     22  C   UNL     1       1.514   6.710  -2.589  0.00  0.00    +0.120 A 
ATOM     23  C   UNL     1       2.505   6.975  -1.650  0.00  0.00    +0.046 A 
ATOM     24  C   UNL     1       3.666   6.235  -1.644  0.00  0.00    +0.015 A 
BRANCH  22  25
ATOM     25  O   UNL     1       0.371   7.442  -2.591  0.00  0.00    -0.495 OA
ATOM     26  C   UNL     1      -0.606   7.117  -3.582  0.00  0.00    +0.277 C 
ENDBRANCH  22  25
ENDBRANCH  17  19
ENDBRANCH   2  17
BRANCH   7  27
ATOM     27  C   UNL     1       5.495   2.983   2.302  0.00  0.00    +0.137 C 
BRANCH  27  28
ATOM     28  C   UNL     1       4.761   1.653   2.483  0.00  0.00    +0.179 C 
BRANCH  28  29
ATOM     29  O   UNL     1       5.616   0.579   2.087  0.00  0.00    -0.376 OA
BRANCH  29  30
ATOM     30  C   UNL     1       5.023  -0.715   2.217  0.00  0.00    +0.187 C 
BRANCH  30  31
ATOM     31  C   UNL     1       6.023  -1.782   1.767  0.00  0.00    +0.184 C 
BRANCH  31  32
ATOM     32  O   UNL     1       7.143  -1.789   2.654  0.00  0.00    -0.393 OA
ATOM     33  H   UNL     1       7.971  -2.495   2.489  0.00  0.00    +0.209 HD
ENDBRANCH  31  32
ENDBRANCH  30  31
ENDBRANCH  29  30
ENDBRANCH  28  29
ENDBRANCH  27  28
ENDBRANCH   7  27
TORSDOF 12
