REMARK  Name = ZINC36346467
REMARK  21 active torsions:
REMARK  status: ('A' for Active; 'I' for Inactive)
REMARK    1  A    between atoms: C_1  and  C_2
REMARK    2  A    between atoms: C_2  and  C_3
REMARK    3  A    between atoms: C_2  and  C_4
REMARK    4  A    between atoms: C_5  and  C_24
REMARK    5  A    between atoms: C_6  and  O_17
REMARK    6  A    between atoms: N_7  and  C_9
REMARK    7  A    between atoms: C_12  and  O_15
REMARK    8  A    between atoms: O_15  and  C_16
REMARK    9  A    between atoms: O_17  and  C_18
REMARK   10  A    between atoms: C_24  and  N_25
REMARK   11  A    between atoms: N_25  and  C_26
REMARK   12  A    between atoms: N_25  and  C_35
REMARK   13  A    between atoms: C_26  and  C_27
REMARK   14  A    between atoms: C_27  and  C_29
REMARK   15  A    between atoms: C_27  and  O_34
REMARK   16  A    between atoms: C_29  and  O_30
REMARK   17  A    between atoms: O_30  and  C_31
REMARK   18  A    between atoms: C_31  and  C_32
REMARK   19  A    between atoms: C_31  and  C_33
REMARK   20  A    between atoms: C_35  and  C_36
REMARK   21  A    between atoms: C_35  and  C_37
REMARK                            x       y       z     vdW  Elec       q    Type
REMARK                         _______ _______ _______ _____ _____    ______ ____
ROOT
ATOM      1  C   UNL     1       2.699  -2.314   4.072  0.00  0.00    +0.071 A 
ATOM      2  C   UNL     1       1.413  -2.779   3.784  0.00  0.00    +0.021 A 
ATOM      3  C   UNL     1       1.284  -4.017   4.331  0.00  0.00    +0.225 A 
ATOM      4  N   UNL     1       2.460  -4.317   4.944  0.00  0.00    -0.200 N 
ATOM      5  N   UNL     1       3.328  -3.233   4.760  0.00  0.00    -0.168 NA
ENDROOT
BRANCH   4   6
ATOM      6  C   UNL     1       2.753  -5.503   5.634  0.00  0.00    +0.069 A 
ATOM      7  C   UNL     1       1.785  -6.102   6.428  0.00  0.00    +0.031 A 
ATOM      8  C   UNL     1       2.075  -7.269   7.107  0.00  0.00    +0.048 A 
ATOM      9  C   UNL     1       3.333  -7.843   6.995  0.00  0.00    +0.120 A 
ATOM     10  C   UNL     1       4.301  -7.244   6.203  0.00  0.00    +0.048 A 
ATOM     11  C   UNL     1       4.011  -6.080   5.519  0.00  0.00    +0.031 A 
BRANCH   9  12
ATOM     12  O   UNL     1       3.617  -8.992   7.664  0.00  0.00    -0.495 OA
ATOM     13  C   UNL     1       4.933  -9.527   7.504  0.00  0.00    +0.277 C 
ENDBRANCH   9  12
ENDBRANCH   4   6
BRANCH   1  15
ATOM     14  C   UNL     1       3.730  -0.214   4.895  0.00  0.00    +0.014 C 
ATOM     15  C   UNL     1       3.269  -0.982   3.655  0.00  0.00    +0.034 C 
ATOM     16  C   UNL     1       4.460  -1.207   2.722  0.00  0.00    +0.014 C 
ENDBRANCH   1  15
BRANCH   3  17
ATOM     17  O   UNL     1       0.183  -4.809   4.275  0.00  0.00    -0.438 OA
BRANCH  17  18
ATOM     18  C   UNL     1       0.202  -5.870   3.426  0.00  0.00    +0.130 A 
ATOM     19  C   UNL     1       1.312  -6.099   2.626  0.00  0.00    +0.046 A 
ATOM     20  C   UNL     1       1.329  -7.179   1.765  0.00  0.00    +0.004 A 
ATOM     21  C   UNL     1       0.241  -8.030   1.699  0.00  0.00    +0.000 A 
ATOM     22  C   UNL     1      -0.866  -7.803   2.495  0.00  0.00    +0.004 A 
ATOM     23  C   UNL     1      -0.886  -6.728   3.362  0.00  0.00    +0.046 A 
ENDBRANCH  17  18
ENDBRANCH   3  17
BRANCH   2  24
ATOM     24  C   UNL     1       0.356  -2.039   3.006  0.00  0.00    -0.035 C 
BRANCH  24  25
ATOM     25  N   UNL     1      -0.156  -2.901   1.932  0.00  0.00    +0.386 N 
ATOM     26  H   UNL     1      -0.029  -3.869   2.189  0.00  0.00    -0.081 HD
BRANCH  25  27
ATOM     27  C   UNL     1       0.578  -2.624   0.690  0.00  0.00    -0.074 C 
ATOM     28  C   UNL     1       0.251  -1.208   0.209  0.00  0.00    -0.014 C 
ATOM     29  C   UNL     1       2.081  -2.740   0.949  0.00  0.00    -0.014 C 
ENDBRANCH  25  27
BRANCH  25  30
ATOM     30  C   UNL     1      -1.585  -2.632   1.727  0.00  0.00    -0.044 C 
BRANCH  30  31
ATOM     31  C   UNL     1      -2.162  -3.657   0.747  0.00  0.00    +0.124 C 
BRANCH  31  32
ATOM     32  O   UNL     1      -1.603  -3.442  -0.550  0.00  0.00    -0.391 OA
ATOM     33  H   UNL     1      -1.744  -2.549  -0.896  0.00  0.00    +0.210 HD
ENDBRANCH  31  32
BRANCH  31  34
ATOM     34  C   UNL     1      -3.682  -3.500   0.681  0.00  0.00    +0.189 C 
BRANCH  34  35
ATOM     35  O   UNL     1      -4.232  -4.530  -0.143  0.00  0.00    -0.375 OA
BRANCH  35  36
ATOM     36  C   UNL     1      -5.654  -4.474  -0.272  0.00  0.00    +0.112 C 
ATOM     37  C   UNL     1      -6.064  -5.036  -1.635  0.00  0.00    +0.037 C 
ATOM     38  C   UNL     1      -6.300  -5.305   0.838  0.00  0.00    +0.037 C 
ENDBRANCH  35  36
ENDBRANCH  34  35
ENDBRANCH  31  34
ENDBRANCH  30  31
ENDBRANCH  25  30
ENDBRANCH  24  25
ENDBRANCH   2  24
TORSDOF 14
