REMARK  Name = ZINC39940475
REMARK  7 active torsions:
REMARK  status: ('A' for Active; 'I' for Inactive)
REMARK    1  A    between atoms: C_1  and  C_2
REMARK    2  A    between atoms: C_5  and  C_20
REMARK    3  A    between atoms: C_6  and  C_19
REMARK    4  A    between atoms: N_8  and  C_9
REMARK    5  A    between atoms: C_13  and  C_15
REMARK    6  A    between atoms: C_21  and  C_22
REMARK    7  A    between atoms: C_21  and  C_24
REMARK                            x       y       z     vdW  Elec       q    Type
REMARK                         _______ _______ _______ _____ _____    ______ ____
ROOT
ATOM      1  C   UNL     1      -0.743   0.913  -0.936  0.00  0.00    +0.032 C 
ATOM      2  C   UNL     1      -0.430  -0.563  -0.684  0.00  0.00    +0.094 C 
ATOM      3  C   UNL     1       0.520  -1.072  -1.736  0.00  0.00    +0.000 C 
ATOM      4  C   UNL     1       1.642  -1.493  -1.162  0.00  0.00    -0.028 C 
ATOM      5  C   UNL     1       1.550  -1.306   0.330  0.00  0.00    +0.101 C 
ATOM      6  N   UNL     1       0.232  -0.718   0.618  0.00  0.00    -0.317 N 
ATOM      7  C   UNL     1       2.659  -0.366   0.805  0.00  0.00    +0.033 C 
ENDROOT
BRANCH   6   8
ATOM      8  C   UNL     1      -0.284  -0.375   1.871  0.00  0.00    +0.031 A 
ATOM      9  C   UNL     1       0.477  -0.581   3.016  0.00  0.00    +0.024 A 
ATOM     10  C   UNL     1      -0.027  -0.244   4.258  0.00  0.00    +0.022 A 
ATOM     11  C   UNL     1      -1.292   0.299   4.371  0.00  0.00    +0.055 A 
ATOM     12  C   UNL     1      -2.066   0.510   3.225  0.00  0.00    +0.083 A 
ATOM     13  C   UNL     1      -1.552   0.174   1.970  0.00  0.00    +0.039 A 
ATOM     14 CL   UNL     1      -1.921   0.719   5.933  0.00  0.00    -0.083 Cl
BRANCH  12  15
ATOM     15  C   UNL     1      -3.417   1.089   3.341  0.00  0.00    +0.388 C 
ATOM     16  O   UNL     1      -4.092   1.273   2.337  0.00  0.00    -0.241 OA
ATOM     17  O   UNL     1      -3.863   1.386   4.440  0.00  0.00    -0.241 OA
ENDBRANCH  12  15
ENDBRANCH   6   8
BRANCH   4  18
ATOM     18  C   UNL     1       2.792  -2.054  -1.872  0.00  0.00    +0.023 C 
ATOM     19  C   UNL     1       3.376  -1.356  -2.871  0.00  0.00    +0.072 C 
BRANCH  19  20
ATOM     20  C   UNL     1       2.920   0.047  -3.176  0.00  0.00    +0.216 C 
ATOM     21  N   UNL     1       4.068   0.963  -3.168  0.00  0.00    -0.359 N 
ATOM     22  C   UNL     1       4.156   1.489  -4.356  0.00  0.00    +0.060 A 
ATOM     23  C   UNL     1       5.084   2.460  -4.952  0.00  0.00    +0.027 A 
ATOM     24  C   UNL     1       4.925   2.827  -6.239  0.00  0.00    +0.002 A 
ATOM     25  C   UNL     1       3.897   2.317  -7.053  0.00  0.00    +0.002 A 
ATOM     26  C   UNL     1       2.993   1.422  -6.605  0.00  0.00    +0.027 A 
ATOM     27  C   UNL     1       3.068   0.949  -5.216  0.00  0.00    +0.060 A 
ATOM     28  N   UNL     1       2.350   0.110  -4.527  0.00  0.00    -0.359 N 
ATOM     29  H   UNL     1       4.654   1.143  -2.416  0.00  0.00    +0.162 HD
ATOM     30  H   UNL     1       1.579  -0.384  -4.848  0.00  0.00    +0.162 HD
ENDBRANCH  19  20
BRANCH  19  31
ATOM     31  C   UNL     1       4.428  -1.950  -3.640  0.00  0.00    +0.099 C 
ATOM     32  N   UNL     1       5.262  -2.422  -4.250  0.00  0.00    -0.191 NA
ENDBRANCH  19  31
ENDBRANCH   4  18
TORSDOF 5
