REMARK  Name = ZINC38534889
REMARK  4 active torsions:
REMARK  status: ('A' for Active; 'I' for Inactive)
REMARK    1  A    between atoms: C_4  and  C_7
REMARK    2  A    between atoms: N_9  and  N_10
REMARK    3  A    between atoms: C_11  and  C_12
REMARK    4  A    between atoms: N_32  and  C_35
REMARK                            x       y       z     vdW  Elec       q    Type
REMARK                         _______ _______ _______ _____ _____    ______ ____
ROOT
ATOM      1  C   UNL     1       3.678  -4.754  -0.267  0.00  0.00    +0.070 C 
ATOM      2  C   UNL     1       3.398  -5.548   1.007  0.00  0.00    -0.027 A 
ATOM      3  C   UNL     1       4.290  -5.617   2.049  0.00  0.00    +0.005 A 
ATOM      4  C   UNL     1       3.933  -6.313   3.194  0.00  0.00    +0.000 A 
ATOM      5  C   UNL     1       2.699  -6.927   3.300  0.00  0.00    +0.000 A 
ATOM      6  C   UNL     1       1.803  -6.874   2.236  0.00  0.00    +0.004 A 
ATOM      7  C   UNL     1       2.180  -6.213   1.111  0.00  0.00    -0.035 A 
ATOM      8  C   UNL     1       1.354  -6.211  -0.209  0.00  0.00    +0.062 C 
ATOM      9  C   UNL     1       1.233  -4.698  -0.404  0.00  0.00    -0.035 A 
ATOM     10  C   UNL     1       2.382  -3.916  -0.371  0.00  0.00    -0.027 A 
ATOM     11  C   UNL     1       2.344  -2.559  -0.425  0.00  0.00    +0.005 A 
ATOM     12  C   UNL     1       1.109  -1.939  -0.590  0.00  0.00    +0.000 A 
ATOM     13  C   UNL     1      -0.037  -2.704  -0.697  0.00  0.00    +0.000 A 
ATOM     14  C   UNL     1       0.015  -4.087  -0.592  0.00  0.00    +0.004 A 
ATOM     15  C   UNL     1       2.485  -6.781  -1.063  0.00  0.00    +0.101 C 
ATOM     16  C   UNL     1       3.409  -5.588  -1.490  0.00  0.00    +0.109 C 
ATOM     17  C   UNL     1       4.330  -6.269  -2.410  0.00  0.00    +0.232 C 
ATOM     18  O   UNL     1       5.518  -6.075  -2.559  0.00  0.00    -0.274 OA
ATOM     19  N   UNL     1       3.529  -7.178  -3.062  0.00  0.00    -0.210 N 
ATOM     20  C   UNL     1       2.297  -7.371  -2.416  0.00  0.00    +0.231 C 
ATOM     21  O   UNL     1       1.298  -7.886  -2.871  0.00  0.00    -0.274 OA
ENDROOT
BRANCH  19  22
ATOM     22  C   UNL     1       3.914  -7.849  -4.231  0.00  0.00    +0.044 A 
ATOM     23  C   UNL     1       5.164  -7.614  -4.788  0.00  0.00    +0.024 A 
ATOM     24  C   UNL     1       5.541  -8.276  -5.940  0.00  0.00    +0.002 A 
ATOM     25  C   UNL     1       4.675  -9.172  -6.539  0.00  0.00    +0.000 A 
ATOM     26  C   UNL     1       3.429  -9.408  -5.987  0.00  0.00    +0.002 A 
ATOM     27  C   UNL     1       3.049  -8.753  -4.832  0.00  0.00    +0.024 A 
ENDBRANCH  19  22
BRANCH   1  29
ATOM     28  N   UNL     1       6.090  -4.616  -0.218  0.00  0.00    -0.191 NA
ATOM     29  C   UNL     1       4.976  -3.988  -0.275  0.00  0.00    +0.120 C 
BRANCH  28  32
ATOM     30  C   UNL     1       7.273  -6.652   0.128  0.00  0.00    +0.263 C 
ATOM     31  O   UNL     1       8.309  -6.022   0.215  0.00  0.00    -0.268 OA
ATOM     32  N   UNL     1       6.103  -6.005  -0.040  0.00  0.00    -0.203 N 
ATOM     33  H   UNL     1       5.269  -6.501  -0.036  0.00  0.00    +0.178 HD
BRANCH  30  37
ATOM     34  C   UNL     1       7.342 -10.893   0.349  0.00  0.00    +0.000 A 
ATOM     35  C   UNL     1       8.530 -10.185   0.339  0.00  0.00    +0.001 A 
ATOM     36  C   UNL     1       8.515  -8.807   0.267  0.00  0.00    +0.013 A 
ATOM     37  C   UNL     1       7.297  -8.128   0.204  0.00  0.00    +0.038 A 
ATOM     38  C   UNL     1       6.101  -8.849   0.215  0.00  0.00    +0.013 A 
ATOM     39  C   UNL     1       6.131 -10.226   0.287  0.00  0.00    +0.001 A 
ENDBRANCH  30  37
ENDBRANCH  28  32
ENDBRANCH   1  29
TORSDOF 4
