REMARK  Name = ZINC63660932
REMARK  5 active torsions:
REMARK  status: ('A' for Active; 'I' for Inactive)
REMARK    1  A    between atoms: C_4  and  C_7
REMARK    2  A    between atoms: C_17  and  C_19
REMARK    3  A    between atoms: N_21  and  C_22
REMARK    4  A    between atoms: C_22  and  C_23
REMARK    5  A    between atoms: C_23  and  C_24
REMARK                            x       y       z     vdW  Elec       q    Type
REMARK                         _______ _______ _______ _____ _____    ______ ____
ROOT
ATOM      1  C   UNL     1       3.695  -0.684  -0.037  0.00  0.00    +0.252 C 
ATOM      2  O   UNL     1       2.634  -0.094   0.021  0.00  0.00    -0.270 OA
ATOM      3  N   UNL     1       3.714  -2.028  -0.146  0.00  0.00    -0.255 N 
ATOM      4  C   UNL     1       2.580  -2.838  -0.256  0.00  0.00    +0.041 A 
ATOM      5  C   UNL     1       1.232  -2.476  -0.277  0.00  0.00    +0.024 A 
ATOM      6  C   UNL     1       0.255  -3.441  -0.393  0.00  0.00    +0.002 A 
ATOM      7  C   UNL     1       0.603  -4.776  -0.489  0.00  0.00    +0.000 A 
ATOM      8  C   UNL     1       1.935  -5.143  -0.468  0.00  0.00    +0.005 A 
ATOM      9  C   UNL     1       2.918  -4.178  -0.352  0.00  0.00    -0.024 A 
ATOM     10  C   UNL     1       4.425  -4.299  -0.305  0.00  0.00    +0.069 C 
ATOM     11  C   UNL     1       4.925  -2.852  -0.174  0.00  0.00    +0.172 C 
ENDROOT
BRANCH   1  15
ATOM     12  C   UNL     1       7.344   1.486   0.103  0.00  0.00    +0.000 A 
ATOM     13  C   UNL     1       6.316   1.919  -0.716  0.00  0.00    +0.001 A 
ATOM     14  C   UNL     1       5.129   1.218  -0.766  0.00  0.00    +0.013 A 
ATOM     15  C   UNL     1       4.965   0.071   0.011  0.00  0.00    +0.037 A 
ATOM     16  C   UNL     1       6.006  -0.360   0.836  0.00  0.00    +0.013 A 
ATOM     17  C   UNL     1       7.188   0.349   0.877  0.00  0.00    +0.001 A 
ENDBRANCH   1  15
BRANCH  11  18
ATOM     18  C   UNL     1       5.782  -2.482  -1.358  0.00  0.00    +0.234 C 
ATOM     19  O   UNL     1       5.421  -1.609  -2.118  0.00  0.00    -0.274 OA
ATOM     20  N   UNL     1       6.948  -3.122  -1.571  0.00  0.00    -0.313 N 
ATOM     21  H   UNL     1       7.237  -3.821  -0.963  0.00  0.00    +0.149 HD
BRANCH  20  22
ATOM     22  C   UNL     1       7.781  -2.763  -2.722  0.00  0.00    +0.108 C 
BRANCH  22  23
ATOM     23  C   UNL     1       9.039  -3.634  -2.732  0.00  0.00    +0.052 C 
BRANCH  23  24
ATOM     24  C   UNL     1       9.896  -3.264  -3.916  0.00  0.00    -0.040 C 
ATOM     25  C   UNL     1      10.937  -2.401  -3.929  0.00  0.00    +0.000 A 
ATOM     26  C   UNL     1      11.559  -1.579  -2.884  0.00  0.00    +0.030 A 
ATOM     27  C   UNL     1      12.613  -0.794  -3.208  0.00  0.00    +0.042 A 
ATOM     28  C   UNL     1      13.124  -0.747  -4.513  0.00  0.00    +0.022 A 
ATOM     29  C   UNL     1      12.605  -1.474  -5.525  0.00  0.00    +0.027 A 
ATOM     30  C   UNL     1      11.495  -2.334  -5.298  0.00  0.00    +0.043 A 
ATOM     31  N   UNL     1      10.825  -3.125  -6.101  0.00  0.00    -0.380 N 
ATOM     32  C   UNL     1       9.769  -3.789  -5.329  0.00  0.00    +0.144 C 
ATOM     33 CL   UNL     1      13.351   0.180  -1.975  0.00  0.00    -0.084 Cl
ATOM     34  H   UNL     1      11.001  -3.253  -7.046  0.00  0.00    +0.160 HD
ENDBRANCH  23  24
ENDBRANCH  22  23
ENDBRANCH  20  22
ENDBRANCH  11  18
TORSDOF 5
