REMARK  Name = ZINC09111389
REMARK  7 active torsions:
REMARK  status: ('A' for Active; 'I' for Inactive)
REMARK    1  A    between atoms: C_1  and  C_2
REMARK    2  A    between atoms: C_2  and  C_3
REMARK    3  A    between atoms: C_2  and  C_4
REMARK    4  A    between atoms: C_2  and  C_5
REMARK    5  A    between atoms: C_5  and  C_7
REMARK    6  A    between atoms: C_9  and  C_33
REMARK    7  A    between atoms: C_33  and  C_35
REMARK                            x       y       z     vdW  Elec       q    Type
REMARK                         _______ _______ _______ _____ _____    ______ ____
ROOT
ATOM      1  C   UNL     1      -2.365   5.230   0.260  0.00  0.00    +0.153 C 
ATOM      2  C   UNL     1      -3.831   5.390   0.755  0.00  0.00    +0.109 C 
ATOM      3  C   UNL     1      -4.266   3.963   1.148  0.00  0.00    +0.108 C 
ATOM      4  C   UNL     1      -5.455   3.516   0.368  0.00  0.00    -0.008 A 
ATOM      5  C   UNL     1      -5.660   3.348  -0.984  0.00  0.00    +0.006 A 
ATOM      6  C   UNL     1      -6.917   2.907  -1.383  0.00  0.00    +0.000 A 
ATOM      7  C   UNL     1      -7.914   2.650  -0.465  0.00  0.00    +0.002 A 
ATOM      8  C   UNL     1      -7.716   2.816   0.897  0.00  0.00    +0.023 A 
ATOM      9  C   UNL     1      -6.459   3.257   1.312  0.00  0.00    +0.038 A 
ATOM     10  N   UNL     1      -5.994   3.505   2.591  0.00  0.00    -0.284 N 
ATOM     11  C   UNL     1      -4.709   3.925   2.590  0.00  0.00    +0.231 C 
ATOM     12  O   UNL     1      -4.042   4.215   3.560  0.00  0.00    -0.274 OA
ATOM     13  C   UNL     1      -3.039   3.098   0.912  0.00  0.00    +0.117 C 
ATOM     14  N   UNL     1      -2.295   3.823  -0.154  0.00  0.00    -0.311 N 
ATOM     15  C   UNL     1      -1.058   3.244  -0.317  0.00  0.00    +0.038 A 
ATOM     16  C   UNL     1       0.112   3.964  -0.457  0.00  0.00    +0.025 A 
ATOM     17  C   UNL     1       1.317   3.300  -0.605  0.00  0.00    +0.022 A 
ATOM     18  C   UNL     1       1.360   1.915  -0.613  0.00  0.00    +0.042 A 
ATOM     19  C   UNL     1       0.198   1.179  -0.477  0.00  0.00    +0.029 A 
ATOM     20  C   UNL     1      -1.018   1.832  -0.336  0.00  0.00    -0.003 A 
ATOM     21  C   UNL     1      -2.290   1.085  -0.192  0.00  0.00    +0.007 C 
ATOM     22  C   UNL     1      -3.310   1.706   0.429  0.00  0.00    -0.003 C 
ATOM     23 CL   UNL     1       2.882   1.101  -0.796  0.00  0.00    -0.084 Cl
ATOM     24  H   UNL     1      -6.526   3.390   3.394  0.00  0.00    +0.155 HD
ENDROOT
BRANCH   1  25
ATOM     25  C   UNL     1      -2.097   6.141  -0.910  0.00  0.00    +0.160 C 
ATOM     26  O   UNL     1      -2.177   5.716  -2.037  0.00  0.00    -0.295 OA
BRANCH  25  28
ATOM     27  C   UNL     1      -1.381   8.247  -2.007  0.00  0.00    +0.018 C 
ATOM     28  C   UNL     1      -1.730   7.583  -0.673  0.00  0.00    +0.022 C 
ATOM     29  C   UNL     1      -2.914   8.313  -0.035  0.00  0.00    +0.018 C 
ATOM     30  C   UNL     1      -0.522   7.655   0.264  0.00  0.00    +0.018 C 
ENDBRANCH  25  28
ENDBRANCH   1  25
BRANCH   2  31
ATOM     31  C   UNL     1      -4.704   5.920  -0.353  0.00  0.00    +0.170 C 
ATOM     32  O   UNL     1      -4.460   5.636  -1.506  0.00  0.00    -0.292 OA
BRANCH  31  33
ATOM     33  C   UNL     1      -5.855   6.780  -0.035  0.00  0.00    +0.018 A 
ATOM     34  C   UNL     1      -6.088   7.183   1.284  0.00  0.00    +0.011 A 
ATOM     35  C   UNL     1      -7.164   7.995   1.573  0.00  0.00    +0.001 A 
ATOM     36  C   UNL     1      -8.020   8.401   0.564  0.00  0.00    +0.000 A 
ATOM     37  C   UNL     1      -7.800   8.002  -0.743  0.00  0.00    +0.001 A 
ATOM     38  C   UNL     1      -6.724   7.195  -1.049  0.00  0.00    +0.011 A 
ENDBRANCH  31  33
ENDBRANCH   2  31
TORSDOF 4
