REMARK  Name = ZINC43548263
REMARK  8 active torsions:
REMARK  status: ('A' for Active; 'I' for Inactive)
REMARK    1  A    between atoms: C_1  and  C_2
REMARK    2  A    between atoms: N_9  and  C_10
REMARK    3  A    between atoms: C_10  and  C_11
REMARK    4  A    between atoms: C_14  and  C_35
REMARK    5  A    between atoms: C_17  and  O_34
REMARK    6  A    between atoms: C_19  and  C_23
REMARK    7  A    between atoms: C_23  and  C_25
REMARK    8  A    between atoms: C_23  and  C_26
REMARK                            x       y       z     vdW  Elec       q    Type
REMARK                         _______ _______ _______ _____ _____    ______ ____
ROOT
ATOM      1  C   UNL     1      -0.389   1.478   0.024  0.00  0.00    +0.014 C 
ATOM      2  C   UNL     1      -0.389  -0.051   0.079  0.00  0.00    +0.039 C 
ATOM      3  C   UNL     1      -1.753  -0.543   0.537  0.00  0.00    +0.031 A 
ATOM      4  C   UNL     1      -1.941  -0.956   1.815  0.00  0.00    +0.013 A 
ATOM      5  S   UNL     1      -3.652  -1.413   1.826  0.00  0.00    -0.059 S 
ATOM      6  C   UNL     1      -3.988  -1.046   0.215  0.00  0.00    +0.137 A 
ATOM      7  N   UNL     1      -2.833  -0.611  -0.239  0.00  0.00    -0.340 N 
ATOM      8  N   UNL     1      -5.189  -1.174  -0.465  0.00  0.00    -0.321 N 
ATOM      9  C   UNL     1      -0.938  -1.002   2.916  0.00  0.00    +0.051 C 
ATOM     10  C   UNL     1       0.285  -0.161   2.505  0.00  0.00    -0.022 C 
ATOM     11  C   UNL     1       0.673  -0.525   1.066  0.00  0.00    +0.033 C 
ATOM     12  C   UNL     1       0.866  -2.038   0.964  0.00  0.00    +0.123 C 
ATOM     13  C   UNL     1       2.005  -2.461   1.896  0.00  0.00    +0.029 C 
ATOM     14  C   UNL     1       1.671  -2.064   3.335  0.00  0.00    +0.007 C 
ATOM     15  C   UNL     1       1.453  -0.550   3.424  0.00  0.00    +0.008 C 
ATOM     16  C   UNL     1      -0.024   1.332   2.630  0.00  0.00    +0.012 C 
ATOM     17  H   UNL     1      -5.245  -0.924  -1.401  0.00  0.00    +0.148 HD
ATOM     18  H   UNL     1      -2.766  -0.331  -1.165  0.00  0.00    +0.167 HD
ENDROOT
BRANCH  13  19
ATOM     19  C   UNL     1       2.190  -3.977   1.817  0.00  0.00    +0.078 C 
ATOM     20  C   UNL     1       3.328  -4.401   2.748  0.00  0.00    +0.017 C 
BRANCH  19  21
ATOM     21  C   UNL     1       2.526  -4.370   0.402  0.00  0.00    +0.219 C 
ATOM     22  O   UNL     1       3.036  -3.562  -0.346  0.00  0.00    -0.275 OA
ATOM     23  N   UNL     1       2.261  -5.617  -0.033  0.00  0.00    -0.300 N 
ATOM     24  C   UNL     1       1.546  -6.550   0.840  0.00  0.00    +0.118 C 
ATOM     25  C   UNL     1       0.178  -6.874   0.228  0.00  0.00    +0.088 C 
ATOM     26  S   UNL     1       0.433  -7.550  -1.440  0.00  0.00    -0.158 S 
ATOM     27  C   UNL     1       1.460  -6.285  -2.246  0.00  0.00    +0.088 C 
ATOM     28  C   UNL     1       2.687  -6.022  -1.373  0.00  0.00    +0.118 C 
ENDBRANCH  19  21
ENDBRANCH  13  19
BRANCH  12  29
ATOM     29  O   UNL     1      -0.340  -2.700   1.350  0.00  0.00    -0.391 OA
ATOM     30  H   UNL     1      -0.289  -3.665   1.309  0.00  0.00    +0.210 HD
ENDBRANCH  12  29
BRANCH   8  31
ATOM     31  C   UNL     1      -6.373  -1.686   0.228  0.00  0.00    +0.130 C 
BRANCH  31  32
ATOM     32  C   UNL     1      -7.537  -1.726  -0.728  0.00  0.00    -0.016 C 
ATOM     33  C   UNL     1      -8.193  -2.844  -0.915  0.00  0.00    +0.005 C 
ENDBRANCH  31  32
ENDBRANCH   8  31
TORSDOF 5
