REMARK  Name = ZINC46986772
REMARK  6 active torsions:
REMARK  status: ('A' for Active; 'I' for Inactive)
REMARK    1  A    between atoms: C_1  and  C_2
REMARK    2  A    between atoms: C_6  and  C_7
REMARK    3  A    between atoms: C_7  and  N_8
REMARK    4  A    between atoms: N_11  and  C_12
REMARK    5  A    between atoms: C_12  and  C_14
REMARK    6  A    between atoms: C_12  and  C_15
REMARK                            x       y       z     vdW  Elec       q    Type
REMARK                         _______ _______ _______ _____ _____    ______ ____
ROOT
ATOM      1  C   UNL     1      -3.118   1.056   6.088  0.00  0.00    +0.102 C 
ATOM      2  C   UNL     1      -3.063  -0.111   7.075  0.00  0.00    +0.033 C 
ENDROOT
BRANCH   1   3
ATOM      3  C   UNL     1      -4.484   1.692   6.137  0.00  0.00    -0.027 A 
ATOM      4  C   UNL     1      -5.541   1.108   5.462  0.00  0.00    +0.007 A 
ATOM      5  C   UNL     1      -6.794   1.687   5.505  0.00  0.00    +0.024 A 
ATOM      6  C   UNL     1      -6.992   2.856   6.227  0.00  0.00    +0.037 A 
ATOM      7  C   UNL     1      -5.929   3.439   6.904  0.00  0.00    -0.025 A 
ATOM      8  C   UNL     1      -4.679   2.853   6.861  0.00  0.00    +0.011 A 
ATOM      9  C   UNL     1      -6.144   4.708   7.688  0.00  0.00    +0.046 C 
ATOM     10  C   UNL     1      -7.193   5.571   6.986  0.00  0.00    +0.101 C 
ATOM     11  C   UNL     1      -8.396   4.735   6.640  0.00  0.00    +0.218 C 
ATOM     12  O   UNL     1      -9.503   5.229   6.691  0.00  0.00    -0.275 OA
ATOM     13  N   UNL     1      -8.258   3.447   6.275  0.00  0.00    -0.285 N 
ATOM     14  H   UNL     1      -9.042   2.926   6.043  0.00  0.00    +0.155 HD
ENDBRANCH   1   3
BRANCH   1  18
ATOM     15  N   UNL     1      -1.349  -0.028   3.053  0.00  0.00    -0.295 N 
ATOM     16  C   UNL     1      -1.589   0.425   4.299  0.00  0.00    +0.300 C 
ATOM     17  O   UNL     1      -0.661   0.710   5.032  0.00  0.00    -0.253 OA
ATOM     18  N   UNL     1      -2.857   0.564   4.733  0.00  0.00    -0.293 N 
ATOM     19  H   UNL     1      -2.089  -0.255   2.468  0.00  0.00    +0.151 HD
ATOM     20  H   UNL     1      -3.598   0.337   4.149  0.00  0.00    +0.151 HD
BRANCH  15  21
ATOM     21  C   UNL     1       0.030  -0.179   2.581  0.00  0.00    +0.148 C 
BRANCH  21  27
ATOM     22  C   UNL     1      -0.018   1.503   0.010  0.00  0.00    +0.044 C 
ATOM     23  C   UNL     1       0.002  -0.004   0.002  0.00  0.00    -0.039 A 
ATOM     24  C   UNL     1       0.006  -0.699  -1.193  0.00  0.00    +0.011 A 
ATOM     25  C   UNL     1       0.024  -2.054  -1.165  0.00  0.00    +0.046 A 
ATOM     26  S   UNL     1       0.037  -2.387   0.589  0.00  0.00    -0.100 S 
ATOM     27  C   UNL     1       0.023  -0.698   1.166  0.00  0.00    +0.010 A 
ENDBRANCH  21  27
ENDBRANCH  15  21
ENDBRANCH   1  18
TORSDOF 4
