REMARK  Name = ZINC06245156
REMARK  8 active torsions:
REMARK  status: ('A' for Active; 'I' for Inactive)
REMARK    1  A    between atoms: C_1  and  C_2
REMARK    2  A    between atoms: C_5  and  N_8
REMARK    3  A    between atoms: N_13  and  C_14
REMARK    4  A    between atoms: C_18  and  C_20
REMARK    5  A    between atoms: C_27  and  C_30
REMARK    6  A    between atoms: C_30  and  C_31
REMARK    7  A    between atoms: C_30  and  C_32
REMARK    8  A    between atoms: C_30  and  C_33
REMARK                            x       y       z     vdW  Elec       q    Type
REMARK                         _______ _______ _______ _____ _____    ______ ____
ROOT
ATOM      1  N   UNL     1       2.179  -2.429  -1.448  0.00  0.00    -0.269 N 
ATOM      2  C   UNL     1       2.858  -1.277  -1.296  0.00  0.00    +0.143 C 
ATOM      3  S   UNL     1       4.493  -1.072  -1.760  0.00  0.00    -0.018 S 
ATOM      4  N   UNL     1       2.114  -0.308  -0.749  0.00  0.00    -0.283 N 
ATOM      5  C   UNL     1       0.843  -0.756  -0.475  0.00  0.00    +0.125 C 
ATOM      6  N   UNL     1      -0.135  -0.083   0.058  0.00  0.00    -0.235 NA
ATOM      7  C   UNL     1       0.823  -2.197  -0.934  0.00  0.00    +0.097 C 
ATOM      8  C   UNL     1      -0.208  -2.387  -2.041  0.00  0.00    +0.034 C 
ATOM      9  C   UNL     1      -0.195  -3.844  -2.510  0.00  0.00    +0.006 C 
ATOM     10  C   UNL     1      -0.515  -4.762  -1.329  0.00  0.00    -0.005 C 
ATOM     11  C   UNL     1       0.541  -4.577  -0.237  0.00  0.00    +0.006 C 
ATOM     12  C   UNL     1       0.530  -3.123   0.241  0.00  0.00    +0.034 C 
ATOM     13  H   UNL     1       2.548   0.688  -0.578  0.00  0.00    +0.155 HD
ENDROOT
BRANCH   1  18
ATOM     14  C   UNL     1       4.172  -7.261  -3.651  0.00  0.00    +0.044 C 
ATOM     15  C   UNL     1       3.643  -5.977  -3.065  0.00  0.00    -0.050 A 
ATOM     16  C   UNL     1       3.052  -5.036  -3.888  0.00  0.00    +0.005 A 
ATOM     17  C   UNL     1       2.566  -3.858  -3.355  0.00  0.00    +0.024 A 
ATOM     18  C   UNL     1       2.670  -3.620  -1.991  0.00  0.00    +0.036 A 
ATOM     19  C   UNL     1       3.269  -4.565  -1.168  0.00  0.00    +0.024 A 
ATOM     20  C   UNL     1       3.749  -5.743  -1.707  0.00  0.00    +0.005 A 
ENDBRANCH   1  18
BRANCH   6  21
ATOM     21  C   UNL     1       0.051   1.227   0.420  0.00  0.00    +0.066 A 
ATOM     22  C   UNL     1       1.205   1.606   1.108  0.00  0.00    +0.028 A 
ATOM     23  C   UNL     1       1.387   2.925   1.469  0.00  0.00    +0.003 A 
ATOM     24  C   UNL     1       0.428   3.871   1.151  0.00  0.00    +0.012 A 
ATOM     25  C   UNL     1      -0.718   3.501   0.470  0.00  0.00    +0.057 A 
ATOM     26  C   UNL     1      -0.909   2.186   0.098  0.00  0.00    +0.040 A 
BRANCH  25  27
ATOM     27  C   UNL     1      -1.757   4.538   0.129  0.00  0.00    +0.417 C 
ATOM     28  F   UNL     1      -1.341   5.788   0.600  0.00  0.00    -0.166 F 
ATOM     29  F   UNL     1      -1.921   4.593  -1.260  0.00  0.00    -0.166 F 
ATOM     30  F   UNL     1      -2.973   4.194   0.729  0.00  0.00    -0.166 F 
ENDBRANCH  25  27
ENDBRANCH   6  21
BRANCH  10  31
ATOM     31  C   UNL     1      -0.513  -6.218  -1.799  0.00  0.00    -0.035 C 
ATOM     32  C   UNL     1      -0.841  -7.135  -0.619  0.00  0.00    +0.011 C 
ATOM     33  C   UNL     1      -1.565  -6.401  -2.895  0.00  0.00    +0.011 C 
ATOM     34  C   UNL     1       0.868  -6.573  -2.353  0.00  0.00    +0.011 C 
ENDBRANCH  10  31
TORSDOF 4
