REMARK  Name = ZINC20641116
REMARK  9 active torsions:
REMARK  status: ('A' for Active; 'I' for Inactive)
REMARK    1  A    between atoms: C_1  and  C_2
REMARK    2  A    between atoms: C_2  and  O_3
REMARK    3  A    between atoms: O_3  and  C_4
REMARK    4  A    between atoms: C_7  and  N_10
REMARK    5  A    between atoms: C_23  and  C_31
REMARK    6  A    between atoms: C_24  and  C_26
REMARK    7  A    between atoms: C_26  and  O_28
REMARK    8  A    between atoms: O_28  and  C_29
REMARK    9  A    between atoms: C_29  and  C_30
REMARK                            x       y       z     vdW  Elec       q    Type
REMARK                         _______ _______ _______ _____ _____    ______ ____
ROOT
ATOM      1  N   UNL     1      -1.627   5.073   4.793  0.00  0.00    -0.243 N 
ATOM      2  C   UNL     1      -0.339   5.411   4.960  0.00  0.00    +0.141 C 
ATOM      3  S   UNL     1       0.305   5.445   6.546  0.00  0.00    -0.018 S 
ATOM      4  N   UNL     1       0.463   5.724   3.929  0.00  0.00    -0.318 N 
ATOM      5  C   UNL     1      -0.088   5.777   2.565  0.00  0.00    +0.125 C 
ATOM      6  C   UNL     1      -0.809   7.098   2.420  0.00  0.00    +0.016 A 
ATOM      7  C   UNL     1      -0.096   8.208   2.005  0.00  0.00    +0.024 A 
ATOM      8  C   UNL     1      -0.729   9.430   1.871  0.00  0.00    +0.018 A 
ATOM      9  C   UNL     1      -2.079   9.543   2.154  0.00  0.00    +0.019 A 
ATOM     10  C   UNL     1      -2.793   8.437   2.566  0.00  0.00    +0.047 A 
ATOM     11  C   UNL     1      -2.160   7.204   2.699  0.00  0.00    +0.128 A 
ATOM     12  O   UNL     1      -2.900   6.134   3.090  0.00  0.00    -0.467 OA
ATOM     13  C   UNL     1      -2.226   4.937   3.468  0.00  0.00    +0.196 C 
ATOM     14  C   UNL     1      -1.123   4.647   2.439  0.00  0.00    +0.185 C 
ATOM     15  C   UNL     1      -3.227   3.780   3.479  0.00  0.00    +0.080 C 
ATOM     16 BR   UNL     1       0.249  10.946   1.304  0.00  0.00    -0.050 Br
ATOM     17  H   UNL     1       1.528   5.941   4.101  0.00  0.00    +0.148 HD
ENDROOT
BRANCH   1  21
ATOM     18  C   UNL     1      -3.990   4.388   8.159  0.00  0.00    +0.121 A 
ATOM     19  C   UNL     1      -3.204   3.368   7.645  0.00  0.00    +0.047 A 
ATOM     20  C   UNL     1      -2.421   3.594   6.530  0.00  0.00    +0.027 A 
ATOM     21  C   UNL     1      -2.421   4.843   5.924  0.00  0.00    +0.039 A 
ATOM     22  C   UNL     1      -3.204   5.865   6.442  0.00  0.00    +0.027 A 
ATOM     23  C   UNL     1      -3.991   5.637   7.554  0.00  0.00    +0.047 A 
BRANCH  18  24
ATOM     24  O   UNL     1      -4.761   4.165   9.257  0.00  0.00    -0.492 OA
BRANCH  24  26
ATOM     25  C   UNL     1      -6.340   4.823  10.964  0.00  0.00    +0.048 C 
ATOM     26  C   UNL     1      -5.545   5.261   9.732  0.00  0.00    +0.225 C 
ENDBRANCH  24  26
ENDBRANCH  18  24
ENDBRANCH   1  21
BRANCH  14  27
ATOM     27  C   UNL     1      -0.475   3.320   2.739  0.00  0.00    +0.318 C 
ATOM     28  O   UNL     1      -0.395   2.931   3.880  0.00  0.00    -0.250 OA
BRANCH  27  29
ATOM     29  O   UNL     1       0.012   2.569   1.739  0.00  0.00    -0.465 OA
BRANCH  29  30
ATOM     30  C   UNL     1       0.622   1.303   2.101  0.00  0.00    +0.229 C 
ATOM     31  C   UNL     1       1.115   0.594   0.838  0.00  0.00    +0.048 C 
ENDBRANCH  29  30
ENDBRANCH  27  29
ENDBRANCH  14  27
TORSDOF 6
