REMARK  Name = ZINC37687863
REMARK  5 active torsions:
REMARK  status: ('A' for Active; 'I' for Inactive)
REMARK    1  A    between atoms: C_1  and  C_2
REMARK    2  A    between atoms: C_2  and  C_4
REMARK    3  A    between atoms: C_2  and  O_15
REMARK    4  A    between atoms: C_4  and  N_5
REMARK    5  A    between atoms: N_5  and  C_6
REMARK                            x       y       z     vdW  Elec       q    Type
REMARK                         _______ _______ _______ _____ _____    ______ ____
ROOT
ATOM      1  C   UNL     1       1.600  -2.654   2.147  0.00  0.00    +0.056 A 
ATOM      2  C   UNL     1       1.853  -2.058   3.377  0.00  0.00    +0.041 A 
ATOM      3  C   UNL     1       2.578  -2.738   4.337  0.00  0.00    +0.032 A 
ATOM      4  C   UNL     1       3.053  -4.011   4.074  0.00  0.00    +0.020 A 
ATOM      5  C   UNL     1       2.804  -4.607   2.851  0.00  0.00    +0.032 A 
ATOM      6  C   UNL     1       2.074  -3.934   1.889  0.00  0.00    +0.041 A 
ATOM      7 BR   UNL     1       1.727  -4.753   0.220  0.00  0.00    -0.048 Br
ATOM      8 BR   UNL     1       4.046  -4.937   5.391  0.00  0.00    -0.050 Br
ATOM      9 BR   UNL     1       1.205  -0.318   3.736  0.00  0.00    -0.048 Br
ENDROOT
BRANCH   1  10
ATOM     10  N   UNL     1       0.866  -1.969   1.174  0.00  0.00    -0.340 N 
ATOM     11  H   UNL     1      -0.099  -2.059   1.142  0.00  0.00    +0.146 HD
BRANCH  10  12
ATOM     12  C   UNL     1       1.555  -1.116   0.202  0.00  0.00    +0.132 C 
BRANCH  12  14
ATOM     13  C   UNL     1       1.246   0.359  -1.791  0.00  0.00    +0.039 C 
ATOM     14  C   UNL     1       0.524  -0.433  -0.698  0.00  0.00    +0.128 C 
BRANCH  14  15
ATOM     15  O   UNL     1      -0.277   0.455   0.083  0.00  0.00    -0.391 OA
ATOM     16  H   UNL     1      -0.954   0.924  -0.424  0.00  0.00    +0.210 HD
ENDBRANCH  14  15
ENDBRANCH  12  14
ENDBRANCH  10  12
ENDBRANCH   1  10
TORSDOF 4
