REMARK  Name = ZINC09408670
REMARK  12 active torsions:
REMARK  status: ('A' for Active; 'I' for Inactive)
REMARK    1  A    between atoms: C_1  and  C_2
REMARK    2  A    between atoms: C_5  and  N_8
REMARK    3  A    between atoms: C_9  and  C_37
REMARK    4  A    between atoms: C_10  and  C_34
REMARK    5  A    between atoms: C_15  and  O_17
REMARK    6  A    between atoms: O_17  and  C_18
REMARK    7  A    between atoms: C_18  and  C_19
REMARK    8  A    between atoms: C_19  and  C_21
REMARK    9  A    between atoms: C_19  and  O_33
REMARK   10  A    between atoms: C_21  and  N_71
REMARK   11  A    between atoms: C_24  and  C_27
REMARK   12  A    between atoms: C_34  and  C_36
REMARK                            x       y       z     vdW  Elec       q    Type
REMARK                         _______ _______ _______ _____ _____    ______ ____
ROOT
ATOM      1  N   UNL     1       5.899   2.847  -8.690  0.00  0.00    -0.313 N 
ATOM      2  C   UNL     1       6.809   3.814  -8.425  0.00  0.00    +0.032 A 
ATOM      3  C   UNL     1       6.681   4.219  -7.113  0.00  0.00    +0.046 A 
ATOM      4  C   UNL     1       5.586   3.415  -6.536  0.00  0.00    +0.014 A 
ATOM      5  C   UNL     1       5.137   2.577  -7.568  0.00  0.00    +0.055 A 
ATOM      6  C   UNL     1       4.094   1.690  -7.323  0.00  0.00    +0.030 A 
ATOM      7  C   UNL     1       3.515   1.634  -6.074  0.00  0.00    +0.048 A 
ATOM      8  C   UNL     1       3.956   2.469  -5.052  0.00  0.00    +0.121 A 
ATOM      9  C   UNL     1       4.991   3.357  -5.279  0.00  0.00    +0.056 A 
ATOM     10  C   UNL     1       7.808   4.362  -9.411  0.00  0.00    +0.064 C 
ENDROOT
BRANCH   1  15
ATOM     11  C   UNL     1       5.297   0.266 -13.707  0.00  0.00    +0.044 C 
ATOM     12  C   UNL     1       5.457   0.952 -12.375  0.00  0.00    -0.050 A 
ATOM     13  C   UNL     1       6.623   0.788 -11.650  0.00  0.00    +0.005 A 
ATOM     14  C   UNL     1       6.773   1.415 -10.429  0.00  0.00    +0.026 A 
ATOM     15  C   UNL     1       5.750   2.210  -9.928  0.00  0.00    +0.047 A 
ATOM     16  C   UNL     1       4.578   2.368 -10.656  0.00  0.00    +0.026 A 
ATOM     17  C   UNL     1       4.437   1.743 -11.879  0.00  0.00    +0.005 A 
ENDBRANCH   1  15
BRANCH   3  18
ATOM     18  C   UNL     1       7.448   5.210  -6.451  0.00  0.00    +0.162 C 
ATOM     19  O   UNL     1       7.095   6.372  -6.483  0.00  0.00    -0.292 OA
ATOM     20  C   UNL     1       8.700   4.822  -5.708  0.00  0.00    +0.091 C 
ENDBRANCH   3  18
BRANCH   8  21
ATOM     21  O   UNL     1       3.371   2.408  -3.826  0.00  0.00    -0.489 OA
BRANCH  21  22
ATOM     22  C   UNL     1       2.307   1.468  -3.661  0.00  0.00    +0.258 C 
BRANCH  22  23
ATOM     23  C   UNL     1       1.778   1.543  -2.227  0.00  0.00    +0.135 C 
BRANCH  23  24
ATOM     24  O   UNL     1       2.799   1.121  -1.320  0.00  0.00    -0.390 OA
ATOM     25  H   UNL     1       3.104   0.215  -1.465  0.00  0.00    +0.210 HD
ENDBRANCH  23  24
BRANCH  23  26
ATOM     26  C   UNL     1       0.560   0.629  -2.085  0.00  0.00    -0.043 C 
BRANCH  26  32
ATOM     27  C   UNL     1      -0.987  -0.315  -0.475  0.00  0.00    -0.074 C 
ATOM     28  C   UNL     1      -1.249  -0.406   1.031  0.00  0.00    +0.017 C 
ATOM     29  C   UNL     1      -1.459   0.973   1.592  0.00  0.00    -0.048 C 
ATOM     30  C   UNL     1      -1.108   2.061   0.948  0.00  0.00    -0.041 C 
ATOM     31  C   UNL     1      -0.476   2.042  -0.414  0.00  0.00    -0.051 C 
ATOM     32  N   UNL     1       0.066   0.699  -0.691  0.00  0.00    +0.384 N 
ATOM     33  H   UNL     1       0.846   0.513  -0.050  0.00  0.00    -0.081 HD
BRANCH  29  34
ATOM     34  C   UNL     1      -2.084   1.107   2.925  0.00  0.00    -0.022 A 
ATOM     35  C   UNL     1      -1.431   0.619   4.058  0.00  0.00    +0.008 A 
ATOM     36  C   UNL     1      -2.018   0.752   5.299  0.00  0.00    +0.001 A 
ATOM     37  C   UNL     1      -3.255   1.359   5.422  0.00  0.00    +0.000 A 
ATOM     38  C   UNL     1      -3.910   1.841   4.303  0.00  0.00    +0.001 A 
ATOM     39  C   UNL     1      -3.332   1.719   3.056  0.00  0.00    +0.008 A 
ENDBRANCH  29  34
ENDBRANCH  26  32
ENDBRANCH  23  26
ENDBRANCH  22  23
ENDBRANCH  21  22
ENDBRANCH   8  21
TORSDOF 9
