REMARK  Name = ZINC43424569
REMARK  2 active torsions:
REMARK  status: ('A' for Active; 'I' for Inactive)
REMARK    1  A    between atoms: C_5  and  N_8
REMARK    2  A    between atoms: C_6  and  N_7
REMARK                            x       y       z     vdW  Elec       q    Type
REMARK                         _______ _______ _______ _____ _____    ______ ____
ROOT
ATOM      1  C   UNL     1      -0.017   1.383   0.010  0.00  0.00    +0.030 A 
ATOM      2  C   UNL     1       1.168   2.087   0.002  0.00  0.00    -0.016 A 
ATOM      3  C   UNL     1       2.391   1.429  -0.013  0.00  0.00    +0.039 A 
ATOM      4  C   UNL     1       2.410   0.035  -0.022  0.00  0.00    +0.048 A 
ATOM      5  C   UNL     1       1.224  -0.677  -0.016  0.00  0.00    +0.053 A 
ATOM      6  C   UNL     1       0.002  -0.004   0.002  0.00  0.00    +0.046 A 
ATOM      7  N   UNL     1       3.438   2.355  -0.017  0.00  0.00    -0.285 N 
ATOM      8  C   UNL     1       2.994   3.623  -0.006  0.00  0.00    +0.222 C 
ATOM      9  O   UNL     1       3.677   4.625  -0.007  0.00  0.00    -0.275 OA
ATOM     10  C   UNL     1       1.482   3.566   0.008  0.00  0.00    +0.133 C 
ATOM     11  H   UNL     1       4.376   2.110  -0.027  0.00  0.00    +0.155 HD
ENDROOT
BRANCH   5  12
ATOM     12  N   UNL     1       1.250  -2.077  -0.025  0.00  0.00    -0.321 N 
ATOM     13  C   UNL     1       1.260  -2.868  -1.278  0.00  0.00    +0.133 C 
ATOM     14  C   UNL     1       0.212  -3.978  -1.224  0.00  0.00    +0.179 C 
ATOM     15  O   UNL     1       0.235  -4.678   0.034  0.00  0.00    -0.373 OA
ATOM     16  C   UNL     1       0.020  -3.794   1.112  0.00  0.00    +0.139 C 
ATOM     17  C   UNL     1       1.275  -2.870   1.196  0.00  0.00    +0.102 C 
ATOM     18  C   UNL     1       1.078  -2.140   2.517  0.00  0.00    +0.025 C 
ATOM     19  C   UNL     1       0.297  -3.132   3.418  0.00  0.00    +0.004 C 
ATOM     20  C   UNL     1      -0.033  -4.371   2.526  0.00  0.00    +0.033 C 
ENDBRANCH   5  12
BRANCH   6  21
ATOM     21  N   UNL     1      -1.200  -0.726   0.010  0.00  0.00    -0.357 N 
ATOM     22  H   UNL     1      -2.048  -0.255   0.021  0.00  0.00    +0.142 HD
ATOM     23  H   UNL     1      -1.184  -1.695   0.005  0.00  0.00    +0.142 HD
ENDBRANCH   6  21
TORSDOF 2
