REMARK  Name = ZINC12826879
REMARK  9 active torsions:
REMARK  status: ('A' for Active; 'I' for Inactive)
REMARK    1  A    between atoms: C_1  and  C_2
REMARK    2  A    between atoms: C_2  and  C_3
REMARK    3  A    between atoms: C_3  and  C_4
REMARK    4  A    between atoms: C_7  and  C_10
REMARK    5  A    between atoms: C_11  and  C_30
REMARK    6  A    between atoms: C_16  and  C_18
REMARK    7  A    between atoms: C_18  and  C_19
REMARK    8  A    between atoms: C_19  and  C_21
REMARK    9  A    between atoms: C_19  and  N_26
REMARK                            x       y       z     vdW  Elec       q    Type
REMARK                         _______ _______ _______ _____ _____    ______ ____
ROOT
ATOM      1  C   UNL     1       0.796  -6.256  -1.288  0.00  0.00    +0.083 A 
ATOM      2  C   UNL     1      -0.370  -6.962  -1.189  0.00  0.00    +0.016 A 
ATOM      3  S   UNL     1       0.252  -8.638  -1.251  0.00  0.00    -0.057 S 
ATOM      4  C   UNL     1       1.985  -8.227  -1.403  0.00  0.00    +0.165 A 
ATOM      5  N   UNL     1       1.944  -6.908  -1.398  0.00  0.00    -0.224 NA
ATOM      6  N   UNL     1       3.083  -9.072  -1.503  0.00  0.00    -0.265 N 
ATOM      7  C   UNL     1       2.908 -10.409  -1.494  0.00  0.00    +0.221 C 
ATOM      8  O   UNL     1       1.792 -10.873  -1.398  0.00  0.00    -0.275 OA
ATOM      9  C   UNL     1      -1.787  -6.466  -1.061  0.00  0.00    +0.054 C 
ATOM     10  H   UNL     1       3.976  -8.701  -1.580  0.00  0.00    +0.157 HD
ENDROOT
BRANCH   1  14
ATOM     11  C   UNL     1       0.739  -2.004  -1.265  0.00  0.00    -0.047 A 
ATOM     12  C   UNL     1       1.790  -2.682  -0.674  0.00  0.00    +0.004 A 
ATOM     13  C   UNL     1       1.813  -4.062  -0.678  0.00  0.00    +0.010 A 
ATOM     14  C   UNL     1       0.776  -4.773  -1.280  0.00  0.00    +0.001 A 
ATOM     15  C   UNL     1      -0.281  -4.084  -1.874  0.00  0.00    +0.010 A 
ATOM     16  C   UNL     1      -0.296  -2.704  -1.859  0.00  0.00    +0.004 A 
BRANCH  11  17
ATOM     17  C   UNL     1       0.718  -0.497  -1.257  0.00  0.00    +0.035 C 
BRANCH  17  19
ATOM     18  C   UNL     1      -0.019   1.526   0.010  0.00  0.00    +0.004 C 
ATOM     19  C   UNL     1       0.002  -0.004   0.002  0.00  0.00    +0.001 C 
ENDBRANCH  17  19
ENDBRANCH  11  17
ENDBRANCH   1  14
BRANCH   7  20
ATOM     20  C   UNL     1       4.099 -11.325  -1.604  0.00  0.00    +0.123 C 
BRANCH  20  21
ATOM     21  C   UNL     1       3.628 -12.780  -1.569  0.00  0.00    +0.120 C 
BRANCH  21  22
ATOM     22  N   UNL     1       2.814 -13.059  -2.756  0.00  0.00    -0.292 N 
ATOM     23  C   UNL     1       1.897 -14.045  -2.728  0.00  0.00    +0.298 C 
ATOM     24  O   UNL     1       1.744 -14.705  -1.718  0.00  0.00    -0.253 OA
ATOM     25  N   UNL     1       1.149 -14.301  -3.819  0.00  0.00    -0.313 N 
ATOM     26  H   UNL     1       2.936 -12.532  -3.562  0.00  0.00    +0.151 HD
ATOM     27  H   UNL     1       1.270 -13.775  -4.625  0.00  0.00    +0.146 HD
ATOM     28  H   UNL     1       0.488 -15.011  -3.799  0.00  0.00    +0.146 HD
ENDBRANCH  21  22
BRANCH  21  29
ATOM     29  C   UNL     1       4.824 -13.696  -1.555  0.00  0.00    +0.010 A 
ATOM     30  C   UNL     1       5.393 -14.341  -0.507  0.00  0.00    +0.013 A 
ATOM     31  C   UNL     1       6.499 -15.140  -0.732  0.00  0.00    +0.008 A 
ATOM     32  C   UNL     1       6.982 -15.255  -1.993  0.00  0.00    +0.045 A 
ATOM     33  S   UNL     1       5.857 -14.219  -2.915  0.00  0.00    -0.100 S 
ENDBRANCH  21  29
ENDBRANCH  20  21
ENDBRANCH   7  20
TORSDOF 7
