REMARK  Name = ZINC35970401
REMARK  11 active torsions:
REMARK  status: ('A' for Active; 'I' for Inactive)
REMARK    1  A    between atoms: C_1  and  C_2
REMARK    2  A    between atoms: C_3  and  C_32
REMARK    3  A    between atoms: C_4  and  C_23
REMARK    4  A    between atoms: C_7  and  C_12
REMARK    5  A    between atoms: C_13  and  N_15
REMARK    6  A    between atoms: N_15  and  C_16
REMARK    7  A    between atoms: C_26  and  C_29
REMARK    8  A    between atoms: C_29  and  C_30
REMARK    9  A    between atoms: C_29  and  C_31
REMARK   10  A    between atoms: C_32  and  O_34
REMARK   11  A    between atoms: O_34  and  C_35
REMARK                            x       y       z     vdW  Elec       q    Type
REMARK                         _______ _______ _______ _____ _____    ______ ____
ROOT
ATOM      1  C   UNL     1      -0.074   1.456  -1.298  0.00  0.00    +0.066 C 
ATOM      2  C   UNL     1      -0.107  -0.047  -1.185  0.00  0.00    +0.053 C 
ATOM      3  C   UNL     1      -1.167  -0.664  -0.549  0.00  0.00    +0.082 C 
ATOM      4  C   UNL     1      -1.154  -2.174  -0.462  0.00  0.00    +0.150 C 
ATOM      5  N   UNL     1       0.005  -2.877  -1.072  0.00  0.00    -0.267 N 
ATOM      6  C   UNL     1       0.224  -4.240  -1.110  0.00  0.00    +0.048 C 
ATOM      7  C   UNL     1       1.349  -4.677  -1.718  0.00  0.00    +0.072 C 
ATOM      8  S   UNL     1       2.104  -3.150  -2.239  0.00  0.00    -0.060 S 
ATOM      9  C   UNL     1       0.950  -2.080  -1.655  0.00  0.00    +0.166 C 
ATOM     10  N   UNL     1       0.876  -0.766  -1.702  0.00  0.00    -0.230 NA
ENDROOT
BRANCH   4  11
ATOM     11  C   UNL     1      -2.408  -2.687  -1.122  0.00  0.00    -0.022 A 
ATOM     12  C   UNL     1      -2.525  -2.658  -2.499  0.00  0.00    +0.006 A 
ATOM     13  C   UNL     1      -3.674  -3.129  -3.106  0.00  0.00    +0.004 A 
ATOM     14  C   UNL     1      -4.707  -3.630  -2.335  0.00  0.00    -0.045 A 
ATOM     15  C   UNL     1      -4.590  -3.659  -0.958  0.00  0.00    +0.004 A 
ATOM     16  C   UNL     1      -3.438  -3.192  -0.352  0.00  0.00    +0.006 A 
BRANCH  14  17
ATOM     17  C   UNL     1      -5.960  -4.142  -2.996  0.00  0.00    +0.013 C 
ATOM     18  C   UNL     1      -6.158  -5.617  -2.640  0.00  0.00    +0.012 C 
ATOM     19  C   UNL     1      -7.163  -3.334  -2.504  0.00  0.00    +0.012 C 
ENDBRANCH  14  17
ENDBRANCH   4  11
BRANCH   6  20
ATOM     20  C   UNL     1      -0.733  -5.182  -0.511  0.00  0.00    +0.091 C 
ATOM     21  C   UNL     1      -0.401  -6.480  -0.371  0.00  0.00    +0.243 C 
ATOM     22  O   UNL     1       0.873  -6.883  -0.596  0.00  0.00    -0.270 OA
BRANCH  21  23
ATOM     23  N   UNL     1      -1.363  -7.403   0.004  0.00  0.00    -0.280 N 
ATOM     24  H   UNL     1      -2.250  -7.104   0.258  0.00  0.00    +0.155 HD
BRANCH  23  25
ATOM     25  C   UNL     1      -1.056  -8.768   0.015  0.00  0.00    +0.069 A 
ATOM     26  C   UNL     1       0.243  -9.187   0.271  0.00  0.00    +0.026 A 
ATOM     27  C   UNL     1       0.543 -10.535   0.282  0.00  0.00    +0.002 A 
ATOM     28  C   UNL     1      -0.448 -11.468   0.039  0.00  0.00    +0.003 A 
ATOM     29  C   UNL     1      -1.743 -11.056  -0.216  0.00  0.00    +0.040 A 
ATOM     30  C   UNL     1      -2.052  -9.709  -0.224  0.00  0.00    +0.144 A 
ATOM     31  F   UNL     1      -3.319  -9.306  -0.467  0.00  0.00    -0.204 F 
ENDBRANCH  23  25
ENDBRANCH  21  23
ENDBRANCH   6  20
BRANCH   3  32
ATOM     32  C   UNL     1      -2.217   0.083  -0.003  0.00  0.00    +0.339 C 
ATOM     33  O   UNL     1      -2.207   1.299  -0.084  0.00  0.00    -0.245 OA
BRANCH  32  34
ATOM     34  O   UNL     1      -3.243  -0.543   0.615  0.00  0.00    -0.465 OA
ATOM     35  C   UNL     1      -4.280   0.281   1.149  0.00  0.00    +0.280 C 
ENDBRANCH  32  34
ENDBRANCH   3  32
TORSDOF 7
