REMARK  Name = ZINC09777355
REMARK  7 active torsions:
REMARK  status: ('A' for Active; 'I' for Inactive)
REMARK    1  A    between atoms: C_1  and  C_2
REMARK    2  A    between atoms: C_6  and  N_8
REMARK    3  A    between atoms: C_9  and  C_11
REMARK    4  A    between atoms: N_22  and  C_37
REMARK    5  A    between atoms: C_23  and  C_25
REMARK    6  A    between atoms: N_27  and  C_28
REMARK    7  A    between atoms: C_34  and  C_36
REMARK                            x       y       z     vdW  Elec       q    Type
REMARK                         _______ _______ _______ _____ _____    ______ ____
ROOT
ATOM      1  C   UNL     1       2.115   0.980   0.434  0.00  0.00    +0.123 C 
ATOM      2  C   UNL     1       2.229   2.053   1.588  0.00  0.00    +0.155 C 
ATOM      3  C   UNL     1       2.836   3.313   0.962  0.00  0.00    +0.004 C 
ATOM      4  C   UNL     1       1.889   3.875   0.199  0.00  0.00    +0.009 C 
ATOM      5  C   UNL     1       0.736   2.946   0.330  0.00  0.00    +0.127 C 
ATOM      6  C   UNL     1       1.085   1.651  -0.492  0.00  0.00    +0.128 C 
ATOM      7  C   UNL     1      -0.256   0.974  -0.541  0.00  0.00    +0.224 C 
ATOM      8  O   UNL     1      -0.437  -0.218  -0.672  0.00  0.00    -0.275 OA
ATOM      9  N   UNL     1      -1.234   1.908  -0.422  0.00  0.00    -0.283 N 
ATOM     10  C   UNL     1      -0.654   3.244  -0.140  0.00  0.00    +0.199 C 
ATOM     11  O   UNL     1       0.819   2.466   1.698  0.00  0.00    -0.358 OA
ENDROOT
BRANCH   9  12
ATOM     12  C   UNL     1      -2.667   1.633  -0.552  0.00  0.00    +0.077 C 
ATOM     13  C   UNL     1      -3.089   0.615   0.510  0.00  0.00    +0.022 C 
ATOM     14  C   UNL     1      -4.613   0.622   0.645  0.00  0.00    +0.002 C 
ATOM     15  C   UNL     1      -5.117   2.066   0.665  0.00  0.00    +0.000 C 
ATOM     16  C   UNL     1      -5.932   2.339  -0.601  0.00  0.00    +0.000 C 
ATOM     17  C   UNL     1      -4.983   2.517  -1.788  0.00  0.00    +0.000 C 
ATOM     18  C   UNL     1      -4.455   1.151  -2.229  0.00  0.00    +0.002 C 
ATOM     19  C   UNL     1      -2.954   1.067  -1.944  0.00  0.00    +0.022 C 
ENDBRANCH   9  12
BRANCH   1  21
ATOM     20  N   UNL     1       1.876  -1.478   0.300  0.00  0.00    -0.285 N 
ATOM     21  C   UNL     1       1.596  -0.335   0.956  0.00  0.00    +0.224 C 
ATOM     22  O   UNL     1       0.926  -0.364   1.966  0.00  0.00    -0.275 OA
ATOM     23  H   UNL     1       2.467  -1.464  -0.470  0.00  0.00    +0.155 HD
BRANCH  20  29
ATOM     24  C   UNL     1      -0.018  -5.885  -0.780  0.00  0.00    +0.044 C 
ATOM     25  C   UNL     1       0.388  -4.840   0.227  0.00  0.00    -0.049 A 
ATOM     26  C   UNL     1       0.208  -5.076   1.578  0.00  0.00    +0.003 A 
ATOM     27  C   UNL     1       0.579  -4.120   2.505  0.00  0.00    +0.002 A 
ATOM     28  C   UNL     1       1.138  -2.929   2.085  0.00  0.00    +0.023 A 
ATOM     29  C   UNL     1       1.316  -2.687   0.729  0.00  0.00    +0.034 A 
ATOM     30  C   UNL     1       0.941  -3.649  -0.200  0.00  0.00    +0.026 A 
ENDBRANCH  20  29
ENDBRANCH   1  21
BRANCH  10  31
ATOM     31  C   UNL     1      -0.621   4.079  -1.394  0.00  0.00    +0.237 C 
ATOM     32  O   UNL     1      -0.642   3.541  -2.481  0.00  0.00    -0.274 OA
ATOM     33  N   UNL     1      -0.566   5.423  -1.308  0.00  0.00    -0.311 N 
ATOM     34  H   UNL     1      -0.476   5.850  -0.442  0.00  0.00    +0.149 HD
BRANCH  33  35
ATOM     35  C   UNL     1      -0.643   6.238  -2.523  0.00  0.00    +0.076 C 
ATOM     36  C   UNL     1       0.764   6.451  -3.084  0.00  0.00    +0.022 C 
ATOM     37  C   UNL     1       1.626   7.167  -2.042  0.00  0.00    +0.002 C 
ATOM     38  C   UNL     1       1.000   8.523  -1.708  0.00  0.00    +0.000 C 
ATOM     39  C   UNL     1      -0.408   8.310  -1.147  0.00  0.00    +0.005 C 
ATOM     40  C   UNL     1      -1.269   7.593  -2.189  0.00  0.00    +0.006 C 
ATOM     41  C   UNL     1      -2.676   7.380  -1.628  0.00  0.00    +0.009 C 
ENDBRANCH  33  35
ENDBRANCH  10  31
TORSDOF 5
