REMARK  Name = ZINC11914061
REMARK  9 active torsions:
REMARK  status: ('A' for Active; 'I' for Inactive)
REMARK    1  A    between atoms: C_1  and  C_2
REMARK    2  A    between atoms: C_5  and  O_30
REMARK    3  A    between atoms: C_6  and  C_8
REMARK    4  A    between atoms: N_16  and  C_27
REMARK    5  A    between atoms: C_17  and  C_19
REMARK    6  A    between atoms: C_22  and  O_25
REMARK    7  A    between atoms: O_25  and  C_26
REMARK    8  A    between atoms: C_27  and  C_28
REMARK    9  A    between atoms: C_28  and  O_29
REMARK                            x       y       z     vdW  Elec       q    Type
REMARK                         _______ _______ _______ _____ _____    ______ ____
ROOT
ATOM      1  C   UNL     1      -0.349  -3.008   2.426  0.00  0.00    +0.102 A 
ATOM      2  C   UNL     1       0.023  -4.345   2.600  0.00  0.00    +0.035 A 
ATOM      3  C   UNL     1      -0.295  -4.657   3.909  0.00  0.00    +0.126 A 
ATOM      4  N   UNL     1      -0.830  -3.523   4.450  0.00  0.00    -0.272 N 
ATOM      5  H   UNL     1      -1.149  -3.437   5.362  0.00  0.00    +0.189 HD
ATOM      6  N   UNL     1      -0.845  -2.583   3.572  0.00  0.00    -0.173 NA
ATOM      7  C   UNL     1       0.072  -6.055   4.157  0.00  0.00    +0.266 C 
ATOM      8  O   UNL     1      -0.081  -6.636   5.215  0.00  0.00    -0.268 OA
ATOM      9  N   UNL     1       0.601  -6.605   3.049  0.00  0.00    -0.283 N 
ATOM     10  C   UNL     1       0.614  -5.587   1.991  0.00  0.00    +0.141 C 
ENDROOT
BRANCH   1  16
ATOM     11  C   UNL     1       2.452  -1.425  -1.391  0.00  0.00    +0.044 C 
ATOM     12  C   UNL     1       1.137  -1.447  -0.655  0.00  0.00    -0.050 A 
ATOM     13  C   UNL     1       0.063  -0.722  -1.140  0.00  0.00    +0.007 A 
ATOM     14  C   UNL     1      -1.146  -0.736  -0.472  0.00  0.00    +0.046 A 
ATOM     15  C   UNL     1      -1.289  -1.478   0.690  0.00  0.00    +0.126 A 
ATOM     16  C   UNL     1      -0.206  -2.211   1.182  0.00  0.00    +0.044 A 
ATOM     17  C   UNL     1       1.007  -2.195   0.498  0.00  0.00    +0.017 A 
BRANCH  15  18
ATOM     18  O   UNL     1      -2.477  -1.491   1.348  0.00  0.00    -0.506 OA
ATOM     19  H   UNL     1      -3.106  -2.143   1.011  0.00  0.00    +0.292 HD
ENDBRANCH  15  18
ENDBRANCH   1  16
BRANCH  10  20
ATOM     20  C   UNL     1      -0.224  -6.041   0.824  0.00  0.00    -0.022 A 
ATOM     21  C   UNL     1      -1.565  -6.326   1.006  0.00  0.00    +0.009 A 
ATOM     22  C   UNL     1      -2.335  -6.744  -0.062  0.00  0.00    +0.046 A 
ATOM     23  C   UNL     1      -1.762  -6.877  -1.318  0.00  0.00    +0.120 A 
ATOM     24  C   UNL     1      -0.417  -6.590  -1.499  0.00  0.00    +0.046 A 
ATOM     25  C   UNL     1       0.348  -6.168  -0.428  0.00  0.00    +0.009 A 
BRANCH  23  26
ATOM     26  O   UNL     1      -2.518  -7.288  -2.370  0.00  0.00    -0.495 OA
ATOM     27  C   UNL     1      -1.861  -7.402  -3.635  0.00  0.00    +0.277 C 
ENDBRANCH  23  26
ENDBRANCH  10  20
BRANCH   9  28
ATOM     28  C   UNL     1       1.082  -7.983   2.920  0.00  0.00    +0.137 C 
BRANCH  28  29
ATOM     29  C   UNL     1      -0.099  -8.910   2.627  0.00  0.00    +0.175 C 
BRANCH  29  30
ATOM     30  O   UNL     1      -0.596  -8.648   1.313  0.00  0.00    -0.393 OA
ATOM     31  H   UNL     1      -1.347  -9.201   1.060  0.00  0.00    +0.209 HD
ENDBRANCH  29  30
ENDBRANCH  28  29
ENDBRANCH   9  28
TORSDOF 7
