REMARK  Name = ZINC22798063
REMARK  9 active torsions:
REMARK  status: ('A' for Active; 'I' for Inactive)
REMARK    1  A    between atoms: C_1  and  C_2
REMARK    2  A    between atoms: C_5  and  C_37
REMARK    3  A    between atoms: C_10  and  C_12
REMARK    4  A    between atoms: C_12  and  N_13
REMARK    5  A    between atoms: N_16  and  C_19
REMARK    6  A    between atoms: C_19  and  C_21
REMARK    7  A    between atoms: C_19  and  C_22
REMARK    8  A    between atoms: N_24  and  C_25
REMARK    9  A    between atoms: C_26  and  C_35
REMARK                            x       y       z     vdW  Elec       q    Type
REMARK                         _______ _______ _______ _____ _____    ______ ____
ROOT
ATOM      1  N   UNL     1       4.942  -2.171   1.291  0.00  0.00    +0.387 N 
ATOM      2  C   UNL     1       4.770  -3.016   0.101  0.00  0.00    -0.063 C 
ATOM      3  C   UNL     1       5.457  -4.364   0.329  0.00  0.00    +0.066 C 
ATOM      4  N   UNL     1       6.886  -4.145   0.593  0.00  0.00    -0.295 NA
ATOM      5  C   UNL     1       7.073  -3.280   1.767  0.00  0.00    +0.066 C 
ATOM      6  C   UNL     1       6.373  -1.941   1.527  0.00  0.00    -0.063 C 
ATOM      7  H   UNL     1       4.539  -2.634   2.092  0.00  0.00    -0.081 HD
ENDROOT
BRANCH   4   8
ATOM      8  C   UNL     1       7.592  -5.421   0.761  0.00  0.00    +0.140 C 
ATOM      9  C   UNL     1       6.808  -6.315   1.724  0.00  0.00    +0.034 C 
BRANCH   8  10
ATOM     10  C   UNL     1       7.715  -6.108  -0.575  0.00  0.00    +0.235 C 
ATOM     11  O   UNL     1       7.056  -5.722  -1.517  0.00  0.00    -0.274 OA
ATOM     12  N   UNL     1       8.556  -7.150  -0.722  0.00  0.00    -0.278 N 
ATOM     13  H   UNL     1       9.083  -7.459   0.032  0.00  0.00    +0.155 HD
BRANCH  12  14
ATOM     14  C   UNL     1       8.669  -7.782  -1.952  0.00  0.00    +0.090 A 
ATOM     15  C   UNL     1       9.469  -8.861  -2.285  0.00  0.00    +0.084 A 
ATOM     16  C   UNL     1       9.407  -9.344  -3.657  0.00  0.00    -0.018 A 
ATOM     17  C   UNL     1       8.556  -8.651  -4.443  0.00  0.00    -0.004 A 
ATOM     18  S   UNL     1       7.860  -7.419  -3.378  0.00  0.00    -0.077 S 
ATOM     19  C   UNL     1       8.270  -8.869  -5.896  0.00  0.00    +0.043 C 
ATOM     20  C   UNL     1       7.989 -10.358  -6.135  0.00  0.00    +0.005 C 
ATOM     21  C   UNL     1       9.310 -11.060  -6.437  0.00  0.00    +0.001 C 
ATOM     22  C   UNL     1      10.448 -10.400  -5.661  0.00  0.00    +0.005 C 
ATOM     23  C   UNL     1      10.216 -10.532  -4.159  0.00  0.00    +0.037 C 
BRANCH  15  24
ATOM     24  C   UNL     1      10.325  -9.478  -1.317  0.00  0.00    +0.102 C 
ATOM     25  N   UNL     1      11.005  -9.967  -0.549  0.00  0.00    -0.191 NA
ENDBRANCH  15  24
ENDBRANCH  12  14
ENDBRANCH   8  10
ENDBRANCH   4   8
BRANCH   1  26
ATOM     26  C   UNL     1       4.267  -0.884   1.079  0.00  0.00    +0.019 C 
BRANCH  26  34
ATOM     27  C   UNL     1       2.416   3.400  -0.704  0.00  0.00    +0.009 C 
ATOM     28  C   UNL     1       1.983   1.933  -0.645  0.00  0.00    +0.004 C 
ATOM     29  C   UNL     1       0.456   1.850  -0.688  0.00  0.00    +0.009 C 
ATOM     30  C   UNL     1       0.023   0.382  -0.662  0.00  0.00    +0.004 C 
ATOM     31  C   UNL     1       0.506  -0.266   0.639  0.00  0.00    +0.111 C 
ATOM     32  N   UNL     1       1.956  -0.063   0.758  0.00  0.00    -0.303 N 
ATOM     33  C   UNL     1       2.489   1.303   0.656  0.00  0.00    +0.111 C 
ATOM     34  C   UNL     1       2.782  -1.109   0.958  0.00  0.00    +0.199 C 
ATOM     35  O   UNL     1       2.330  -2.231   1.041  0.00  0.00    -0.278 OA
ATOM     36  C   UNL     1      -1.503   0.299  -0.739  0.00  0.00    +0.009 C 
ENDBRANCH  26  34
ENDBRANCH   1  26
TORSDOF 6
