REMARK  Name = ZINC14021754
REMARK  6 active torsions:
REMARK  status: ('A' for Active; 'I' for Inactive)
REMARK    1  A    between atoms: C_1  and  C_2
REMARK    2  A    between atoms: C_7  and  N_8
REMARK    3  A    between atoms: N_8  and  C_9
REMARK    4  A    between atoms: C_9  and  C_10
REMARK    5  A    between atoms: C_22  and  C_23
REMARK    6  A    between atoms: C_22  and  C_24
REMARK                            x       y       z     vdW  Elec       q    Type
REMARK                         _______ _______ _______ _____ _____    ______ ____
ROOT
ATOM      1  C   UNL     1       2.627   0.114   0.725  0.00  0.00    +0.238 C 
ATOM      2  O   UNL     1       3.551  -0.613   0.426  0.00  0.00    -0.274 OA
ATOM      3  N   UNL     1       2.608   1.391   0.296  0.00  0.00    -0.254 N 
ATOM      4  C   UNL     1       1.493   2.214   0.520  0.00  0.00    +0.059 A 
ATOM      5  C   UNL     1       0.219   1.682   0.610  0.00  0.00    +0.025 A 
ATOM      6  C   UNL     1      -0.861   2.520   0.820  0.00  0.00    +0.002 A 
ATOM      7  C   UNL     1      -0.669   3.884   0.950  0.00  0.00    +0.002 A 
ATOM      8  C   UNL     1       0.602   4.421   0.863  0.00  0.00    +0.025 A 
ATOM      9  C   UNL     1       1.690   3.590   0.649  0.00  0.00    +0.055 A 
ATOM     10  N   UNL     1       2.985   4.113   0.564  0.00  0.00    -0.282 N 
ATOM     11  C   UNL     1       3.998   3.367   0.085  0.00  0.00    +0.241 C 
ATOM     12  O   UNL     1       5.121   3.826   0.062  0.00  0.00    -0.273 OA
ATOM     13  C   UNL     1       3.755   1.968  -0.421  0.00  0.00    +0.113 C 
ATOM     14  C   UNL     1       4.997   1.111  -0.173  0.00  0.00    +0.042 C 
ATOM     15  C   UNL     1       3.452   2.010  -1.920  0.00  0.00    +0.042 C 
ATOM     16  H   UNL     1       3.154   5.023   0.853  0.00  0.00    +0.155 HD
ENDROOT
BRANCH   1  17
ATOM     17  C   UNL     1       1.500  -0.412   1.576  0.00  0.00    +0.198 C 
BRANCH  17  18
ATOM     18  N   UNL     1       1.946  -1.612   2.289  0.00  0.00    -0.335 N 
ATOM     19  H   UNL     1       2.850  -1.942   2.166  0.00  0.00    +0.147 HD
BRANCH  18  26
ATOM     20  C   UNL     1       2.893  -3.934   3.632  0.00  0.00    +0.045 C 
ATOM     21  C   UNL     1       1.490  -3.420   3.822  0.00  0.00    -0.030 A 
ATOM     22  C   UNL     1       0.621  -4.080   4.669  0.00  0.00    +0.006 A 
ATOM     23  C   UNL     1      -0.667  -3.609   4.844  0.00  0.00    +0.020 A 
ATOM     24  C   UNL     1      -1.091  -2.475   4.172  0.00  0.00    +0.043 A 
ATOM     25  C   UNL     1      -0.224  -1.808   3.327  0.00  0.00    +0.043 A 
ATOM     26  C   UNL     1       1.069  -2.282   3.146  0.00  0.00    +0.032 A 
ATOM     27 CL   UNL     1      -2.709  -1.887   4.396  0.00  0.00    -0.083 Cl
ENDBRANCH  18  26
ENDBRANCH  17  18
ENDBRANCH   1  17
TORSDOF 3
