REMARK  Name = ZINC15839175
REMARK  9 active torsions:
REMARK  status: ('A' for Active; 'I' for Inactive)
REMARK    1  A    between atoms: C_1  and  C_2
REMARK    2  A    between atoms: C_2  and  C_3
REMARK    3  A    between atoms: C_3  and  C_33
REMARK    4  A    between atoms: N_18  and  C_23
REMARK    5  A    between atoms: C_20  and  S_21
REMARK    6  A    between atoms: S_21  and  C_22
REMARK    7  A    between atoms: C_23  and  C_24
REMARK    8  A    between atoms: N_26  and  C_27
REMARK    9  A    between atoms: C_33  and  C_34
REMARK                            x       y       z     vdW  Elec       q    Type
REMARK                         _______ _______ _______ _____ _____    ______ ____
ROOT
ATOM      1  C   UNL     1      -1.311   6.246   0.412  0.00  0.00    +0.006 C 
ATOM      2  C   UNL     1      -0.508   5.576   1.523  0.00  0.00    +0.047 C 
ATOM      3  C   UNL     1      -0.738   4.088   1.524  0.00  0.00    -0.037 A 
ATOM      4  C   UNL     1       0.288   3.226   1.856  0.00  0.00    +0.004 A 
ATOM      5  C   UNL     1       0.065   1.861   1.880  0.00  0.00    +0.000 A 
ATOM      6  C   UNL     1      -1.185   1.350   1.579  0.00  0.00    +0.001 A 
ATOM      7  C   UNL     1      -2.217   2.201   1.239  0.00  0.00    +0.010 A 
ATOM      8  C   UNL     1      -1.995   3.576   1.208  0.00  0.00    +0.004 A 
ATOM      9  C   UNL     1      -3.077   4.508   0.819  0.00  0.00    +0.084 A 
ATOM     10  C   UNL     1      -2.749   5.809   0.454  0.00  0.00    +0.050 A 
ATOM     11  C   UNL     1      -3.775   6.697   0.126  0.00  0.00    +0.266 A 
ATOM     12  O   UNL     1      -3.524   7.849  -0.189  0.00  0.00    -0.267 OA
ATOM     13  N   UNL     1      -5.052   6.257   0.165  0.00  0.00    -0.222 N 
ATOM     14  C   UNL     1      -5.322   4.965   0.509  0.00  0.00    +0.237 A 
ATOM     15  N   UNL     1      -4.353   4.120   0.823  0.00  0.00    -0.211 NA
ATOM     16  N   UNL     1      -6.673   4.809   0.448  0.00  0.00    -0.221 N 
ATOM     17  N   UNL     1      -7.219   6.042   0.069  0.00  0.00    -0.142 NA
ATOM     18  C   UNL     1      -6.247   6.891  -0.095  0.00  0.00    +0.198 A 
ENDROOT
BRANCH   1  20
ATOM     19  C   UNL     1       0.222   8.201   0.676  0.00  0.00    +0.005 C 
ATOM     20  C   UNL     1      -1.242   7.764   0.586  0.00  0.00    +0.009 C 
ENDBRANCH   1  20
BRANCH  18  21
ATOM     21  S   UNL     1      -6.428   8.577  -0.572  0.00  0.00    -0.089 S 
ATOM     22  C   UNL     1      -8.229   8.668  -0.726  0.00  0.00    +0.093 C 
ENDBRANCH  18  21
BRANCH   1  23
ATOM     23  C   UNL     1      -0.710   5.867  -0.943  0.00  0.00    +0.009 C 
ATOM     24  C   UNL     1      -1.452   6.610  -2.056  0.00  0.00    +0.005 C 
ENDBRANCH   1  23
BRANCH  16  25
ATOM     25  C   UNL     1      -7.418   3.579   0.729  0.00  0.00    +0.243 C 
BRANCH  25  26
ATOM     26  C   UNL     1      -7.778   3.532   2.192  0.00  0.00    +0.239 C 
ATOM     27  O   UNL     1      -7.445   4.437   2.927  0.00  0.00    -0.273 OA
ATOM     28  N   UNL     1      -8.470   2.485   2.682  0.00  0.00    -0.284 N 
ATOM     29  H   UNL     1      -8.676   1.729   2.110  0.00  0.00    +0.155 HD
BRANCH  28  30
ATOM     30  C   UNL     1      -8.890   2.487   4.016  0.00  0.00    +0.033 A 
ATOM     31  C   UNL     1      -8.950   1.297   4.729  0.00  0.00    +0.023 A 
ATOM     32  C   UNL     1      -9.361   1.304   6.048  0.00  0.00    +0.002 A 
ATOM     33  C   UNL     1      -9.722   2.492   6.655  0.00  0.00    +0.000 A 
ATOM     34  C   UNL     1      -9.669   3.678   5.946  0.00  0.00    +0.002 A 
ATOM     35  C   UNL     1      -9.254   3.679   4.629  0.00  0.00    +0.023 A 
ENDBRANCH  28  30
ENDBRANCH  25  26
ENDBRANCH  16  25
TORSDOF 6
