REMARK  Name = ZINC02137250
REMARK  7 active torsions:
REMARK  status: ('A' for Active; 'I' for Inactive)
REMARK    1  A    between atoms: C_1  and  C_2
REMARK    2  A    between atoms: C_8  and  C_35
REMARK    3  A    between atoms: C_9  and  O_34
REMARK    4  A    between atoms: C_19  and  C_21
REMARK    5  A    between atoms: C_21  and  N_68
REMARK    6  A    between atoms: C_24  and  C_27
REMARK    7  A    between atoms: C_27  and  C_28
REMARK                            x       y       z     vdW  Elec       q    Type
REMARK                         _______ _______ _______ _____ _____    ______ ____
ROOT
ATOM      1  C   UNL     1       3.510  -2.049   7.102  0.00  0.00    +0.008 C 
ATOM      2  C   UNL     1       4.846  -2.399   6.442  0.00  0.00    -0.001 C 
ATOM      3  C   UNL     1       5.188  -3.848   6.782  0.00  0.00    +0.008 C 
ATOM      4  C   UNL     1       6.566  -4.179   6.204  0.00  0.00    +0.027 C 
ATOM      5  C   UNL     1       6.554  -3.877   4.733  0.00  0.00    -0.027 C 
ATOM      6  C   UNL     1       5.756  -3.008   4.191  0.00  0.00    -0.061 C 
ATOM      7  C   UNL     1       4.726  -2.197   4.930  0.00  0.00    +0.018 C 
ATOM      8  C   UNL     1       4.934  -0.719   4.613  0.00  0.00    +0.132 C 
ATOM      9  C   UNL     1       5.337  -0.351   3.230  0.00  0.00    +0.071 C 
ATOM     10  C   UNL     1       6.321  -1.299   2.522  0.00  0.00    +0.187 C 
ATOM     11  C   UNL     1       5.880  -2.756   2.698  0.00  0.00    +0.076 C 
ATOM     12  O   UNL     1       6.166  -0.951   1.104  0.00  0.00    -0.460 OA
ATOM     13  C   UNL     1       4.867  -0.653   0.896  0.00  0.00    +0.309 C 
ATOM     14  O   UNL     1       4.233  -0.878  -0.104  0.00  0.00    -0.251 OA
ATOM     15  C   UNL     1       4.332   0.023   2.156  0.00  0.00    +0.090 C 
ATOM     16  C   UNL     1       3.330  -2.661   4.523  0.00  0.00    +0.018 C 
ENDROOT
BRANCH   8  17
ATOM     17  O   UNL     1       3.795   0.040   5.026  0.00  0.00    -0.391 OA
ATOM     18  H   UNL     1       3.939   0.996   5.027  0.00  0.00    +0.210 HD
ENDBRANCH   8  17
BRANCH  15  19
ATOM     19  C   UNL     1       2.890  -0.395   2.397  0.00  0.00    -0.064 C 
BRANCH  19  25
ATOM     20  C   UNL     1       0.692  -0.450   1.383  0.00  0.00    -0.079 C 
ATOM     21  C   UNL     1      -0.116  -0.001   0.163  0.00  0.00    -0.015 C 
ATOM     22  C   UNL     1      -0.193   1.528   0.143  0.00  0.00    -0.010 C 
ATOM     23  C   UNL     1       1.226   2.103   0.123  0.00  0.00    -0.015 C 
ATOM     24  C   UNL     1       1.996   1.593   1.343  0.00  0.00    -0.079 C 
ATOM     25  N   UNL     1       2.055   0.116   1.290  0.00  0.00    +0.380 N 
ATOM     26  H   UNL     1       2.474  -0.169   0.398  0.00  0.00    -0.082 HD
BRANCH  22  27
ATOM     27  C   UNL     1      -0.948   1.986  -1.107  0.00  0.00    +0.038 C 
BRANCH  27  28
ATOM     28  C   UNL     1      -1.130   3.481  -1.064  0.00  0.00    -0.047 A 
ATOM     29  C   UNL     1      -2.256   4.023  -0.474  0.00  0.00    +0.003 A 
ATOM     30  C   UNL     1      -2.421   5.395  -0.430  0.00  0.00    +0.000 A 
ATOM     31  C   UNL     1      -1.465   6.224  -0.986  0.00  0.00    +0.000 A 
ATOM     32  C   UNL     1      -0.342   5.682  -1.581  0.00  0.00    +0.000 A 
ATOM     33  C   UNL     1      -0.174   4.310  -1.620  0.00  0.00    +0.003 A 
ENDBRANCH  27  28
ENDBRANCH  22  27
ENDBRANCH  19  25
ENDBRANCH  15  19
TORSDOF 5
