REMARK  Name = ZINC27664421
REMARK  8 active torsions:
REMARK  status: ('A' for Active; 'I' for Inactive)
REMARK    1  A    between atoms: C_1  and  C_2
REMARK    2  A    between atoms: C_2  and  C_4
REMARK    3  A    between atoms: C_7  and  C_10
REMARK    4  A    between atoms: C_13  and  C_15
REMARK    5  A    between atoms: C_17  and  C_29
REMARK    6  A    between atoms: C_19  and  C_24
REMARK    7  A    between atoms: C_19  and  O_28
REMARK    8  A    between atoms: C_29  and  C_31
REMARK                            x       y       z     vdW  Elec       q    Type
REMARK                         _______ _______ _______ _____ _____    ______ ____
ROOT
ATOM      1  C   UNL     1       0.023   0.016   0.038  0.00  0.00    +0.156 C 
ATOM      2  C   UNL     1      -0.228  -0.529   1.448  0.00  0.00    +0.148 C 
ATOM      3  C   UNL     1      -0.326  -2.056   1.370  0.00  0.00    +0.243 C 
ATOM      4  N   UNL     1      -1.362  -2.423   0.403  0.00  0.00    -0.264 N 
ATOM      5  C   UNL     1      -1.654  -1.631  -0.640  0.00  0.00    +0.302 C 
ATOM      6  O   UNL     1      -2.516  -1.987  -1.420  0.00  0.00    -0.253 OA
ATOM      7  N   UNL     1      -1.032  -0.462  -0.857  0.00  0.00    -0.289 N 
ATOM      8  H   UNL     1      -1.919  -3.364   0.523  0.00  0.00    +0.153 HD
ATOM      9  H   UNL     1      -1.330   0.140  -1.728  0.00  0.00    +0.151 HD
ENDROOT
BRANCH   1  13
ATOM     10  C   UNL     1      -0.720   3.592   0.118  0.00  0.00    +0.135 A 
ATOM     11  C   UNL     1       0.640   3.648   0.116  0.00  0.00    +0.050 A 
ATOM     12  C   UNL     1       1.100   2.318   0.086  0.00  0.00    +0.047 A 
ATOM     13  C   UNL     1       0.010   1.523   0.071  0.00  0.00    +0.127 A 
ATOM     14  O   UNL     1      -1.087   2.296   0.085  0.00  0.00    -0.458 OA
BRANCH  10  18
ATOM     15  C   UNL     1      -3.347   6.919   0.195  0.00  0.00    +0.017 A 
ATOM     16  C   UNL     1      -3.865   5.617   0.168  0.00  0.00    +0.012 A 
ATOM     17  C   UNL     1      -3.018   4.547   0.144  0.00  0.00    +0.012 A 
ATOM     18  C   UNL     1      -1.634   4.749   0.144  0.00  0.00    +0.017 A 
ATOM     19  C   UNL     1      -1.115   6.048   0.176  0.00  0.00    +0.012 A 
ATOM     20  C   UNL     1      -1.960   7.120   0.196  0.00  0.00    +0.012 A 
BRANCH  15  22
ATOM     21  C   UNL     1      -3.698   9.471   0.250  0.00  0.00    +0.091 C 
ATOM     22  C   UNL     1      -4.256   8.071   0.222  0.00  0.00    +0.160 C 
ATOM     23  O   UNL     1      -5.457   7.896   0.221  0.00  0.00    -0.292 OA
ENDBRANCH  15  22
ENDBRANCH  10  18
ENDBRANCH   1  13
BRANCH   3  24
ATOM     24  C   UNL     1       1.018  -2.632   0.922  0.00  0.00    +0.436 C 
ATOM     25  F   UNL     1       1.286  -2.226  -0.390  0.00  0.00    -0.166 F 
ATOM     26  F   UNL     1       2.030  -2.168   1.770  0.00  0.00    -0.166 F 
ATOM     27  F   UNL     1       0.969  -4.029   0.977  0.00  0.00    -0.166 F 
ENDBRANCH   3  24
BRANCH   3  28
ATOM     28  O   UNL     1      -0.666  -2.581   2.655  0.00  0.00    -0.364 OA
ATOM     29  H   UNL     1      -0.781  -3.666   2.793  0.00  0.00    +0.212 HD
ENDBRANCH   3  28
BRANCH   2  30
ATOM     30  C   UNL     1      -1.518   0.035   1.986  0.00  0.00    +0.180 C 
ATOM     31  O   UNL     1      -2.550  -0.596   1.874  0.00  0.00    -0.291 OA
BRANCH  30  32
ATOM     32  C   UNL     1      -1.528   1.296   2.621  0.00  0.00    +0.055 A 
ATOM     33  C   UNL     1      -2.598   1.992   3.175  0.00  0.00    +0.019 A 
ATOM     34  C   UNL     1      -2.324   3.210   3.739  0.00  0.00    +0.008 A 
ATOM     35  C   UNL     1      -1.046   3.679   3.720  0.00  0.00    +0.046 A 
ATOM     36  S   UNL     1      -0.171   2.418   2.914  0.00  0.00    -0.094 S 
ENDBRANCH  30  32
ENDBRANCH   2  30
TORSDOF 7
