REMARK  Name = ZINC46773529
REMARK  6 active torsions:
REMARK  status: ('A' for Active; 'I' for Inactive)
REMARK    1  A    between atoms: C_3  and  C_6
REMARK    2  A    between atoms: C_12  and  C_15
REMARK    3  A    between atoms: N_17  and  N_18
REMARK    4  A    between atoms: N_18  and  C_19
REMARK    5  A    between atoms: C_19  and  N_21
REMARK    6  A    between atoms: N_21  and  C_22
REMARK                            x       y       z     vdW  Elec       q    Type
REMARK                         _______ _______ _______ _____ _____    ______ ____
ROOT
ATOM      1  C   UNL     1       7.704  -1.836   0.851  0.00  0.00    +0.234 C 
ATOM      2  O   UNL     1       8.170  -2.948   0.981  0.00  0.00    -0.274 OA
ATOM      3  N   UNL     1       8.490  -0.752   1.008  0.00  0.00    -0.235 N 
ATOM      4  H   UNL     1       8.116   0.137   0.905  0.00  0.00    +0.173 HD
ENDROOT
BRANCH   1  11
ATOM      5  C   UNL     1       4.090   0.297  -1.477  0.00  0.00    +0.282 C 
ATOM      6  O   UNL     1       2.888   0.337  -1.663  0.00  0.00    -0.267 OA
ATOM      7  N   UNL     1       4.690  -0.875  -1.192  0.00  0.00    -0.294 N 
ATOM      8  C   UNL     1       3.936  -2.135  -1.251  0.00  0.00    +0.108 C 
ATOM      9  C   UNL     1       4.095  -2.869   0.085  0.00  0.00    +0.020 C 
ATOM     10  C   UNL     1       5.585  -3.041   0.393  0.00  0.00    +0.016 C 
ATOM     11  C   UNL     1       6.244  -1.665   0.515  0.00  0.00    +0.094 C 
ATOM     12  C   UNL     1       6.111  -0.919  -0.821  0.00  0.00    +0.121 C 
BRANCH   5  15
ATOM     13  C   UNL     1       5.504   3.652  -1.751  0.00  0.00    +0.042 A 
ATOM     14  C   UNL     1       4.396   2.791  -1.717  0.00  0.00    +0.054 A 
ATOM     15  C   UNL     1       4.887   1.526  -1.564  0.00  0.00    +0.189 A 
ATOM     16  O   UNL     1       6.232   1.604  -1.506  0.00  0.00    -0.458 OA
ATOM     17  C   UNL     1       6.608   2.885  -1.619  0.00  0.00    +0.196 A 
ENDBRANCH   5  15
ENDBRANCH   1  11
BRANCH   3  18
ATOM     18  N   UNL     1       9.846  -0.911   1.321  0.00  0.00    -0.246 N 
ATOM     19  H   UNL     1      10.220  -1.800   1.424  0.00  0.00    +0.172 HD
BRANCH  18  20
ATOM     20  C   UNL     1      10.632   0.173   1.478  0.00  0.00    +0.151 C 
ATOM     21  S   UNL     1      12.290  -0.021   1.860  0.00  0.00    -0.017 S 
BRANCH  20  22
ATOM     22  N   UNL     1      10.114   1.408   1.334  0.00  0.00    -0.295 N 
ATOM     23  H   UNL     1       9.162   1.520   1.184  0.00  0.00    +0.154 HD
BRANCH  22  24
ATOM     24  C   UNL     1      10.948   2.530   1.403  0.00  0.00    +0.051 A 
ATOM     25  C   UNL     1      12.170   2.529   0.743  0.00  0.00    +0.026 A 
ATOM     26  C   UNL     1      12.992   3.637   0.812  0.00  0.00    +0.022 A 
ATOM     27  C   UNL     1      12.599   4.749   1.537  0.00  0.00    +0.042 A 
ATOM     28  C   UNL     1      11.382   4.753   2.195  0.00  0.00    +0.041 A 
ATOM     29  C   UNL     1      10.553   3.649   2.126  0.00  0.00    +0.063 A 
ATOM     30 CL   UNL     1       9.023   3.658   2.946  0.00  0.00    -0.082 Cl
ATOM     31 CL   UNL     1      13.634   6.139   1.620  0.00  0.00    -0.083 Cl
ENDBRANCH  22  24
ENDBRANCH  20  22
ENDBRANCH  18  20
ENDBRANCH   3  18
TORSDOF 6
