REMARK  Name = ZINC40733454
REMARK  7 active torsions:
REMARK  status: ('A' for Active; 'I' for Inactive)
REMARK    1  A    between atoms: C_1  and  C_2
REMARK    2  A    between atoms: C_2  and  C_3
REMARK    3  A    between atoms: C_11  and  N_30
REMARK    4  A    between atoms: C_12  and  N_16
REMARK    5  A    between atoms: N_16  and  N_17
REMARK    6  A    between atoms: N_17  and  C_18
REMARK    7  A    between atoms: N_17  and  C_24
REMARK                            x       y       z     vdW  Elec       q    Type
REMARK                         _______ _______ _______ _____ _____    ______ ____
ROOT
ATOM      1  C   UNL     1       1.501   0.300  -2.379  0.00  0.00    +0.075 C 
ATOM      2  C   UNL     1       0.056  -0.085  -2.710  0.00  0.00    +0.022 C 
ATOM      3  C   UNL     1      -0.143  -1.579  -2.448  0.00  0.00    +0.003 C 
ATOM      4  C   UNL     1       0.108  -1.877  -0.968  0.00  0.00    +0.019 C 
ATOM      5  C   UNL     1       1.554  -1.513  -0.617  0.00  0.00    +0.107 C 
ATOM      6  N   UNL     1       1.800  -0.116  -1.002  0.00  0.00    -0.311 N 
ATOM      7  C   UNL     1       2.302   0.795  -0.080  0.00  0.00    +0.147 A 
ATOM      8  C   UNL     1       3.679   0.971   0.065  0.00  0.00    +0.105 A 
ATOM      9  C   UNL     1       4.130   1.898   1.005  0.00  0.00    +0.139 A 
ATOM     10  N   UNL     1       3.237   2.575   1.723  0.00  0.00    -0.332 N 
ATOM     11  C   UNL     1       1.945   2.379   1.555  0.00  0.00    +0.200 A 
ATOM     12  N   UNL     1       1.477   1.517   0.674  0.00  0.00    -0.221 NA
ATOM     13  H   UNL     1       3.541   3.222   2.379  0.00  0.00    +0.168 HD
ENDROOT
BRANCH   8  14
ATOM     14  N   UNL     1       4.587   0.234  -0.714  0.00  0.00    -0.353 N 
ATOM     15  H   UNL     1       4.264  -0.468  -1.301  0.00  0.00    +0.143 HD
ATOM     16  H   UNL     1       5.536   0.427  -0.665  0.00  0.00    +0.143 HD
ENDBRANCH   8  14
BRANCH   1  18
ATOM     17  C   UNL     1       1.506   2.227  -3.969  0.00  0.00    +0.006 C 
ATOM     18  C   UNL     1       1.670   1.815  -2.505  0.00  0.00    +0.019 C 
ENDBRANCH   1  18
BRANCH   9  19
ATOM     19  N   UNL     1       5.491   2.112   1.190  0.00  0.00    -0.243 N 
ATOM     20  H   UNL     1       6.136   1.614   0.663  0.00  0.00    +0.172 HD
BRANCH  19  21
ATOM     21  N   UNL     1       5.932   3.046   2.137  0.00  0.00    -0.221 N 
BRANCH  21  22
ATOM     22  C   UNL     1       5.875   2.740   3.499  0.00  0.00    +0.053 A 
ATOM     23  C   UNL     1       6.329   1.508   3.955  0.00  0.00    +0.025 A 
ATOM     24  C   UNL     1       6.271   1.209   5.302  0.00  0.00    +0.002 A 
ATOM     25  C   UNL     1       5.762   2.133   6.196  0.00  0.00    +0.000 A 
ATOM     26  C   UNL     1       5.309   3.359   5.745  0.00  0.00    +0.002 A 
ATOM     27  C   UNL     1       5.369   3.668   4.400  0.00  0.00    +0.025 A 
ENDBRANCH  21  22
BRANCH  21  28
ATOM     28  C   UNL     1       6.428   4.283   1.719  0.00  0.00    +0.053 A 
ATOM     29  C   UNL     1       7.626   4.763   2.234  0.00  0.00    +0.025 A 
ATOM     30  C   UNL     1       8.113   5.986   1.819  0.00  0.00    +0.002 A 
ATOM     31  C   UNL     1       7.410   6.734   0.892  0.00  0.00    +0.000 A 
ATOM     32  C   UNL     1       6.217   6.260   0.378  0.00  0.00    +0.002 A 
ATOM     33  C   UNL     1       5.727   5.035   0.784  0.00  0.00    +0.025 A 
ENDBRANCH  21  28
ENDBRANCH  19  21
ENDBRANCH   9  19
TORSDOF 6
