REMARK  Name = ZINC39530626
REMARK  10 active torsions:
REMARK  status: ('A' for Active; 'I' for Inactive)
REMARK    1  A    between atoms: C_1  and  C_2
REMARK    2  A    between atoms: C_2  and  C_3
REMARK    3  A    between atoms: C_2  and  S_4
REMARK    4  A    between atoms: S_4  and  C_7
REMARK    5  A    between atoms: C_10  and  N_23
REMARK    6  A    between atoms: C_11  and  S_13
REMARK    7  A    between atoms: S_13  and  O_16
REMARK    8  A    between atoms: O_16  and  C_17
REMARK    9  A    between atoms: C_27  and  C_30
REMARK   10  A    between atoms: C_30  and  C_31
REMARK                            x       y       z     vdW  Elec       q    Type
REMARK                         _______ _______ _______ _____ _____    ______ ____
ROOT
ATOM      1  C   UNL     1      -2.885  -0.014  -1.512  0.00  0.00    +0.090 A 
ATOM      2  C   UNL     1      -2.851   1.355  -1.704  0.00  0.00    +0.029 A 
ATOM      3  C   UNL     1      -2.983   1.880  -2.974  0.00  0.00    +0.027 A 
ATOM      4  C   UNL     1      -3.149   1.030  -4.061  0.00  0.00    +0.058 A 
ATOM      5  C   UNL     1      -3.182  -0.345  -3.865  0.00  0.00    +0.151 A 
ATOM      6  C   UNL     1      -3.044  -0.863  -2.592  0.00  0.00    +0.059 A 
ENDROOT
BRANCH   4   7
ATOM      7  N   UNL     1      -3.283   1.557  -5.347  0.00  0.00    -0.332 N 
ATOM      8  C   UNL     1      -4.598   1.621  -6.005  0.00  0.00    +0.086 C 
ATOM      9  C   UNL     1      -4.471   1.008  -7.404  0.00  0.00    -0.063 C 
ATOM     10  N   UNL     1      -3.393   1.682  -8.137  0.00  0.00    +0.383 N 
ATOM     11  C   UNL     1      -2.105   1.429  -7.477  0.00  0.00    -0.050 C 
ATOM     12  C   UNL     1      -2.115   2.069  -6.080  0.00  0.00    +0.089 C 
ATOM     13  H   UNL     1      -3.359   1.330  -9.082  0.00  0.00    -0.085 HD
ATOM     14  H   UNL     1      -3.570   2.675  -8.157  0.00  0.00    -0.085 HD
BRANCH  11  15
ATOM     15  C   UNL     1      -0.977   2.042  -8.309  0.00  0.00    +0.021 C 
BRANCH  15  16
ATOM     16  C   UNL     1      -0.890   1.334  -9.637  0.00  0.00    -0.049 A 
ATOM     17  C   UNL     1      -0.082   0.220  -9.774  0.00  0.00    +0.003 A 
ATOM     18  C   UNL     1      -0.003  -0.429 -10.992  0.00  0.00    +0.000 A 
ATOM     19  C   UNL     1      -0.731   0.034 -12.072  0.00  0.00    +0.000 A 
ATOM     20  C   UNL     1      -1.539   1.147 -11.934  0.00  0.00    +0.000 A 
ATOM     21  C   UNL     1      -1.622   1.794 -10.715  0.00  0.00    +0.003 A 
ENDBRANCH  15  16
ENDBRANCH  11  15
ENDBRANCH   4   7
BRANCH   1  22
ATOM     22  S   UNL     1      -2.716  -0.679   0.111  0.00  0.00    -0.001 S 
ATOM     23  O   UNL     1      -3.376  -1.936   0.058  0.00  0.00    -0.169 OA
ATOM     24  O   UNL     1      -3.183   0.349   0.974  0.00  0.00    -0.169 OA
BRANCH  22  26
ATOM     25  C   UNL     1      -0.215   0.426   0.196  0.00  0.00    +0.032 C 
ATOM     26  C   UNL     1      -0.932  -0.919   0.334  0.00  0.00    +0.130 C 
ATOM     27  C   UNL     1      -0.665  -1.498   1.724  0.00  0.00    +0.032 C 
ENDBRANCH  22  26
ENDBRANCH   1  22
BRANCH   5  28
ATOM     28  S   UNL     1      -3.393  -1.427  -5.239  0.00  0.00    +0.153 S 
ATOM     29  O   UNL     1      -2.463  -1.011  -6.230  0.00  0.00    -0.131 OA
ATOM     30  O   UNL     1      -3.411  -2.748  -4.717  0.00  0.00    -0.131 OA
BRANCH  28  31
ATOM     31  O   UNL     1      -4.780  -1.165  -5.809  0.00  0.00    -0.342 OA
BRANCH  31  32
ATOM     32  C   UNL     1      -5.789  -1.715  -5.081  0.00  0.00    +0.157 A 
ATOM     33  C   UNL     1      -6.220  -3.005  -5.354  0.00  0.00    +0.048 A 
ATOM     34  C   UNL     1      -7.244  -3.561  -4.613  0.00  0.00    +0.004 A 
ATOM     35  C   UNL     1      -7.841  -2.832  -3.601  0.00  0.00    +0.000 A 
ATOM     36  C   UNL     1      -7.414  -1.546  -3.327  0.00  0.00    +0.004 A 
ATOM     37  C   UNL     1      -6.385  -0.988  -4.061  0.00  0.00    +0.048 A 
ENDBRANCH  31  32
ENDBRANCH  28  31
ENDBRANCH   5  28
TORSDOF 8
