REMARK  Name = ZINC20086372
REMARK  2 active torsions:
REMARK  status: ('A' for Active; 'I' for Inactive)
REMARK    1  A    between atoms: C_1  and  C_2
REMARK    2  A    between atoms: C_4  and  C_16
REMARK                            x       y       z     vdW  Elec       q    Type
REMARK                         _______ _______ _______ _____ _____    ______ ____
ROOT
ATOM      1  C   UNL     1      -0.018   1.503   0.010  0.00  0.00    +0.062 C 
ATOM      2  C   UNL     1       0.002  -0.004   0.002  0.00  0.00    +0.028 C 
ATOM      3  C   UNL     1      -1.079  -0.801   0.003  0.00  0.00    +0.032 C 
ATOM      4  C   UNL     1      -2.571  -0.540   0.011  0.00  0.00    +0.176 C 
ATOM      5  C   UNL     1      -3.453  -1.773   0.009  0.00  0.00    +0.079 C 
ATOM      6  C   UNL     1      -2.845  -2.998  -0.001  0.00  0.00    +0.092 C 
ATOM      7  C   UNL     1      -3.970  -4.012  -0.003  0.00  0.00    +0.288 C 
ATOM      8  O   UNL     1      -5.176  -3.240   0.007  0.00  0.00    -0.455 OA
ATOM      9  C   UNL     1      -4.840  -1.935   0.014  0.00  0.00    +0.338 C 
ATOM     10  O   UNL     1      -5.641  -1.017   0.023  0.00  0.00    -0.245 OA
ATOM     11  N   UNL     1      -1.529  -3.139  -0.008  0.00  0.00    -0.229 NA
ATOM     12  C   UNL     1      -0.652  -2.149  -0.007  0.00  0.00    +0.165 C 
ATOM     13  N   UNL     1       0.724  -2.128  -0.014  0.00  0.00    -0.132 NA
ATOM     14  N   UNL     1       1.123  -0.785  -0.013  0.00  0.00    -0.249 N 
ATOM     15  H   UNL     1       2.039  -0.464  -0.020  0.00  0.00    +0.172 HD
ENDROOT
BRANCH   4  16
ATOM     16  C   UNL     1      -2.912   0.283  -1.204  0.00  0.00    +0.368 C 
ATOM     17  O   UNL     1      -4.010   0.176  -1.724  0.00  0.00    -0.245 OA
ATOM     18  O   UNL     1      -2.091   1.057  -1.667  0.00  0.00    -0.245 OA
ENDBRANCH   4  16
TORSDOF 1
