REMARK  Name = ZINC01106329
REMARK  5 active torsions:
REMARK  status: ('A' for Active; 'I' for Inactive)
REMARK    1  A    between atoms: C_1  and  C_2
REMARK    2  A    between atoms: C_11  and  C_13
REMARK    3  A    between atoms: C_15  and  N_28
REMARK    4  A    between atoms: C_16  and  C_26
REMARK    5  A    between atoms: C_17  and  C_19
REMARK                            x       y       z     vdW  Elec       q    Type
REMARK                         _______ _______ _______ _____ _____    ______ ____
ROOT
ATOM      1  C   UNL     1       3.527  -2.840  -0.056  0.00  0.00    +0.087 C 
ATOM      2  C   UNL     1       3.587  -1.334  -0.046  0.00  0.00    +0.114 A 
ATOM      3  C   UNL     1       2.520  -0.500  -0.029  0.00  0.00    +0.073 A 
ATOM      4  C   UNL     1       1.102  -0.891  -0.014  0.00  0.00    +0.190 A 
ATOM      5  O   UNL     1       0.853  -2.086  -0.018  0.00  0.00    -0.287 OA
ATOM      6  C   UNL     1       0.002  -0.004   0.002  0.00  0.00    +0.052 A 
ATOM      7  C   UNL     1      -0.016   1.350   0.009  0.00  0.00    +0.012 A 
ATOM      8  C   UNL     1       0.988   2.326   0.005  0.00  0.00    +0.008 A 
ATOM      9  C   UNL     1       2.353   2.148  -0.008  0.00  0.00    +0.145 A 
ATOM     10  C   UNL     1       3.075   0.867  -0.025  0.00  0.00    +0.069 A 
ATOM     11  C   UNL     1       4.425   0.716  -0.042  0.00  0.00    +0.114 A 
ATOM     12  O   UNL     1       4.705  -0.595  -0.054  0.00  0.00    -0.464 OA
ATOM     13  C   UNL     1       5.436   1.833  -0.046  0.00  0.00    +0.087 C 
ATOM     14  O   UNL     1       3.161   3.223  -0.004  0.00  0.00    -0.440 OA
ATOM     15  C   UNL     1       2.767   4.403  -0.509  0.00  0.00    +0.199 C 
ATOM     16  C   UNL     1       1.444   4.712  -0.524  0.00  0.00    +0.098 C 
ATOM     17  C   UNL     1       0.448   3.730   0.017  0.00  0.00    +0.098 C 
ENDROOT
BRANCH  17  18
ATOM     18  C   UNL     1       0.101   4.111   1.433  0.00  0.00    -0.035 A 
ATOM     19  C   UNL     1       1.081   4.109   2.409  0.00  0.00    +0.005 A 
ATOM     20  C   UNL     1       0.764   4.463   3.707  0.00  0.00    +0.015 A 
ATOM     21  C   UNL     1      -0.535   4.809   4.032  0.00  0.00    +0.018 A 
ATOM     22  C   UNL     1      -1.516   4.806   3.056  0.00  0.00    +0.015 A 
ATOM     23  C   UNL     1      -1.197   4.457   1.757  0.00  0.00    +0.005 A 
ATOM     24 BR   UNL     1      -0.971   5.287   5.809  0.00  0.00    -0.050 Br
ENDBRANCH  17  18
BRANCH  15  25
ATOM     25  N   UNL     1       3.692   5.289  -1.003  0.00  0.00    -0.328 N 
ATOM     26  H   UNL     1       3.401   6.141  -1.365  0.00  0.00    +0.145 HD
ATOM     27  H   UNL     1       4.635   5.064  -0.990  0.00  0.00    +0.145 HD
ENDBRANCH  15  25
BRANCH  16  28
ATOM     28  C   UNL     1       1.003   5.968  -1.052  0.00  0.00    +0.101 C 
ATOM     29  N   UNL     1       0.654   6.964  -1.471  0.00  0.00    -0.191 NA
ENDBRANCH  16  28
TORSDOF 3
