REMARK  Name = ZINC22702495
REMARK  14 active torsions:
REMARK  status: ('A' for Active; 'I' for Inactive)
REMARK    1  A    between atoms: C_1  and  C_2
REMARK    2  A    between atoms: C_3  and  C_33
REMARK    3  A    between atoms: C_4  and  C_32
REMARK    4  A    between atoms: C_7  and  C_8
REMARK    5  A    between atoms: C_8  and  C_10
REMARK    6  A    between atoms: C_10  and  C_12
REMARK    7  A    between atoms: C_10  and  S_13
REMARK    8  A    between atoms: S_13  and  C_14
REMARK    9  A    between atoms: C_17  and  C_26
REMARK   10  A    between atoms: N_18  and  C_19
REMARK   11  A    between atoms: C_19  and  C_20
REMARK   12  A    between atoms: C_26  and  N_27
REMARK   13  A    between atoms: C_33  and  O_35
REMARK   14  A    between atoms: O_35  and  C_36
REMARK                            x       y       z     vdW  Elec       q    Type
REMARK                         _______ _______ _______ _____ _____    ______ ____
ROOT
ATOM      1  C   UNL     1       3.668   1.636  -2.182  0.00  0.00    +0.193 A 
ATOM      2  N   UNL     1       3.796   1.047  -3.349  0.00  0.00    -0.123 NA
ATOM      3  N   UNL     1       3.166  -0.074  -3.343  0.00  0.00    -0.135 NA
ATOM      4  C   UNL     1       2.609  -0.268  -2.181  0.00  0.00    +0.118 A 
ATOM      5  N   UNL     1       2.903   0.816  -1.402  0.00  0.00    -0.303 N 
ENDROOT
BRANCH   1   6
ATOM      6  S   UNL     1       4.352   3.190  -1.713  0.00  0.00    -0.075 S 
BRANCH   6   7
ATOM      7  C   UNL     1       5.203   3.635  -3.247  0.00  0.00    +0.124 C 
ATOM      8  C   UNL     1       6.332   2.637  -3.511  0.00  0.00    +0.028 C 
BRANCH   7   9
ATOM      9  C   UNL     1       5.778   5.022  -3.118  0.00  0.00    +0.192 C 
ATOM     10  O   UNL     1       6.040   5.471  -2.021  0.00  0.00    -0.289 OA
BRANCH   9  17
ATOM     11  C   UNL     1       6.952   7.901  -3.112  0.00  0.00    +0.047 C 
ATOM     12  C   UNL     1       6.530   7.078  -4.303  0.00  0.00    -0.008 A 
ATOM     13  C   UNL     1       6.592   7.467  -5.658  0.00  0.00    +0.083 A 
ATOM     14  C   UNL     1       6.107   6.410  -6.409  0.00  0.00    +0.028 A 
ATOM     15  N   UNL     1       5.766   5.413  -5.578  0.00  0.00    -0.355 N 
ATOM     16  H   UNL     1       5.362   4.474  -5.983  0.00  0.00    +0.166 HD
ATOM     17  C   UNL     1       6.012   5.801  -4.277  0.00  0.00    +0.087 A 
ATOM     18  C   UNL     1       5.988   6.381  -7.911  0.00  0.00    +0.064 C 
BRANCH  13  19
ATOM     19  C   UNL     1       7.080   8.755  -6.176  0.00  0.00    +0.341 C 
ATOM     20  O   UNL     1       8.254   8.890  -6.460  0.00  0.00    -0.245 OA
BRANCH  19  21
ATOM     21  O   UNL     1       6.226   9.785  -6.336  0.00  0.00    -0.464 OA
ATOM     22  C   UNL     1       6.777  11.025  -6.852  0.00  0.00    +0.280 C 
ENDBRANCH  19  21
ENDBRANCH  13  19
ENDBRANCH   9  17
ENDBRANCH   7   9
ENDBRANCH   6   7
ENDBRANCH   1   6
BRANCH   5  23
ATOM     23  C   UNL     1       2.490   1.048  -0.016  0.00  0.00    +0.160 C 
BRANCH  23  24
ATOM     24  C   UNL     1       1.175   1.783   0.000  0.00  0.00    -0.028 A 
ATOM     25  C   UNL     1      -0.013   1.076   0.008  0.00  0.00    +0.005 A 
ATOM     26  C   UNL     1      -1.219   1.751   0.017  0.00  0.00    +0.000 A 
ATOM     27  C   UNL     1      -1.238   3.133   0.029  0.00  0.00    +0.000 A 
ATOM     28  C   UNL     1      -0.050   3.840   0.022  0.00  0.00    +0.000 A 
ATOM     29  C   UNL     1       1.156   3.165   0.008  0.00  0.00    +0.005 A 
ENDBRANCH  23  24
ENDBRANCH   5  23
BRANCH   4  30
ATOM     30  C   UNL     1       1.789  -1.465  -1.773  0.00  0.00    -0.001 C 
BRANCH  30  31
ATOM     31  N   UNL     1       0.375  -1.220  -2.088  0.00  0.00    +0.384 N 
ATOM     32  C   UNL     1       0.208  -0.813  -3.507  0.00  0.00    -0.078 C 
ATOM     33  C   UNL     1      -1.285  -1.114  -3.789  0.00  0.00    -0.020 C 
ATOM     34  C   UNL     1      -1.531  -2.419  -2.998  0.00  0.00    -0.020 C 
ATOM     35  C   UNL     1      -0.426  -2.453  -1.926  0.00  0.00    -0.078 C 
ATOM     36  H   UNL     1       0.046  -0.432  -1.396  0.00  0.00    -0.081 HD
ENDBRANCH  30  31
ENDBRANCH   4  30
TORSDOF 10
