REMARK  Name = ZINC36825874
REMARK  2 active torsions:
REMARK  status: ('A' for Active; 'I' for Inactive)
REMARK    1  A    between atoms: C_6  and  C_7
REMARK    2  A    between atoms: C_9  and  C_12
REMARK                            x       y       z     vdW  Elec       q    Type
REMARK                         _______ _______ _______ _____ _____    ______ ____
ROOT
ATOM      1  C   UNL     1      -0.017   1.393   0.010  0.00  0.00    +0.015 A 
ATOM      2  C   UNL     1       1.168   2.092   0.002  0.00  0.00    +0.024 A 
ATOM      3  C   UNL     1       2.384   1.412  -0.012  0.00  0.00    +0.030 A 
ATOM      4  C   UNL     1       2.409   0.023  -0.016  0.00  0.00    -0.026 A 
ATOM      5  C   UNL     1       1.222  -0.682  -0.011  0.00  0.00    +0.018 A 
ATOM      6  C   UNL     1       0.002  -0.004   0.002  0.00  0.00    +0.040 A 
ATOM      7  C   UNL     1       3.707  -0.741  -0.021  0.00  0.00    +0.038 C 
ATOM      8  C   UNL     1       4.847   0.145  -0.523  0.00  0.00    +0.023 C 
ATOM      9  C   UNL     1       4.836   1.461   0.265  0.00  0.00    +0.102 C 
ATOM     10  N   UNL     1       3.570   2.148  -0.024  0.00  0.00    -0.344 N 
ATOM     11  H   UNL     1       3.558   3.098  -0.220  0.00  0.00    +0.146 HD
ENDROOT
BRANCH   6  12
ATOM     12  C   UNL     1      -1.265  -0.761   0.008  0.00  0.00    +0.259 A 
ATOM     13  N   UNL     1      -2.472  -0.242   0.016  0.00  0.00    -0.187 NA
ATOM     14  C   UNL     1      -3.391  -1.221   0.020  0.00  0.00    +0.203 A 
ATOM     15  N   UNL     1      -2.775  -2.380   0.015  0.00  0.00    -0.056 NA
ATOM     16  O   UNL     1      -1.383  -2.101   0.002  0.00  0.00    -0.332 OA
BRANCH  14  17
ATOM     17  C   UNL     1      -4.860  -1.025   0.029  0.00  0.00    +0.029 A 
ATOM     18  C   UNL     1      -5.728  -2.117   0.038  0.00  0.00    +0.019 A 
ATOM     19  C   UNL     1      -7.050  -1.832   0.046  0.00  0.00    +0.046 A 
ATOM     20  S   UNL     1      -7.056  -0.051   0.042  0.00  0.00    -0.104 S 
ATOM     21  C   UNL     1      -5.399   0.226   0.035  0.00  0.00    +0.057 A 
ENDBRANCH  14  17
ENDBRANCH   6  12
TORSDOF 2
