REMARK  Name = ZINC09794541
REMARK  9 active torsions:
REMARK  status: ('A' for Active; 'I' for Inactive)
REMARK    1  A    between atoms: C_1  and  C_2
REMARK    2  A    between atoms: C_9  and  C_11
REMARK    3  A    between atoms: N_13  and  N_14
REMARK    4  A    between atoms: N_17  and  C_18
REMARK    5  A    between atoms: C_18  and  C_19
REMARK    6  A    between atoms: C_19  and  C_21
REMARK    7  A    between atoms: C_19  and  N_26
REMARK    8  A    between atoms: N_26  and  C_27
REMARK    9  A    between atoms: N_26  and  C_28
REMARK                            x       y       z     vdW  Elec       q    Type
REMARK                         _______ _______ _______ _____ _____    ______ ____
ROOT
ATOM      1  N   UNL     1       2.348  -6.894   2.524  0.00  0.00    -0.218 N 
ATOM      2  C   UNL     1       2.245  -8.227   2.354  0.00  0.00    +0.316 C 
ATOM      3  O   UNL     1       2.287  -8.968   3.318  0.00  0.00    -0.251 OA
ATOM      4  N   UNL     1       2.097  -8.739   1.117  0.00  0.00    -0.299 N 
ATOM      5  H   UNL     1       2.455  -6.525   3.415  0.00  0.00    +0.174 HD
ATOM      6  H   UNL     1       2.064  -8.149   0.348  0.00  0.00    +0.150 HD
ENDROOT
BRANCH   1   9
ATOM      7  C   UNL     1       2.403  -4.708   1.583  0.00  0.00    +0.267 C 
ATOM      8  O   UNL     1       2.538  -4.245   2.701  0.00  0.00    -0.268 OA
ATOM      9  N   UNL     1       2.301  -6.041   1.414  0.00  0.00    -0.229 N 
ATOM     10  H   UNL     1       2.194  -6.410   0.523  0.00  0.00    +0.173 HD
BRANCH   7  18
ATOM     11  C   UNL     1       2.112   1.498  -2.740  0.00  0.00    +0.008 C 
ATOM     12  C   UNL     1       1.876   0.014  -2.451  0.00  0.00    -0.009 C 
ATOM     13  C   UNL     1       2.570  -0.830  -3.524  0.00  0.00    +0.009 C 
ATOM     14  C   UNL     1       2.105  -2.286  -3.384  0.00  0.00    +0.043 C 
ATOM     15  C   UNL     1       2.211  -2.681  -1.940  0.00  0.00    -0.006 A 
ATOM     16  C   UNL     1       2.363  -1.843  -0.874  0.00  0.00    -0.036 A 
ATOM     17  C   UNL     1       2.440  -2.436   0.378  0.00  0.00    +0.024 A 
ATOM     18  C   UNL     1       2.354  -3.815   0.422  0.00  0.00    +0.076 A 
ATOM     19  S   UNL     1       2.167  -4.224  -1.304  0.00  0.00    -0.088 S 
ATOM     20  C   UNL     1       2.443  -0.332  -1.074  0.00  0.00    +0.039 C 
ENDBRANCH   7  18
ENDBRANCH   1   9
BRANCH   4  21
ATOM     21  C   UNL     1       1.985 -10.188   0.932  0.00  0.00    +0.095 C 
BRANCH  21  22
ATOM     22  C   UNL     1       1.697 -10.495  -0.539  0.00  0.00    -0.014 C 
BRANCH  22  23
ATOM     23  C   UNL     1       0.345  -9.944  -0.911  0.00  0.00    -0.022 A 
ATOM     24  C   UNL     1       0.041  -8.800  -1.571  0.00  0.00    +0.009 A 
ATOM     25  C   UNL     1      -1.286  -8.493  -1.805  0.00  0.00    +0.008 A 
ATOM     26  C   UNL     1      -2.245  -9.346  -1.369  0.00  0.00    +0.045 A 
ATOM     27  S   UNL     1      -1.273 -10.634  -0.605  0.00  0.00    -0.103 S 
ENDBRANCH  22  23
BRANCH  22  28
ATOM     28  N   UNL     1       1.708 -11.949  -0.748  0.00  0.00    +0.382 N 
ATOM     29  C   UNL     1       1.362 -12.245  -2.144  0.00  0.00    -0.096 C 
ATOM     30  C   UNL     1       3.048 -12.475  -0.454  0.00  0.00    -0.096 C 
ATOM     31  H   UNL     1       1.034 -12.382  -0.135  0.00  0.00    -0.082 HD
ENDBRANCH  22  28
ENDBRANCH  21  22
ENDBRANCH   4  21
TORSDOF 6
