REMARK  Name = ZINC10592533
REMARK  6 active torsions:
REMARK  status: ('A' for Active; 'I' for Inactive)
REMARK    1  A    between atoms: C_6  and  N_7
REMARK    2  A    between atoms: C_11  and  S_13
REMARK    3  A    between atoms: S_13  and  C_14
REMARK    4  A    between atoms: C_14  and  C_15
REMARK    5  A    between atoms: N_17  and  C_18
REMARK    6  A    between atoms: C_19  and  C_27
REMARK                            x       y       z     vdW  Elec       q    Type
REMARK                         _______ _______ _______ _____ _____    ______ ____
ROOT
ATOM      1  C   UNL     1       7.468   4.388  -0.046  0.00  0.00    +0.228 C 
ATOM      2  O   UNL     1       8.496   3.745  -0.059  0.00  0.00    -0.275 OA
ATOM      3  N   UNL     1       7.516   5.735  -0.039  0.00  0.00    -0.279 N 
ATOM      4  H   UNL     1       6.694   6.250  -0.028  0.00  0.00    +0.155 HD
ENDROOT
BRANCH   3   5
ATOM      5  C   UNL     1       8.741   6.386  -0.047  0.00  0.00    +0.084 A 
ATOM      6  C   UNL     1       8.992   7.750  -0.047  0.00  0.00    +0.068 A 
ATOM      7  C   UNL     1      10.381   8.177  -0.053  0.00  0.00    -0.023 A 
ATOM      8  C   UNL     1      11.290   7.178  -0.068  0.00  0.00    -0.004 A 
ATOM      9  S   UNL     1      10.328   5.692  -0.066  0.00  0.00    -0.077 S 
ATOM     10  C   UNL     1      12.781   7.314  -0.083  0.00  0.00    +0.043 C 
ATOM     11  C   UNL     1      13.131   8.761  -0.457  0.00  0.00    +0.005 C 
ATOM     12  C   UNL     1      12.281   9.710   0.393  0.00  0.00    +0.005 C 
ATOM     13  C   UNL     1      10.819   9.637  -0.049  0.00  0.00    +0.037 C 
BRANCH   6  14
ATOM     14  C   UNL     1       7.897   8.725  -0.038  0.00  0.00    +0.244 C 
ATOM     15  O   UNL     1       7.451   9.129   1.020  0.00  0.00    -0.270 OA
ATOM     16  N   UNL     1       7.385   9.174  -1.201  0.00  0.00    -0.325 N 
ATOM     17  H   UNL     1       7.740   8.852  -2.044  0.00  0.00    +0.145 HD
ATOM     18  H   UNL     1       6.660   9.819  -1.195  0.00  0.00    +0.145 HD
ENDBRANCH   6  14
ENDBRANCH   3   5
BRANCH   1  19
ATOM     19  C   UNL     1       6.137   3.682  -0.037  0.00  0.00    +0.172 C 
BRANCH  19  20
ATOM     20  S   UNL     1       6.405   1.891  -0.049  0.00  0.00    -0.089 S 
BRANCH  20  28
ATOM     21  C   UNL     1      -0.017   1.383   0.010  0.00  0.00    +0.035 A 
ATOM     22  C   UNL     1       1.143   2.115   0.003  0.00  0.00    +0.031 A 
ATOM     23  C   UNL     1       2.402   1.473  -0.013  0.00  0.00    +0.080 A 
ATOM     24  C   UNL     1       2.382   0.059  -0.020  0.00  0.00    +0.042 A 
ATOM     25  C   UNL     1       1.218  -0.665  -0.013  0.00  0.00    +0.050 A 
ATOM     26  C   UNL     1       0.002  -0.004   0.002  0.00  0.00    +0.127 A 
ATOM     27  S   UNL     1       4.113  -0.344  -0.040  0.00  0.00    -0.061 S 
ATOM     28  C   UNL     1       4.734   1.332  -0.037  0.00  0.00    +0.136 A 
ATOM     29  N   UNL     1       3.627   2.042  -0.022  0.00  0.00    -0.233 NA
BRANCH  26  30
ATOM     30  N   UNL     1      -1.265  -0.769   0.011  0.00  0.00    +0.056 N 
ATOM     31  O   UNL     1      -2.332  -0.181   0.024  0.00  0.00    -0.126 OA
ATOM     32  O   UNL     1      -1.241  -1.987   0.004  0.00  0.00    -0.126 OA
ENDBRANCH  26  30
ENDBRANCH  20  28
ENDBRANCH  19  20
ENDBRANCH   1  19
TORSDOF 6
