REMARK  Name = ZINC38975414
REMARK  6 active torsions:
REMARK  status: ('A' for Active; 'I' for Inactive)
REMARK    1  A    between atoms: C_1  and  O_2
REMARK    2  A    between atoms: O_2  and  C_3
REMARK    3  A    between atoms: C_9  and  C_12
REMARK    4  A    between atoms: C_13  and  C_14
REMARK    5  A    between atoms: N_25  and  C_26
REMARK    6  A    between atoms: C_29  and  N_32
REMARK                            x       y       z     vdW  Elec       q    Type
REMARK                         _______ _______ _______ _____ _____    ______ ____
ROOT
ATOM      1  C   UNL     1       0.876  -7.259  -1.824  0.00  0.00    +0.190 C 
ATOM      2  N   UNL     1       2.094  -7.861  -1.269  0.00  0.00    -0.322 N 
ATOM      3  C   UNL     1       2.666  -8.943  -1.929  0.00  0.00    +0.041 A 
ATOM      4  C   UNL     1       4.026  -9.197  -1.869  0.00  0.00    +0.024 A 
ATOM      5  C   UNL     1       4.547 -10.290  -2.533  0.00  0.00    +0.002 A 
ATOM      6  C   UNL     1       3.720 -11.135  -3.257  0.00  0.00    +0.001 A 
ATOM      7  C   UNL     1       2.364 -10.894  -3.330  0.00  0.00    +0.015 A 
ATOM      8  C   UNL     1       1.826  -9.792  -2.670  0.00  0.00    +0.058 A 
ATOM      9  C   UNL     1       0.388  -9.478  -2.737  0.00  0.00    +0.254 C 
ATOM     10  O   UNL     1      -0.391 -10.273  -3.227  0.00  0.00    -0.270 OA
ATOM     11  N   UNL     1      -0.054  -8.304  -2.253  0.00  0.00    -0.245 N 
ATOM     12  H   UNL     1       2.492  -7.511  -0.457  0.00  0.00    +0.148 HD
ENDROOT
BRANCH  11  13
ATOM     13  C   UNL     1      -1.431  -8.080  -2.159  0.00  0.00    +0.039 A 
ATOM     14  C   UNL     1      -2.135  -7.606  -3.259  0.00  0.00    +0.026 A 
ATOM     15  C   UNL     1      -3.495  -7.386  -3.163  0.00  0.00    +0.034 A 
ATOM     16  C   UNL     1      -4.156  -7.637  -1.974  0.00  0.00    +0.126 A 
ATOM     17  C   UNL     1      -3.458  -8.108  -0.878  0.00  0.00    +0.034 A 
ATOM     18  C   UNL     1      -2.098  -8.335  -0.968  0.00  0.00    +0.026 A 
BRANCH  16  19
ATOM     19  N   UNL     1      -5.613  -7.399  -1.875  0.00  0.00    +0.056 N 
ATOM     20  O   UNL     1      -6.225  -6.986  -2.833  0.00  0.00    -0.126 OA
ATOM     21  O   UNL     1      -6.192  -7.618  -0.836  0.00  0.00    -0.126 OA
ENDBRANCH  16  19
ENDBRANCH  11  13
BRANCH   1  23
ATOM     22  C   UNL     1       0.960  -5.086  -2.991  0.00  0.00    +0.005 C 
ATOM     23  C   UNL     1       1.239  -6.398  -3.006  0.00  0.00    +0.015 C 
BRANCH  22  30
ATOM     24  C   UNL     1       0.411  -0.656  -3.802  0.00  0.00    +0.121 A 
ATOM     25  C   UNL     1       0.900  -0.249  -5.054  0.00  0.00    +0.047 A 
ATOM     26  C   UNL     1       1.475  -1.121  -5.913  0.00  0.00    +0.029 A 
ATOM     27  C   UNL     1       1.596  -2.492  -5.556  0.00  0.00    +0.043 A 
ATOM     28  N   UNL     1       2.105  -3.518  -6.203  0.00  0.00    -0.380 N 
ATOM     29  C   UNL     1       1.976  -4.722  -5.376  0.00  0.00    +0.149 C 
ATOM     30  C   UNL     1       1.300  -4.280  -4.098  0.00  0.00    -0.019 C 
ATOM     31  C   UNL     1       1.082  -2.917  -4.240  0.00  0.00    +0.006 A 
ATOM     32  C   UNL     1       0.498  -1.949  -3.391  0.00  0.00    +0.056 A 
ATOM     33  H   UNL     1       2.502  -3.483  -7.087  0.00  0.00    +0.160 HD
BRANCH  24  35
ATOM     34  C   UNL     1      -0.223   1.610  -3.460  0.00  0.00    +0.277 C 
ATOM     35  O   UNL     1      -0.157   0.266  -2.980  0.00  0.00    -0.495 OA
ENDBRANCH  24  35
ENDBRANCH  22  30
ENDBRANCH   1  23
TORSDOF 5
