REMARK  Name = ZINC09943219
REMARK  10 active torsions:
REMARK  status: ('A' for Active; 'I' for Inactive)
REMARK    1  A    between atoms: C_1  and  C_2
REMARK    2  A    between atoms: C_2  and  N_58
REMARK    3  A    between atoms: C_3  and  C_4
REMARK    4  A    between atoms: C_3  and  N_58
REMARK    5  A    between atoms: C_5  and  C_6
REMARK    6  A    between atoms: C_5  and  N_58
REMARK    7  A    between atoms: C_6  and  C_8
REMARK    8  A    between atoms: C_6  and  O_30
REMARK    9  A    between atoms: C_8  and  O_9
REMARK   10  A    between atoms: O_9  and  C_10
REMARK                            x       y       z     vdW  Elec       q    Type
REMARK                         _______ _______ _______ _____ _____    ______ ____
ROOT
ATOM      1  C   UNL     1       3.467   2.469   0.965  0.00  0.00    +0.149 A 
ATOM      2  C   UNL     1       4.520   1.617   0.664  0.00  0.00    +0.061 A 
ATOM      3  C   UNL     1       5.818   2.104   0.693  0.00  0.00    +0.019 A 
ATOM      4  C   UNL     1       6.082   3.409   1.024  0.00  0.00    +0.011 A 
ATOM      5  C   UNL     1       5.033   4.300   1.343  0.00  0.00    +0.007 A 
ATOM      6  C   UNL     1       3.728   3.785   1.301  0.00  0.00    +0.065 A 
ATOM      7  S   UNL     1       2.695   5.157   1.748  0.00  0.00    -0.065 S 
ATOM      8  C   UNL     1       3.949   6.388   1.994  0.00  0.00    +0.117 A 
ATOM      9  C   UNL     1       5.148   5.723   1.720  0.00  0.00    +0.080 A 
ATOM     10  C   UNL     1       6.339   6.505   1.845  0.00  0.00    +0.263 A 
ATOM     11  O   UNL     1       7.430   6.010   1.620  0.00  0.00    -0.267 OA
ATOM     12  N   UNL     1       6.237   7.792   2.214  0.00  0.00    -0.296 N 
ATOM     13  C   UNL     1       5.023   8.359   2.465  0.00  0.00    +0.114 A 
ATOM     14  N   UNL     1       3.922   7.671   2.352  0.00  0.00    -0.226 NA
ATOM     15  C   UNL     1       4.986   9.812   2.879  0.00  0.00    +0.074 C 
ATOM     16  C   UNL     1       5.488   9.930   4.318  0.00  0.00    +0.008 C 
ATOM     17  C   UNL     1       6.998  10.084   4.359  0.00  0.00    +0.002 C 
ATOM     18  C   UNL     1       7.716   8.848   3.845  0.00  0.00    +0.022 C 
ATOM     19  C   UNL     1       7.438   8.626   2.360  0.00  0.00    +0.126 C 
ATOM     20 BR   UNL     1       4.187  -0.189   0.212  0.00  0.00    -0.046 Br
ENDROOT
BRANCH   1  21
ATOM     21  O   UNL     1       2.187   2.012   0.936  0.00  0.00    -0.487 OA
BRANCH  21  22
ATOM     22  C   UNL     1       1.486   2.124  -0.305  0.00  0.00    +0.258 C 
BRANCH  22  23
ATOM     23  C   UNL     1       0.073   1.562  -0.144  0.00  0.00    +0.135 C 
BRANCH  23  24
ATOM     24  O   UNL     1       0.145   0.160   0.123  0.00  0.00    -0.390 OA
ATOM     25  H   UNL     1       0.579  -0.352  -0.574  0.00  0.00    +0.210 HD
ENDBRANCH  23  24
BRANCH  23  26
ATOM     26  C   UNL     1      -0.718   1.794  -1.433  0.00  0.00    -0.044 C 
BRANCH  26  27
ATOM     27  N   UNL     1      -2.113   1.354  -1.221  0.00  0.00    +0.381 N 
ATOM     28  H   UNL     1      -2.438   1.703  -0.312  0.00  0.00    -0.082 HD
BRANCH  27  30
ATOM     29  C   UNL     1      -4.442   1.754  -1.848  0.00  0.00    -0.017 C 
ATOM     30  C   UNL     1      -2.983   1.900  -2.284  0.00  0.00    -0.082 C 
ENDBRANCH  27  30
BRANCH  27  31
ATOM     31  C   UNL     1      -2.181  -0.123  -1.221  0.00  0.00    -0.082 C 
ATOM     32  C   UNL     1      -1.553  -0.689  -2.496  0.00  0.00    -0.017 C 
ENDBRANCH  27  31
ENDBRANCH  26  27
ENDBRANCH  23  26
ENDBRANCH  22  23
ENDBRANCH  21  22
ENDBRANCH   1  21
TORSDOF 8
