REMARK  Name = ZINC02860779
REMARK  9 active torsions:
REMARK  status: ('A' for Active; 'I' for Inactive)
REMARK    1  A    between atoms: C_1  and  C_2
REMARK    2  A    between atoms: C_4  and  N_10
REMARK    3  A    between atoms: C_7  and  C_8
REMARK    4  A    between atoms: C_11  and  C_13
REMARK    5  A    between atoms: C_13  and  S_14
REMARK    6  A    between atoms: S_14  and  C_15
REMARK    7  A    between atoms: C_18  and  C_23
REMARK    8  A    between atoms: N_19  and  C_20
REMARK    9  A    between atoms: C_20  and  C_21
REMARK                            x       y       z     vdW  Elec       q    Type
REMARK                         _______ _______ _______ _____ _____    ______ ____
ROOT
ATOM      1  C   UNL     1       0.003  -0.004  -0.029  0.00  0.00    +0.193 A 
ATOM      2  N   UNL     1       1.072  -0.769  -0.056  0.00  0.00    -0.122 NA
ATOM      3  N   UNL     1       0.730  -2.008  -0.064  0.00  0.00    -0.125 NA
ATOM      4  C   UNL     1      -0.581  -2.111  -0.052  0.00  0.00    +0.201 A 
ATOM      5  N   UNL     1      -1.086  -0.829  -0.030  0.00  0.00    -0.296 N 
ENDROOT
BRANCH   4   6
ATOM      6  C   UNL     1      -1.361  -3.359  -0.062  0.00  0.00    +0.173 A 
ATOM      7  C   UNL     1      -0.869  -4.585  -0.377  0.00  0.00    +0.061 A 
ATOM      8  C   UNL     1      -1.991  -5.516  -0.249  0.00  0.00    +0.021 A 
ATOM      9  C   UNL     1      -2.138  -6.893  -0.429  0.00  0.00    +0.011 A 
ATOM     10  C   UNL     1      -3.358  -7.476  -0.229  0.00  0.00    +0.001 A 
ATOM     11  C   UNL     1      -4.450  -6.708   0.150  0.00  0.00    +0.004 A 
ATOM     12  C   UNL     1      -4.324  -5.347   0.332  0.00  0.00    +0.047 A 
ATOM     13  C   UNL     1      -3.094  -4.733   0.135  0.00  0.00    +0.136 A 
ATOM     14  O   UNL     1      -2.672  -3.456   0.235  0.00  0.00    -0.452 OA
ENDBRANCH   4   6
BRANCH   1  15
ATOM     15  S   UNL     1      -0.021   1.757  -0.005  0.00  0.00    -0.077 S 
BRANCH  15  16
ATOM     16  C   UNL     1       1.756   2.096  -0.019  0.00  0.00    +0.173 C 
BRANCH  16  18
ATOM     17  N   UNL     1       3.240   4.076  -0.007  0.00  0.00    -0.284 N 
ATOM     18  C   UNL     1       1.984   3.586  -0.001  0.00  0.00    +0.228 C 
ATOM     19  O   UNL     1       1.037   4.344   0.019  0.00  0.00    -0.275 OA
ATOM     20  H   UNL     1       3.996   3.472   0.058  0.00  0.00    +0.155 HD
BRANCH  17  24
ATOM     21  C   UNL     1       1.664   8.507  -1.440  0.00  0.00    +0.044 C 
ATOM     22  C   UNL     1       2.705   7.627  -0.797  0.00  0.00    -0.046 A 
ATOM     23  C   UNL     1       2.493   6.266  -0.700  0.00  0.00    +0.028 A 
ATOM     24  C   UNL     1       3.452   5.455  -0.107  0.00  0.00    +0.048 A 
ATOM     25  C   UNL     1       4.621   6.018   0.391  0.00  0.00    +0.039 A 
ATOM     26  C   UNL     1       4.829   7.380   0.285  0.00  0.00    +0.020 A 
ATOM     27  C   UNL     1       3.871   8.184  -0.306  0.00  0.00    -0.046 A 
ATOM     28  C   UNL     1       4.099   9.669  -0.414  0.00  0.00    +0.044 C 
ATOM     29 BR   UNL     1       5.927   4.921   1.206  0.00  0.00    -0.048 Br
ENDBRANCH  17  24
ENDBRANCH  16  18
ENDBRANCH  15  16
ENDBRANCH   1  15
BRANCH   5  30
ATOM     30  C   UNL     1      -2.496  -0.434  -0.010  0.00  0.00    +0.152 C 
BRANCH  30  31
ATOM     31  C   UNL     1      -2.995  -0.279  -1.424  0.00  0.00    -0.013 C 
ATOM     32  C   UNL     1      -4.051  -0.944  -1.822  0.00  0.00    +0.005 C 
ENDBRANCH  30  31
ENDBRANCH   5  30
TORSDOF 7
