REMARK  Name = ZINC12717173
REMARK  8 active torsions:
REMARK  status: ('A' for Active; 'I' for Inactive)
REMARK    1  A    between atoms: C_1  and  C_2
REMARK    2  A    between atoms: C_7  and  C_15
REMARK    3  A    between atoms: C_13  and  C_14
REMARK    4  A    between atoms: C_15  and  C_17
REMARK    5  A    between atoms: C_15  and  N_63
REMARK    6  A    between atoms: N_21  and  C_22
REMARK    7  A    between atoms: C_22  and  C_23
REMARK    8  A    between atoms: C_32  and  C_35
REMARK                            x       y       z     vdW  Elec       q    Type
REMARK                         _______ _______ _______ _____ _____    ______ ____
ROOT
ATOM      1  C   UNL     1      -0.961  -0.835  -0.320  0.00  0.00    +0.039 C 
ENDROOT
BRANCH   1   8
ATOM      2  C   UNL     1       5.420   3.827  -1.400  0.00  0.00    +0.044 C 
ATOM      3  C   UNL     1       4.098   3.145  -1.159  0.00  0.00    -0.046 A 
ATOM      4  C   UNL     1       2.974   3.908  -0.872  0.00  0.00    +0.004 A 
ATOM      5  C   UNL     1       1.766   3.310  -0.650  0.00  0.00    +0.010 A 
ATOM      6  C   UNL     1       1.660   1.917  -0.713  0.00  0.00    -0.001 A 
ATOM      7  C   UNL     1       0.381   1.243  -0.480  0.00  0.00    +0.017 A 
ATOM      8  C   UNL     1       0.339  -0.110  -0.554  0.00  0.00    +0.011 A 
ATOM      9  C   UNL     1       1.509  -0.843  -0.849  0.00  0.00    +0.251 A 
ATOM     10  O   UNL     1       1.449  -2.059  -0.911  0.00  0.00    -0.268 OA
ATOM     11  N   UNL     1       2.688  -0.233  -1.064  0.00  0.00    -0.322 N 
ATOM     12  H   UNL     1       3.473  -0.767  -1.264  0.00  0.00    +0.169 HD
ATOM     13  C   UNL     1       2.798   1.140  -1.003  0.00  0.00    +0.052 A 
ATOM     14  C   UNL     1       4.017   1.771  -1.225  0.00  0.00    -0.024 A 
ATOM     15  C   UNL     1       5.246   0.955  -1.537  0.00  0.00    +0.046 C 
ENDBRANCH   1   8
BRANCH   1  22
ATOM     16  C   UNL     1      -0.135  -1.282   1.911  0.00  0.00    -0.077 C 
ATOM     17  C   UNL     1       0.176  -2.397   2.911  0.00  0.00    -0.018 C 
ATOM     18  C   UNL     1      -1.124  -3.108   3.297  0.00  0.00    -0.001 C 
ATOM     19  C   UNL     1      -1.793  -3.654   2.033  0.00  0.00    -0.031 C 
ATOM     20  C   UNL     1      -2.047  -2.502   1.058  0.00  0.00    -0.074 C 
ATOM     21  C   UNL     1      -3.123  -4.314   2.402  0.00  0.00    +0.005 C 
ATOM     22  N   UNL     1      -0.755  -1.876   0.707  0.00  0.00    +0.389 N 
ATOM     23  H   UNL     1      -0.127  -2.596   0.331  0.00  0.00    -0.080 HD
ENDBRANCH   1  22
BRANCH   1  24
ATOM     24  C   UNL     1      -1.405  -1.496  -1.600  0.00  0.00    +0.143 A 
ATOM     25  N   UNL     1      -0.967  -2.632  -2.086  0.00  0.00    -0.115 NA
ATOM     26  N   UNL     1      -1.588  -2.858  -3.192  0.00  0.00    -0.023 NA
ATOM     27  N   UNL     1      -2.411  -1.895  -3.424  0.00  0.00    -0.044 NA
ATOM     28  N   UNL     1      -2.331  -1.038  -2.462  0.00  0.00    -0.226 N 
BRANCH  28  29
ATOM     29  C   UNL     1      -3.101   0.201  -2.335  0.00  0.00    +0.182 C 
BRANCH  29  30
ATOM     30  C   UNL     1      -4.431  -0.098  -1.692  0.00  0.00    -0.026 A 
ATOM     31  C   UNL     1      -5.518  -0.436  -2.476  0.00  0.00    +0.005 A 
ATOM     32  C   UNL     1      -6.736  -0.715  -1.886  0.00  0.00    +0.000 A 
ATOM     33  C   UNL     1      -6.871  -0.645  -0.512  0.00  0.00    +0.000 A 
ATOM     34  C   UNL     1      -5.785  -0.301   0.272  0.00  0.00    +0.000 A 
ATOM     35  C   UNL     1      -4.566  -0.027  -0.318  0.00  0.00    +0.005 A 
ENDBRANCH  29  30
ENDBRANCH  28  29
ENDBRANCH   1  24
TORSDOF 5
