REMARK  Name = ZINC39666672
REMARK  7 active torsions:
REMARK  status: ('A' for Active; 'I' for Inactive)
REMARK    1  A    between atoms: C_1  and  C_2
REMARK    2  A    between atoms: C_2  and  C_4
REMARK    3  A    between atoms: C_2  and  O_30
REMARK    4  A    between atoms: C_4  and  N_5
REMARK    5  A    between atoms: C_6  and  C_8
REMARK    6  A    between atoms: C_19  and  C_21
REMARK    7  A    between atoms: O_30  and  C_31
REMARK                            x       y       z     vdW  Elec       q    Type
REMARK                         _______ _______ _______ _____ _____    ______ ____
ROOT
ATOM      1  C   UNL     1       1.470  -3.689   1.348  0.00  0.00    +0.100 C 
ATOM      2  C   UNL     1       2.301  -3.917   0.066  0.00  0.00    +0.121 C 
ATOM      3  N   UNL     1       3.675  -4.187   0.553  0.00  0.00    -0.296 N 
ATOM      4  C   UNL     1       3.479  -5.027   1.759  0.00  0.00    +0.115 C 
ATOM      5  C   UNL     1       2.245  -4.422   2.456  0.00  0.00    -0.004 C 
ATOM      6  C   UNL     1       2.680  -3.437   3.537  0.00  0.00    -0.010 C 
ATOM      7  C   UNL     1       3.398  -4.197   4.655  0.00  0.00    -0.082 C 
ATOM      8  N   UNL     1       2.496  -5.208   5.220  0.00  0.00    +0.379 N 
ATOM      9  C   UNL     1       2.155  -6.204   4.198  0.00  0.00    -0.082 C 
ATOM     10  C   UNL     1       1.385  -5.528   3.060  0.00  0.00    -0.010 C 
ATOM     11  C   UNL     1       4.838  -3.764   0.020  0.00  0.00    +0.252 C 
ATOM     12  O   UNL     1       5.893  -4.073   0.541  0.00  0.00    -0.270 OA
ATOM     13  H   UNL     1       2.950  -5.666   5.997  0.00  0.00    -0.086 HD
ATOM     14  H   UNL     1       1.652  -4.759   5.545  0.00  0.00    -0.086 HD
ENDROOT
BRANCH  11  15
ATOM     15  C   UNL     1       4.832  -2.927  -1.195  0.00  0.00    +0.108 A 
ATOM     16  C   UNL     1       4.788  -1.533  -1.088  0.00  0.00    +0.138 A 
ATOM     17  C   UNL     1       4.784  -0.756  -2.231  0.00  0.00    +0.041 A 
ATOM     18  C   UNL     1       4.822  -1.352  -3.478  0.00  0.00    +0.026 A 
ATOM     19  C   UNL     1       4.866  -2.731  -3.593  0.00  0.00    +0.077 A 
ATOM     20  C   UNL     1       4.877  -3.523  -2.459  0.00  0.00    +0.156 A 
ATOM     21  F   UNL     1       4.925  -4.868  -2.573  0.00  0.00    -0.203 F 
ATOM     22 CL   UNL     1       4.913  -3.467  -5.165  0.00  0.00    -0.081 Cl
ATOM     23  F   UNL     1       4.750  -0.948   0.129  0.00  0.00    -0.205 F 
ENDBRANCH  11  15
BRANCH   1  25
ATOM     24  N   UNL     1       0.308  -1.736   2.326  0.00  0.00    -0.312 N 
ATOM     25  C   UNL     1       1.376  -2.218   1.659  0.00  0.00    +0.218 C 
ATOM     26  O   UNL     1       2.261  -1.466   1.308  0.00  0.00    -0.275 OA
ATOM     27  H   UNL     1      -0.400  -2.337   2.606  0.00  0.00    +0.149 HD
BRANCH  24  28
ATOM     28  C   UNL     1       0.217  -0.306   2.627  0.00  0.00    +0.148 C 
BRANCH  28  30
ATOM     29  C   UNL     1      -1.177   1.468   3.700  0.00  0.00    +0.053 C 
ATOM     30  C   UNL     1      -1.082  -0.026   3.385  0.00  0.00    +0.187 C 
BRANCH  30  31
ATOM     31  O   UNL     1      -2.196  -0.415   2.579  0.00  0.00    -0.486 OA
BRANCH  31  32
ATOM     32  C   UNL     1      -3.346  -0.736   3.230  0.00  0.00    +0.139 A 
ATOM     33  C   UNL     1      -3.435  -0.574   4.604  0.00  0.00    +0.047 A 
ATOM     34  C   UNL     1      -4.605  -0.900   5.263  0.00  0.00    +0.004 A 
ATOM     35  C   UNL     1      -5.687  -1.389   4.554  0.00  0.00    +0.002 A 
ATOM     36  C   UNL     1      -5.601  -1.552   3.183  0.00  0.00    +0.023 A 
ATOM     37  C   UNL     1      -4.435  -1.221   2.518  0.00  0.00    +0.083 A 
ATOM     38 CL   UNL     1      -4.330  -1.419   0.797  0.00  0.00    -0.080 Cl
ENDBRANCH  31  32
ENDBRANCH  30  31
ENDBRANCH  28  30
ENDBRANCH  24  28
ENDBRANCH   1  25
TORSDOF 6
