REMARK  Name = ZINC20207474
REMARK  5 active torsions:
REMARK  status: ('A' for Active; 'I' for Inactive)
REMARK    1  A    between atoms: C_4  and  C_7
REMARK    2  A    between atoms: C_7  and  S_8
REMARK    3  A    between atoms: S_8  and  C_11
REMARK    4  A    between atoms: C_19  and  C_20
REMARK    5  A    between atoms: C_23  and  C_25
REMARK                            x       y       z     vdW  Elec       q    Type
REMARK                         _______ _______ _______ _____ _____    ______ ____
ROOT
ATOM      1  C   UNL     1       5.793  -1.741   0.098  0.00  0.00    +0.257 C 
ATOM      2  N   UNL     1       6.890  -1.139  -0.243  0.00  0.00    -0.174 NA
ATOM      3  S   UNL     1       8.058  -2.339  -0.176  0.00  0.00    +0.049 S 
ATOM      4  C   UNL     1       7.095  -3.632   0.245  0.00  0.00    +0.183 C 
ATOM      5  N   UNL     1       7.399  -4.899   0.408  0.00  0.00    -0.152 NA
ATOM      6  C   UNL     1       6.423  -5.784   0.691  0.00  0.00    +0.273 C 
ATOM      7  O   UNL     1       6.690  -6.940   0.978  0.00  0.00    -0.268 OA
ATOM      8  C   UNL     1       5.017  -5.320   0.644  0.00  0.00    +0.082 C 
ATOM      9  C   UNL     1       3.967  -6.192   0.401  0.00  0.00    +0.062 C 
ATOM     10  C   UNL     1       4.794  -3.866   0.873  0.00  0.00    +0.138 C 
ATOM     11  N   UNL     1       3.727  -3.385   1.455  0.00  0.00    -0.284 NA
ATOM     12  N   UNL     1       5.850  -3.059   0.404  0.00  0.00    -0.201 N 
ATOM     13  H   UNL     1       3.030  -3.985   1.763  0.00  0.00    +0.188 HD
ENDROOT
BRANCH   9  14
ATOM     14  C   UNL     1       4.226  -7.495  -0.056  0.00  0.00    +0.129 A 
ATOM     15  C   UNL     1       3.293  -8.512  -0.187  0.00  0.00    +0.050 A 
ATOM     16  C   UNL     1       3.977  -9.627  -0.670  0.00  0.00    +0.050 A 
ATOM     17  C   UNL     1       5.297  -9.257  -0.819  0.00  0.00    +0.136 A 
ATOM     18  O   UNL     1       5.427  -7.971  -0.450  0.00  0.00    -0.455 OA
BRANCH  17  19
ATOM     19  C   UNL     1       6.385 -10.127  -1.306  0.00  0.00    +0.017 A 
ATOM     20  C   UNL     1       6.118 -11.449  -1.670  0.00  0.00    +0.011 A 
ATOM     21  C   UNL     1       7.139 -12.256  -2.125  0.00  0.00    +0.001 A 
ATOM     22  C   UNL     1       8.427 -11.759  -2.222  0.00  0.00    +0.000 A 
ATOM     23  C   UNL     1       8.700 -10.450  -1.863  0.00  0.00    +0.001 A 
ATOM     24  C   UNL     1       7.687  -9.630  -1.412  0.00  0.00    +0.011 A 
ENDBRANCH  17  19
ENDBRANCH   9  14
BRANCH   1  25
ATOM     25  S   UNL     1       4.267  -0.865   0.167  0.00  0.00    +0.033 S 
ATOM     26  O   UNL     1       3.268  -1.862   0.007  0.00  0.00    -0.166 OA
ATOM     27  O   UNL     1       4.406   0.181  -0.786  0.00  0.00    -0.166 OA
BRANCH  25  28
ATOM     28  C   UNL     1       4.199  -0.176   1.844  0.00  0.00    +0.210 C 
BRANCH  28  32
ATOM     29  C   UNL     1       0.576   2.032   2.335  0.00  0.00    +0.000 A 
ATOM     30  C   UNL     1       0.611   0.684   2.639  0.00  0.00    +0.000 A 
ATOM     31  C   UNL     1       1.783  -0.031   2.480  0.00  0.00    +0.005 A 
ATOM     32  C   UNL     1       2.921   0.603   2.016  0.00  0.00    -0.026 A 
ATOM     33  C   UNL     1       2.886   1.950   1.712  0.00  0.00    +0.005 A 
ATOM     34  C   UNL     1       1.714   2.666   1.872  0.00  0.00    +0.000 A 
ENDBRANCH  28  32
ENDBRANCH  25  28
ENDBRANCH   1  25
TORSDOF 5
