REMARK  Name = ZINC12716181
REMARK  13 active torsions:
REMARK  status: ('A' for Active; 'I' for Inactive)
REMARK    1  A    between atoms: C_1  and  C_2
REMARK    2  A    between atoms: C_5  and  C_7
REMARK    3  A    between atoms: N_10  and  C_12
REMARK    4  A    between atoms: C_12  and  C_13
REMARK    5  A    between atoms: N_15  and  C_16
REMARK    6  A    between atoms: N_15  and  C_22
REMARK    7  A    between atoms: C_16  and  C_17
REMARK    8  A    between atoms: C_22  and  C_24
REMARK    9  A    between atoms: C_22  and  C_31
REMARK   10  A    between atoms: N_33  and  C_34
REMARK   11  A    between atoms: C_34  and  C_35
REMARK   12  A    between atoms: C_34  and  C_36
REMARK   13  A    between atoms: C_34  and  C_37
REMARK                            x       y       z     vdW  Elec       q    Type
REMARK                         _______ _______ _______ _____ _____    ______ ____
ROOT
ATOM      1  C   UNL     1      -3.525   0.358   0.890  0.00  0.00    +0.240 C 
ATOM      2  O   UNL     1      -2.765  -0.577   0.748  0.00  0.00    -0.273 OA
ATOM      3  N   UNL     1      -3.120   1.607   0.587  0.00  0.00    -0.279 N 
ENDROOT
BRANCH   1   4
ATOM      4  C   UNL     1      -4.921   0.123   1.406  0.00  0.00    +0.264 C 
BRANCH   4   8
ATOM      5  C   UNL     1      -5.591  -3.343   1.394  0.00  0.00    +0.239 A 
ATOM      6  N   UNL     1      -5.151  -3.157   2.648  0.00  0.00    -0.105 NA
ATOM      7  N   UNL     1      -4.870  -1.905   2.773  0.00  0.00    -0.045 NA
ATOM      8  N   UNL     1      -5.114  -1.307   1.660  0.00  0.00    -0.154 N 
ATOM      9  N   UNL     1      -5.559  -2.162   0.804  0.00  0.00    -0.127 NA
BRANCH   5  14
ATOM     10  C   UNL     1      -7.306  -6.672  -1.950  0.00  0.00    +0.086 C 
ATOM     11  C   UNL     1      -6.780  -6.080  -0.667  0.00  0.00    +0.103 A 
ATOM     12  C   UNL     1      -6.543  -6.758   0.472  0.00  0.00    +0.045 A 
ATOM     13  C   UNL     1      -6.056  -5.828   1.413  0.00  0.00    +0.053 A 
ATOM     14  C   UNL     1      -6.031  -4.620   0.791  0.00  0.00    +0.175 A 
ATOM     15  O   UNL     1      -6.469  -4.788  -0.471  0.00  0.00    -0.457 OA
ENDBRANCH   5  14
ENDBRANCH   4   8
ENDBRANCH   1   4
BRANCH   3  16
ATOM     16  C   UNL     1      -4.037   2.737   0.758  0.00  0.00    +0.151 C 
BRANCH  16  17
ATOM     17  C   UNL     1      -5.255   2.531  -0.106  0.00  0.00    +0.007 A 
ATOM     18  C   UNL     1      -6.552   2.399   0.265  0.00  0.00    +0.013 A 
ATOM     19  C   UNL     1      -7.513   2.217  -0.712  0.00  0.00    +0.008 A 
ATOM     20  C   UNL     1      -7.130   2.176  -2.012  0.00  0.00    +0.045 A 
ATOM     21  S   UNL     1      -5.364   2.405  -1.883  0.00  0.00    -0.100 S 
ENDBRANCH  16  17
ENDBRANCH   3  16
BRANCH   3  22
ATOM     22  C   UNL     1      -1.763   1.836   0.085  0.00  0.00    +0.193 C 
BRANCH  22  23
ATOM     23  C   UNL     1      -0.959   2.571   1.126  0.00  0.00    -0.018 A 
ATOM     24  C   UNL     1       0.294   2.109   1.484  0.00  0.00    +0.009 A 
ATOM     25  C   UNL     1       1.034   2.785   2.436  0.00  0.00    +0.038 A 
ATOM     26  C   UNL     1       0.518   3.922   3.034  0.00  0.00    +0.123 A 
ATOM     27  C   UNL     1      -0.740   4.380   2.679  0.00  0.00    +0.038 A 
ATOM     28  C   UNL     1      -1.478   3.703   1.727  0.00  0.00    +0.009 A 
ATOM     29  F   UNL     1       1.240   4.584   3.964  0.00  0.00    -0.205 F 
ENDBRANCH  22  23
BRANCH  22  30
ATOM     30  C   UNL     1      -1.825   2.660  -1.175  0.00  0.00    +0.238 C 
ATOM     31  O   UNL     1      -2.889   3.098  -1.562  0.00  0.00    -0.273 OA
ATOM     32  N   UNL     1      -0.700   2.911  -1.873  0.00  0.00    -0.309 N 
ATOM     33  H   UNL     1       0.150   2.561  -1.564  0.00  0.00    +0.149 HD
BRANCH  32  34
ATOM     34  C   UNL     1      -0.760   3.713  -3.098  0.00  0.00    +0.026 C 
ATOM     35  C   UNL     1      -1.311   5.103  -2.771  0.00  0.00    +0.031 C 
ATOM     36  C   UNL     1       0.644   3.846  -3.690  0.00  0.00    +0.031 C 
ATOM     37  C   UNL     1      -1.678   3.026  -4.111  0.00  0.00    +0.031 C 
ENDBRANCH  32  34
ENDBRANCH  22  30
ENDBRANCH   3  22
TORSDOF 9
