REMARK  Name = ZINC61595056
REMARK  10 active torsions:
REMARK  status: ('A' for Active; 'I' for Inactive)
REMARK    1  A    between atoms: C_1  and  C_2
REMARK    2  A    between atoms: C_5  and  C_8
REMARK    3  A    between atoms: C_8  and  C_10
REMARK    4  A    between atoms: C_8  and  S_14
REMARK    5  A    between atoms: C_10  and  C_12
REMARK    6  A    between atoms: C_10  and  N_13
REMARK    7  A    between atoms: S_14  and  C_15
REMARK    8  A    between atoms: N_21  and  C_22
REMARK    9  A    between atoms: C_22  and  C_23
REMARK   10  A    between atoms: C_22  and  C_24
REMARK                            x       y       z     vdW  Elec       q    Type
REMARK                         _______ _______ _______ _____ _____    ______ ____
ROOT
ATOM      1  C   UNL     1       0.215  -4.436  -0.208  0.00  0.00    +0.069 C 
ENDROOT
BRANCH   1   6
ATOM      2  C   UNL     1       1.644   1.136   0.332  0.00  0.00    +0.044 C 
ATOM      3  C   UNL     1       1.271  -0.317   0.191  0.00  0.00    -0.050 A 
ATOM      4  C   UNL     1       0.587  -0.749  -0.929  0.00  0.00    +0.003 A 
ATOM      5  C   UNL     1       0.245  -2.083  -1.058  0.00  0.00    +0.005 A 
ATOM      6  C   UNL     1       0.588  -2.983  -0.068  0.00  0.00    -0.036 A 
ATOM      7  C   UNL     1       1.274  -2.551   1.052  0.00  0.00    +0.005 A 
ATOM      8  C   UNL     1       1.619  -1.219   1.180  0.00  0.00    +0.003 A 
ENDBRANCH   1   6
BRANCH   1   9
ATOM      9  C   UNL     1      -0.979  -4.746   0.698  0.00  0.00    -0.060 C 
ATOM     10  C   UNL     1      -0.576  -4.543   2.160  0.00  0.00    -0.013 C 
BRANCH   9  11
ATOM     11  N   UNL     1      -2.091  -3.846   0.367  0.00  0.00    +0.381 N 
ATOM     12  H   UNL     1      -2.400  -4.025  -0.577  0.00  0.00    -0.090 HD
ATOM     13  H   UNL     1      -2.855  -4.006   1.006  0.00  0.00    -0.090 HD
ATOM     14  H   UNL     1      -1.783  -2.888   0.444  0.00  0.00    -0.090 HD
ENDBRANCH   9  11
ENDBRANCH   1   9
BRANCH   1  15
ATOM     15  S   UNL     1       1.624  -5.472   0.273  0.00  0.00    -0.080 S 
BRANCH  15  16
ATOM     16  C   UNL     1       1.124  -7.104  -0.167  0.00  0.00    +0.193 A 
ATOM     17  N   UNL     1       0.031  -7.418  -0.800  0.00  0.00    -0.145 NA
ATOM     18  N   UNL     1       0.004  -8.810  -0.956  0.00  0.00    -0.226 N 
ATOM     19  H   UNL     1      -0.692  -9.327  -1.391  0.00  0.00    +0.194 HD
ATOM     20  C   UNL     1       1.126  -9.301  -0.389  0.00  0.00    +0.345 A 
ATOM     21  O   UNL     1       1.449 -10.475  -0.331  0.00  0.00    -0.245 OA
ATOM     22  N   UNL     1       1.827  -8.257   0.096  0.00  0.00    -0.268 N 
BRANCH  22  23
ATOM     23  C   UNL     1       3.116  -8.337   0.787  0.00  0.00    +0.088 C 
ATOM     24  C   UNL     1       2.968  -9.195   2.045  0.00  0.00    +0.031 C 
ATOM     25  C   UNL     1       4.155  -8.969  -0.141  0.00  0.00    +0.031 C 
ENDBRANCH  22  23
ENDBRANCH  15  16
ENDBRANCH   1  15
TORSDOF 6
