REMARK  Name = ZINC09282272
REMARK  8 active torsions:
REMARK  status: ('A' for Active; 'I' for Inactive)
REMARK    1  A    between atoms: C_2  and  C_3
REMARK    2  A    between atoms: C_3  and  N_4
REMARK    3  A    between atoms: C_14  and  C_27
REMARK    4  A    between atoms: C_15  and  O_26
REMARK    5  A    between atoms: N_18  and  C_19
REMARK    6  A    between atoms: C_19  and  C_20
REMARK    7  A    between atoms: C_20  and  N_65
REMARK    8  A    between atoms: C_27  and  C_29
REMARK                            x       y       z     vdW  Elec       q    Type
REMARK                         _______ _______ _______ _____ _____    ______ ____
ROOT
ATOM      1  N   UNL     1       5.507  -1.321  -1.594  0.00  0.00    -0.265 N 
ATOM      2  C   UNL     1       4.612  -0.370  -2.087  0.00  0.00    +0.043 A 
ATOM      3  C   UNL     1       4.825   0.762  -2.870  0.00  0.00    +0.024 A 
ATOM      4  C   UNL     1       3.764   1.562  -3.237  0.00  0.00    +0.002 A 
ATOM      5  C   UNL     1       2.479   1.249  -2.830  0.00  0.00    +0.000 A 
ATOM      6  C   UNL     1       2.258   0.127  -2.051  0.00  0.00    +0.008 A 
ATOM      7  C   UNL     1       3.316  -0.675  -1.684  0.00  0.00    +0.011 A 
ATOM      8  C   UNL     1       3.421  -1.934  -0.866  0.00  0.00    +0.174 C 
ATOM      9  C   UNL     1       4.890  -2.272  -0.868  0.00  0.00    +0.253 C 
ATOM     10  O   UNL     1       5.415  -3.218  -0.320  0.00  0.00    -0.272 OA
ATOM     11  C   UNL     1       2.608  -3.047  -1.470  0.00  0.00    +0.086 C 
ATOM     12  C   UNL     1       1.724  -3.437  -0.519  0.00  0.00    +0.189 C 
ATOM     13  C   UNL     1       1.929  -2.621   0.697  0.00  0.00    +0.283 C 
ATOM     14  O   UNL     1       1.294  -2.733   1.726  0.00  0.00    -0.267 OA
ATOM     15  N   UNL     1       2.922  -1.734   0.492  0.00  0.00    -0.275 N 
ENDROOT
BRANCH  12  16
ATOM     16  O   UNL     1       0.803  -4.419  -0.658  0.00  0.00    -0.502 OA
ATOM     17  H   UNL     1       0.278  -4.506   0.188  0.00  0.00    +0.292 HD
ENDBRANCH  12  16
BRANCH  11  18
ATOM     18  C   UNL     1       2.744  -3.601  -2.821  0.00  0.00    +0.231 C 
ATOM     19  O   UNL     1       3.239  -2.929  -3.708  0.00  0.00    -0.283 OA
BRANCH  18  20
ATOM     20  C   UNL     1       2.284  -4.967  -3.105  0.00  0.00    +0.176 A 
ATOM     21  C   UNL     1       2.237  -5.537  -4.340  0.00  0.00    +0.061 A 
ATOM     22  C   UNL     1       1.723  -6.891  -4.142  0.00  0.00    +0.021 A 
ATOM     23  C   UNL     1       1.448  -7.963  -4.995  0.00  0.00    +0.011 A 
ATOM     24  C   UNL     1       0.954  -9.128  -4.480  0.00  0.00    +0.001 A 
ATOM     25  C   UNL     1       0.724  -9.253  -3.116  0.00  0.00    +0.004 A 
ATOM     26  C   UNL     1       0.988  -8.207  -2.258  0.00  0.00    +0.047 A 
ATOM     27  C   UNL     1       1.492  -7.012  -2.758  0.00  0.00    +0.136 A 
ATOM     28  O   UNL     1       1.839  -5.845  -2.182  0.00  0.00    -0.452 OA
ENDBRANCH  18  20
ENDBRANCH  11  18
BRANCH   1  29
ATOM     29  C   UNL     1       6.951  -1.289  -1.839  0.00  0.00    +0.140 C 
BRANCH  29  31
ATOM     30  C   UNL     1       7.922  -1.312  -4.079  0.00  0.00    +0.005 C 
ATOM     31  C   UNL     1       7.251  -1.956  -3.157  0.00  0.00    -0.015 C 
ENDBRANCH  29  31
ENDBRANCH   1  29
BRANCH  15  32
ATOM     32  C   UNL     1       3.417  -0.750   1.459  0.00  0.00    +0.091 C 
BRANCH  32  33
ATOM     33  C   UNL     1       2.635   0.556   1.304  0.00  0.00    -0.059 C 
BRANCH  33  39
ATOM     34  C   UNL     1       2.831   1.124   3.650  0.00  0.00    -0.050 C 
ATOM     35  C   UNL     1       3.416   2.147   4.627  0.00  0.00    +0.141 C 
ATOM     36  O   UNL     1       2.888   3.442   4.327  0.00  0.00    -0.383 OA
ATOM     37  C   UNL     1       3.163   3.880   2.994  0.00  0.00    +0.141 C 
ATOM     38  C   UNL     1       2.575   2.875   2.000  0.00  0.00    -0.050 C 
ATOM     39  N   UNL     1       3.158   1.544   2.272  0.00  0.00    +0.384 N 
ATOM     40  H   UNL     1       4.179   1.600   2.173  0.00  0.00    -0.082 HD
ENDBRANCH  33  39
ENDBRANCH  32  33
ENDBRANCH  15  32
TORSDOF 8
