REMARK  Name = ZINC20439253
REMARK  12 active torsions:
REMARK  status: ('A' for Active; 'I' for Inactive)
REMARK    1  A    between atoms: C_1  and  C_2
REMARK    2  A    between atoms: C_2  and  C_4
REMARK    3  A    between atoms: C_2  and  O_38
REMARK    4  A    between atoms: C_4  and  N_5
REMARK    5  A    between atoms: N_5  and  C_6
REMARK    6  A    between atoms: C_6  and  C_7
REMARK    7  A    between atoms: C_7  and  C_9
REMARK    8  A    between atoms: C_7  and  O_10
REMARK    9  A    between atoms: C_29  and  C_31
REMARK   10  A    between atoms: C_29  and  C_32
REMARK   11  A    between atoms: C_34  and  S_36
REMARK   12  A    between atoms: S_36  and  C_37
REMARK                            x       y       z     vdW  Elec       q    Type
REMARK                         _______ _______ _______ _____ _____    ______ ____
ROOT
ATOM      1  N   UNL     1      -1.641  -4.637   0.230  0.00  0.00    -0.309 N 
ATOM      2  C   UNL     1      -0.286  -4.424   0.029  0.00  0.00    +0.140 A 
ATOM      3  C   UNL     1       0.186  -3.180  -0.367  0.00  0.00    +0.080 A 
ATOM      4  C   UNL     1       1.553  -2.958  -0.571  0.00  0.00    +0.094 A 
ATOM      5  C   UNL     1       1.929  -1.595  -0.989  0.00  0.00    +0.038 A 
ATOM      6  C   UNL     1       3.230  -1.104  -1.262  0.00  0.00    -0.024 A 
ATOM      7  C   UNL     1       3.391   0.192  -1.641  0.00  0.00    +0.022 A 
ATOM      8  C   UNL     1       2.276   1.029  -1.756  0.00  0.00    +0.128 A 
ATOM      9  N   UNL     1       1.062   0.568  -1.500  0.00  0.00    -0.224 NA
ATOM     10  C   UNL     1       0.871  -0.682  -1.133  0.00  0.00    +0.113 A 
ATOM     11  S   UNL     1      -0.579  -1.622  -0.722  0.00  0.00    -0.064 S 
ATOM     12  N   UNL     1       2.444   2.353  -2.139  0.00  0.00    -0.310 N 
ATOM     13  C   UNL     1       2.119   3.267  -1.035  0.00  0.00    +0.134 C 
ATOM     14  C   UNL     1       2.375   4.709  -1.481  0.00  0.00    +0.178 C 
ATOM     15  O   UNL     1       1.605   4.983  -2.655  0.00  0.00    -0.377 OA
ATOM     16  C   UNL     1       1.896   4.112  -3.751  0.00  0.00    +0.178 C 
ATOM     17  C   UNL     1       1.635   2.663  -3.327  0.00  0.00    +0.134 C 
ATOM     18  C   UNL     1       4.754   0.758  -1.949  0.00  0.00    +0.199 C 
ATOM     19  O   UNL     1       5.772  -0.097  -1.431  0.00  0.00    -0.369 OA
ATOM     20  C   UNL     1       5.619  -1.463  -1.833  0.00  0.00    +0.068 C 
ATOM     21  C   UNL     1       4.397  -2.043  -1.117  0.00  0.00    +0.070 C 
ATOM     22  C   UNL     1       6.868  -2.258  -1.447  0.00  0.00    +0.041 C 
ATOM     23  C   UNL     1       5.410  -1.535  -3.347  0.00  0.00    +0.041 C 
ATOM     24  N   UNL     1       2.367  -4.019  -0.360  0.00  0.00    -0.221 NA
ATOM     25  C   UNL     1       1.887  -5.185   0.016  0.00  0.00    +0.190 A 
ATOM     26  N   UNL     1       0.593  -5.408   0.213  0.00  0.00    -0.206 NA
ENDROOT
BRANCH  25  27
ATOM     27  S   UNL     1       3.015  -6.515   0.270  0.00  0.00    -0.089 S 
ATOM     28  C   UNL     1       4.574  -5.683  -0.123  0.00  0.00    +0.093 C 
ENDBRANCH  25  27
BRANCH   1  29
ATOM     29  C   UNL     1      -1.901  -6.023   0.643  0.00  0.00    +0.137 C 
BRANCH  29  31
ATOM     30  C   UNL     1      -1.880  -8.406  -0.108  0.00  0.00    +0.039 C 
ATOM     31  C   UNL     1      -1.758  -6.951  -0.565  0.00  0.00    +0.129 C 
BRANCH  31  32
ATOM     32  O   UNL     1      -2.787  -6.661  -1.513  0.00  0.00    -0.391 OA
ATOM     33  H   UNL     1      -2.860  -5.657  -1.956  0.00  0.00    +0.210 HD
ENDBRANCH  31  32
ENDBRANCH  29  31
ENDBRANCH   1  29
BRANCH   1  34
ATOM     34  C   UNL     1      -2.185  -3.685   1.208  0.00  0.00    +0.137 C 
BRANCH  34  35
ATOM     35  C   UNL     1      -3.711  -3.663   1.104  0.00  0.00    +0.129 C 
ATOM     36  C   UNL     1      -4.284  -2.759   2.197  0.00  0.00    +0.039 C 
BRANCH  35  37
ATOM     37  O   UNL     1      -4.094  -3.162  -0.178  0.00  0.00    -0.391 OA
ATOM     38  H   UNL     1      -5.160  -3.073  -0.438  0.00  0.00    +0.210 HD
ENDBRANCH  35  37
ENDBRANCH  34  35
ENDBRANCH   1  34
TORSDOF 7
