REMARK  Name = ZINC20708912
REMARK  3 active torsions:
REMARK  status: ('A' for Active; 'I' for Inactive)
REMARK    1  A    between atoms: C_3  and  O_27
REMARK    2  A    between atoms: C_4  and  C_10
REMARK    3  A    between atoms: C_6  and  N_7
REMARK                            x       y       z     vdW  Elec       q    Type
REMARK                         _______ _______ _______ _____ _____    ______ ____
ROOT
ATOM      1  C   UNL     1       3.669   3.275   0.006  0.00  0.00    +0.108 C 
ATOM      2  C   UNL     1       3.475   1.986   0.785  0.00  0.00    +0.029 C 
ATOM      3  C   UNL     1       4.643   0.992   0.796  0.00  0.00    +0.033 C 
ATOM      4  C   UNL     1       3.910  -0.343   0.950  0.00  0.00    -0.030 C 
ATOM      5  C   UNL     1       2.676  -0.241   0.471  0.00  0.00    -0.023 C 
ATOM      6  C   UNL     1       2.464   1.144  -0.050  0.00  0.00    +0.049 C 
ATOM      7  C   UNL     1       1.155   1.831  -0.005  0.00  0.00    -0.017 A 
ATOM      8  C   UNL     1      -0.040   1.144   0.002  0.00  0.00    +0.044 A 
ATOM      9  C   UNL     1      -1.241   1.833   0.007  0.00  0.00    +0.124 A 
ATOM     10  C   UNL     1      -1.243   3.218   0.015  0.00  0.00    +0.040 A 
ATOM     11  C   UNL     1      -0.051   3.912   0.015  0.00  0.00    +0.026 A 
ATOM     12  C   UNL     1       1.160   3.230   0.011  0.00  0.00    +0.032 A 
ATOM     13  N   UNL     1       2.357   3.958   0.032  0.00  0.00    -0.336 N 
ATOM     14  F   UNL     1      -2.410   1.155   0.007  0.00  0.00    -0.205 F 
ATOM     15  H   UNL     1       2.309   5.056   0.068  0.00  0.00    +0.147 HD
ENDROOT
BRANCH   1  19
ATOM     16  C   UNL     1       4.808   2.417  -4.024  0.00  0.00    +0.036 A 
ATOM     17  C   UNL     1       5.778   2.554  -3.050  0.00  0.00    +0.048 A 
ATOM     18  C   UNL     1       5.412   2.832  -1.742  0.00  0.00    +0.122 A 
ATOM     19  C   UNL     1       4.071   2.972  -1.414  0.00  0.00    +0.017 A 
ATOM     20  C   UNL     1       3.104   2.829  -2.390  0.00  0.00    +0.041 A 
ATOM     21  C   UNL     1       3.472   2.558  -3.695  0.00  0.00    +0.127 A 
BRANCH  21  22
ATOM     22  N   UNL     1       2.435   2.411  -4.741  0.00  0.00    +0.056 N 
ATOM     23  O   UNL     1       2.758   2.166  -5.889  0.00  0.00    -0.126 OA
ATOM     24  O   UNL     1       1.258   2.535  -4.452  0.00  0.00    -0.126 OA
ENDBRANCH  21  22
BRANCH  18  25
ATOM     25  O   UNL     1       6.364   2.966  -0.782  0.00  0.00    -0.506 OA
ATOM     26  H   UNL     1       6.073   3.187   0.255  0.00  0.00    +0.292 HD
ENDBRANCH  18  25
ENDBRANCH   1  19
TORSDOF 3
