REMARK  Name = ZINC03417131
REMARK  5 active torsions:
REMARK  status: ('A' for Active; 'I' for Inactive)
REMARK    1  A    between atoms: C_1  and  C_2
REMARK    2  A    between atoms: C_9  and  N_13
REMARK    3  A    between atoms: C_10  and  C_11
REMARK    4  A    between atoms: C_14  and  C_16
REMARK    5  A    between atoms: C_16  and  N_17
REMARK                            x       y       z     vdW  Elec       q    Type
REMARK                         _______ _______ _______ _____ _____    ______ ____
ROOT
ATOM      1  C   UNL     1       5.753   6.359   0.856  0.00  0.00    +0.214 C 
ENDROOT
BRANCH   1   2
ATOM      2  N   UNL     1       7.198   6.246   0.645  0.00  0.00    -0.215 N 
ATOM      3  C   UNL     1       7.820   6.524  -0.521  0.00  0.00    +0.251 C 
ATOM      4  O   UNL     1       7.311   6.901  -1.555  0.00  0.00    -0.272 OA
ATOM      5  C   UNL     1       9.281   6.266  -0.262  0.00  0.00    +0.138 C 
ATOM      6  C   UNL     1      10.118   7.531  -0.492  0.00  0.00    +0.045 C 
ATOM      7  C   UNL     1      10.616   7.334  -1.942  0.00  0.00    +0.038 C 
ATOM      8  C   UNL     1      10.609   5.835  -2.164  0.00  0.00    -0.042 A 
ATOM      9  C   UNL     1       9.834   5.221  -1.194  0.00  0.00    -0.012 A 
ATOM     10  C   UNL     1       9.681   3.845  -1.208  0.00  0.00    +0.006 A 
ATOM     11  C   UNL     1      10.299   3.085  -2.181  0.00  0.00    +0.000 A 
ATOM     12  C   UNL     1      11.074   3.698  -3.147  0.00  0.00    +0.000 A 
ATOM     13  C   UNL     1      11.228   5.071  -3.137  0.00  0.00    +0.004 A 
ATOM     14  N   UNL     1       9.338   5.834   1.134  0.00  0.00    -0.281 N 
ATOM     15  C   UNL     1       8.068   5.859   1.587  0.00  0.00    +0.310 C 
ATOM     16  O   UNL     1       7.749   5.559   2.721  0.00  0.00    -0.252 OA
ATOM     17  H   UNL     1      10.131   5.585   1.635  0.00  0.00    +0.152 HD
ENDBRANCH   1   2
BRANCH   1  19
ATOM     18  N   UNL     1       3.755   4.917   0.637  0.00  0.00    -0.278 N 
ATOM     19  C   UNL     1       5.091   5.048   0.517  0.00  0.00    +0.236 C 
ATOM     20  O   UNL     1       5.761   4.111   0.138  0.00  0.00    -0.274 OA
ATOM     21  H   UNL     1       3.220   5.666   0.940  0.00  0.00    +0.155 HD
BRANCH  18  29
ATOM     22  C   UNL     1       0.700  -2.018  -1.306  0.00  0.00    +0.008 C 
ATOM     23  C   UNL     1       0.879  -0.507  -1.148  0.00  0.00    -0.009 C 
ATOM     24  C   UNL     1       0.002  -0.004   0.002  0.00  0.00    +0.008 C 
ATOM     25  C   UNL     1      -0.019   1.526   0.010  0.00  0.00    +0.037 C 
ATOM     26  C   UNL     1       1.417   2.035  -0.001  0.00  0.00    -0.018 A 
ATOM     27  C   UNL     1       2.437   1.234  -0.380  0.00  0.00    -0.004 A 
ATOM     28  S   UNL     1       3.884   2.243  -0.232  0.00  0.00    -0.077 S 
ATOM     29  C   UNL     1       3.146   3.709   0.325  0.00  0.00    +0.090 A 
ATOM     30  C   UNL     1       1.800   3.383   0.383  0.00  0.00    +0.084 A 
ATOM     31  C   UNL     1       2.347  -0.193  -0.825  0.00  0.00    +0.046 C 
BRANCH  30  32
ATOM     32  C   UNL     1       0.822   4.340   0.807  0.00  0.00    +0.102 C 
ATOM     33  N   UNL     1       0.046   5.098   1.143  0.00  0.00    -0.191 NA
ENDBRANCH  30  32
ENDBRANCH  18  29
ENDBRANCH   1  19
TORSDOF 4
