REMARK  Name = ZINC63362005
REMARK  5 active torsions:
REMARK  status: ('A' for Active; 'I' for Inactive)
REMARK    1  A    between atoms: C_1  and  C_2
REMARK    2  A    between atoms: C_5  and  N_8
REMARK    3  A    between atoms: C_9  and  C_11
REMARK    4  A    between atoms: C_14  and  N_17
REMARK    5  A    between atoms: C_20  and  C_36
REMARK                            x       y       z     vdW  Elec       q    Type
REMARK                         _______ _______ _______ _____ _____    ______ ____
ROOT
ATOM      1  N   UNL     1       0.671 -10.470   1.076  0.00  0.00    -0.192 N 
ATOM      2  C   UNL     1       0.685 -11.242   2.183  0.00  0.00    +0.253 C 
ATOM      3  O   UNL     1       0.624 -10.870   3.335  0.00  0.00    -0.272 OA
ATOM      4  C   UNL     1       0.791 -12.668   1.688  0.00  0.00    +0.137 C 
ATOM      5  C   UNL     1       2.088 -13.307   2.199  0.00  0.00    +0.139 C 
ATOM      6  C   UNL     1       2.394 -14.470   1.261  0.00  0.00    -0.034 C 
ATOM      7  C   UNL     1       2.465 -15.556   2.024  0.00  0.00    -0.001 A 
ATOM      8  C   UNL     1       2.788 -16.956   1.702  0.00  0.00    +0.010 A 
ATOM      9  C   UNL     1       2.760 -17.831   2.743  0.00  0.00    +0.001 A 
ATOM     10  C   UNL     1       2.446 -17.458   4.053  0.00  0.00    +0.002 A 
ATOM     11  C   UNL     1       2.142 -16.193   4.439  0.00  0.00    +0.026 A 
ATOM     12  C   UNL     1       2.142 -15.182   3.434  0.00  0.00    +0.043 A 
ATOM     13  N   UNL     1       1.906 -13.895   3.528  0.00  0.00    -0.375 N 
ATOM     14  C   UNL     1       2.504 -14.318  -0.237  0.00  0.00    +0.052 C 
ATOM     15  C   UNL     1       1.230 -13.594  -0.716  0.00  0.00    +0.115 C 
ATOM     16  N   UNL     1       0.939 -12.508   0.224  0.00  0.00    -0.268 N 
ATOM     17  C   UNL     1       0.784 -11.204  -0.039  0.00  0.00    +0.316 C 
ATOM     18  O   UNL     1       0.753 -10.738  -1.161  0.00  0.00    -0.252 OA
ATOM     19  C   UNL     1      -0.445 -13.493   2.053  0.00  0.00    +0.044 C 
ATOM     20  H   UNL     1       1.654 -13.412   4.331  0.00  0.00    +0.160 HD
ENDROOT
BRANCH   1  24
ATOM     21  C   UNL     1       0.304  -6.318   1.122  0.00  0.00    +0.037 A 
ATOM     22  C   UNL     1       0.290  -7.009  -0.093  0.00  0.00    +0.015 A 
ATOM     23  C   UNL     1       0.412  -8.381  -0.104  0.00  0.00    +0.025 A 
ATOM     24  C   UNL     1       0.548  -9.078   1.091  0.00  0.00    +0.045 A 
ATOM     25  C   UNL     1       0.563  -8.394   2.302  0.00  0.00    +0.025 A 
ATOM     26  C   UNL     1       0.447  -7.022   2.320  0.00  0.00    +0.015 A 
BRANCH  21  28
ATOM     27  N   UNL     1       0.035  -4.171  -0.020  0.00  0.00    -0.282 N 
ATOM     28  C   UNL     1       0.174  -4.848   1.138  0.00  0.00    +0.248 C 
ATOM     29  O   UNL     1       0.191  -4.247   2.195  0.00  0.00    -0.270 OA
ATOM     30  H   UNL     1      -0.056  -4.654  -0.856  0.00  0.00    +0.155 HD
BRANCH  27  35
ATOM     31  C   UNL     1      -0.015   1.501   0.003  0.00  0.00    +0.044 C 
ATOM     32  C   UNL     1      -0.001  -0.006  -0.004  0.00  0.00    -0.050 A 
ATOM     33  C   UNL     1      -0.760  -0.699  -0.928  0.00  0.00    +0.005 A 
ATOM     34  C   UNL     1      -0.751  -2.080  -0.936  0.00  0.00    +0.023 A 
ATOM     35  C   UNL     1       0.024  -2.772  -0.015  0.00  0.00    +0.034 A 
ATOM     36  C   UNL     1       0.785  -2.073   0.913  0.00  0.00    +0.023 A 
ATOM     37  C   UNL     1       0.775  -0.692   0.912  0.00  0.00    +0.005 A 
ENDBRANCH  27  35
ENDBRANCH  21  28
ENDBRANCH   1  24
TORSDOF 3
