REMARK  Name = ZINC02810240
REMARK  6 active torsions:
REMARK  status: ('A' for Active; 'I' for Inactive)
REMARK    1  A    between atoms: C_1  and  S_2
REMARK    2  A    between atoms: S_2  and  C_3
REMARK    3  A    between atoms: C_4  and  C_12
REMARK    4  A    between atoms: C_5  and  C_10
REMARK    5  A    between atoms: C_6  and  S_8
REMARK    6  A    between atoms: S_8  and  C_9
REMARK                            x       y       z     vdW  Elec       q    Type
REMARK                         _______ _______ _______ _____ _____    ______ ____
ROOT
ATOM      1  C   UNL     1       1.210   2.101   0.002  0.00  0.00    +0.061 A 
ATOM      2  C   UNL     1      -0.018   1.453   0.010  0.00  0.00    +0.099 A 
ATOM      3  C   UNL     1       0.002  -0.004   0.002  0.00  0.00    +0.099 A 
ATOM      4  C   UNL     1       1.246  -0.619  -0.013  0.00  0.00    +0.061 A 
ATOM      5  S   UNL     1       2.379   0.757  -0.017  0.00  0.00    -0.074 S 
ENDROOT
BRANCH   3   6
ATOM      6  C   UNL     1      -1.194  -0.759   0.010  0.00  0.00    +0.389 C 
ATOM      7  O   UNL     1      -1.720  -1.078  -1.041  0.00  0.00    -0.241 OA
ATOM      8  O   UNL     1      -1.754  -1.125   1.183  0.00  0.00    -0.241 OA
ENDBRANCH   3   6
BRANCH   2   9
ATOM      9  C   UNL     1      -1.234   2.175   0.020  0.00  0.00    +0.389 C 
ATOM     10  O   UNL     1      -1.753   2.480   1.078  0.00  0.00    -0.241 OA
ATOM     11  O   UNL     1      -1.820   2.526  -1.145  0.00  0.00    -0.241 OA
ENDBRANCH   2   9
BRANCH   1  13
ATOM     12  C   UNL     1       3.343   3.815  -0.009  0.00  0.00    +0.090 C 
ATOM     13  S   UNL     1       1.533   3.833   0.008  0.00  0.00    -0.121 S 
ENDBRANCH   1  13
BRANCH   4  14
ATOM     14  S   UNL     1       1.617  -2.341  -0.025  0.00  0.00    -0.121 S 
ATOM     15  C   UNL     1       3.425  -2.274  -0.043  0.00  0.00    +0.090 C 
ENDBRANCH   4  14
TORSDOF 4
