REMARK  Name = ZINC02228272
REMARK  5 active torsions:
REMARK  status: ('A' for Active; 'I' for Inactive)
REMARK    1  A    between atoms: C_1  and  C_2
REMARK    2  A    between atoms: C_2  and  C_3
REMARK    3  A    between atoms: C_3  and  C_4
REMARK    4  A    between atoms: N_6  and  N_7
REMARK    5  A    between atoms: N_14  and  C_15
REMARK                            x       y       z     vdW  Elec       q    Type
REMARK                         _______ _______ _______ _____ _____    ______ ____
ROOT
ATOM      1  N   UNL     1       4.765   0.093   0.180  0.00  0.00    -0.233 N 
ATOM      2  C   UNL     1       4.771   1.459   0.073  0.00  0.00    +0.220 A 
ATOM      3  N   UNL     1       5.897   2.115   0.263  0.00  0.00    -0.214 NA
ATOM      4  C   UNL     1       5.939   3.448   0.172  0.00  0.00    +0.084 A 
ATOM      5  C   UNL     1       4.784   4.159  -0.128  0.00  0.00    +0.050 A 
ATOM      6  C   UNL     1       3.592   3.454  -0.334  0.00  0.00    +0.264 A 
ATOM      7  O   UNL     1       2.557   4.045  -0.598  0.00  0.00    -0.267 OA
ATOM      8  N   UNL     1       3.612   2.107  -0.235  0.00  0.00    -0.248 N 
ATOM      9  C   UNL     1       4.828   5.657  -0.220  0.00  0.00    +0.007 C 
ATOM     10  C   UNL     1       3.420   6.236   0.007  0.00  0.00    +0.012 C 
ATOM     11  C   UNL     1       3.341   7.434  -0.973  0.00  0.00    +0.001 C 
ATOM     12  C   UNL     1       4.099   6.909  -2.218  0.00  0.00    +0.001 C 
ATOM     13  C   UNL     1       5.263   6.083  -1.631  0.00  0.00    +0.012 C 
ATOM     14  C   UNL     1       5.794   6.232   0.814  0.00  0.00    +0.047 C 
ATOM     15  C   UNL     1       7.134   5.553   0.702  0.00  0.00    -0.037 A 
ATOM     16  C   UNL     1       7.199   4.196   0.382  0.00  0.00    +0.004 A 
ATOM     17  C   UNL     1       8.435   3.565   0.269  0.00  0.00    +0.010 A 
ATOM     18  C   UNL     1       9.592   4.288   0.479  0.00  0.00    +0.001 A 
ATOM     19  C   UNL     1       9.524   5.632   0.800  0.00  0.00    +0.000 A 
ATOM     20  C   UNL     1       8.298   6.263   0.911  0.00  0.00    +0.004 A 
ATOM     21  H   UNL     1       3.930  -0.395   0.115  0.00  0.00    +0.173 HD
ENDROOT
BRANCH   8  22
ATOM     22  C   UNL     1       2.436   1.375  -0.442  0.00  0.00    +0.053 A 
ATOM     23  C   UNL     1       1.587   1.107   0.623  0.00  0.00    +0.026 A 
ATOM     24  C   UNL     1       0.428   0.385   0.414  0.00  0.00    +0.002 A 
ATOM     25  C   UNL     1       0.113  -0.071  -0.853  0.00  0.00    +0.000 A 
ATOM     26  C   UNL     1       0.958   0.195  -1.915  0.00  0.00    +0.002 A 
ATOM     27  C   UNL     1       2.118   0.916  -1.714  0.00  0.00    +0.026 A 
ENDBRANCH   8  22
BRANCH   1  30
ATOM     28  C   UNL     1       5.961  -1.942   0.487  0.00  0.00    +0.229 C 
ATOM     29  O   UNL     1       4.916  -2.553   0.407  0.00  0.00    -0.274 OA
ATOM     30  N   UNL     1       5.967  -0.599   0.382  0.00  0.00    -0.234 N 
ATOM     31  H   UNL     1       6.803  -0.111   0.447  0.00  0.00    +0.173 HD
BRANCH  28  32
ATOM     32  C   UNL     1       7.254  -2.686   0.705  0.00  0.00    +0.097 C 
BRANCH  32  34
ATOM     33  C   UNL     1       8.282  -4.943   1.010  0.00  0.00    +0.004 C 
ATOM     34  C   UNL     1       6.970  -4.188   0.789  0.00  0.00    +0.006 C 
ENDBRANCH  32  34
ENDBRANCH  28  32
ENDBRANCH   1  30
TORSDOF 4
