REMARK  Name = ZINC01220281
REMARK  10 active torsions:
REMARK  status: ('A' for Active; 'I' for Inactive)
REMARK    1  A    between atoms: C_1  and  C_2
REMARK    2  A    between atoms: C_5  and  S_8
REMARK    3  A    between atoms: S_8  and  N_11
REMARK    4  A    between atoms: N_11  and  C_12
REMARK    5  A    between atoms: N_11  and  C_23
REMARK    6  A    between atoms: C_12  and  C_13
REMARK    7  A    between atoms: N_15  and  C_16
REMARK    8  A    between atoms: C_25  and  C_31
REMARK    9  A    between atoms: C_28  and  O_29
REMARK   10  A    between atoms: O_29  and  C_30
REMARK                            x       y       z     vdW  Elec       q    Type
REMARK                         _______ _______ _______ _____ _____    ______ ____
ROOT
ATOM      1  N   UNL     1      -1.975   2.470   1.609  0.00  0.00    -0.191 N 
ENDROOT
BRANCH   1   2
ATOM      2  C   UNL     1      -1.552   3.623   2.281  0.00  0.00    +0.094 A 
ATOM      3  C   UNL     1      -0.391   3.598   3.041  0.00  0.00    +0.031 A 
ATOM      4  C   UNL     1       0.025   4.737   3.704  0.00  0.00    -0.048 A 
ATOM      5  C   UNL     1      -0.713   5.903   3.612  0.00  0.00    +0.007 A 
ATOM      6  C   UNL     1      -1.871   5.935   2.857  0.00  0.00    +0.048 A 
ATOM      7  C   UNL     1      -2.291   4.799   2.185  0.00  0.00    +0.143 A 
ATOM      8  C   UNL     1       1.286   4.709   4.529  0.00  0.00    +0.044 C 
BRANCH   7   9
ATOM      9  O   UNL     1      -3.427   4.831   1.437  0.00  0.00    -0.493 OA
ATOM     10  C   UNL     1      -4.134   6.071   1.383  0.00  0.00    +0.277 C 
ENDBRANCH   7   9
ENDBRANCH   1   2
BRANCH   1  11
ATOM     11  S   UNL     1      -1.565   2.241   0.021  0.00  0.00    +0.075 S 
ATOM     12  O   UNL     1      -1.312   3.529  -0.523  0.00  0.00    -0.150 OA
ATOM     13  O   UNL     1      -2.537   1.360  -0.526  0.00  0.00    -0.150 OA
BRANCH  11  18
ATOM     14  C   UNL     1       3.687  -0.727  -0.075  0.00  0.00    +0.044 C 
ATOM     15  C   UNL     1       2.375   0.015  -0.050  0.00  0.00    -0.050 A 
ATOM     16  C   UNL     1       1.185  -0.688  -0.035  0.00  0.00    +0.005 A 
ATOM     17  C   UNL     1      -0.018  -0.008  -0.011  0.00  0.00    +0.029 A 
ATOM     18  C   UNL     1      -0.031   1.374  -0.002  0.00  0.00    +0.109 A 
ATOM     19  C   UNL     1       1.159   2.077  -0.015  0.00  0.00    +0.029 A 
ATOM     20  C   UNL     1       2.362   1.397  -0.040  0.00  0.00    +0.005 A 
ENDBRANCH  11  18
ENDBRANCH   1  11
BRANCH   1  21
ATOM     21  C   UNL     1      -2.780   1.467   2.310  0.00  0.00    +0.227 C 
BRANCH  21  22
ATOM     22  C   UNL     1      -1.870   0.524   3.055  0.00  0.00    +0.236 C 
ATOM     23  O   UNL     1      -0.668   0.675   3.005  0.00  0.00    -0.274 OA
ATOM     24  N   UNL     1      -2.393  -0.487   3.777  0.00  0.00    -0.284 N 
ATOM     25  H   UNL     1      -3.355  -0.568   3.872  0.00  0.00    +0.155 HD
BRANCH  24  26
ATOM     26  C   UNL     1      -1.548  -1.419   4.388  0.00  0.00    +0.034 A 
ATOM     27  C   UNL     1      -1.937  -2.749   4.490  0.00  0.00    +0.023 A 
ATOM     28  C   UNL     1      -1.099  -3.668   5.090  0.00  0.00    +0.003 A 
ATOM     29  C   UNL     1       0.121  -3.265   5.599  0.00  0.00    +0.015 A 
ATOM     30  C   UNL     1       0.510  -1.940   5.505  0.00  0.00    +0.020 A 
ATOM     31  C   UNL     1      -0.322  -1.017   4.900  0.00  0.00    +0.038 A 
ATOM     32 BR   UNL     1       2.180  -1.393   6.203  0.00  0.00    -0.050 Br
ENDBRANCH  24  26
ENDBRANCH  21  22
ENDBRANCH   1  21
TORSDOF 7
