REMARK  Name = ZINC57530929
REMARK  10 active torsions:
REMARK  status: ('A' for Active; 'I' for Inactive)
REMARK    1  A    between atoms: C_1  and  C_2
REMARK    2  A    between atoms: C_4  and  C_41
REMARK    3  A    between atoms: C_7  and  C_14
REMARK    4  A    between atoms: C_14  and  C_16
REMARK    5  A    between atoms: C_14  and  N_27
REMARK    6  A    between atoms: N_20  and  C_21
REMARK    7  A    between atoms: N_27  and  C_28
REMARK    8  A    between atoms: N_27  and  C_35
REMARK    9  A    between atoms: C_28  and  C_29
REMARK   10  A    between atoms: C_35  and  C_36
REMARK                            x       y       z     vdW  Elec       q    Type
REMARK                         _______ _______ _______ _____ _____    ______ ____
ROOT
ATOM      1  C   UNL     1      -0.269  -6.639   1.887  0.00  0.00    +0.163 C 
ENDROOT
BRANCH   1   8
ATOM      2  C   UNL     1      -2.328   0.867   3.632  0.00  0.00    +0.044 C 
ATOM      3  C   UNL     1      -1.998  -0.498   3.083  0.00  0.00    -0.048 A 
ATOM      4  C   UNL     1      -2.178  -0.756   1.731  0.00  0.00    +0.007 A 
ATOM      5  C   UNL     1      -1.886  -1.986   1.213  0.00  0.00    -0.041 A 
ATOM      6  C   UNL     1      -1.401  -2.994   2.052  0.00  0.00    +0.002 A 
ATOM      7  C   UNL     1      -1.078  -4.323   1.530  0.00  0.00    +0.021 A 
ATOM      8  C   UNL     1      -0.611  -5.261   2.392  0.00  0.00    +0.042 A 
ATOM      9  C   UNL     1      -0.445  -4.951   3.758  0.00  0.00    +0.254 A 
ATOM     10  O   UNL     1      -0.024  -5.809   4.515  0.00  0.00    -0.268 OA
ATOM     11  N   UNL     1      -0.740  -3.734   4.247  0.00  0.00    -0.322 N 
ATOM     12  H   UNL     1      -0.614  -3.554   5.192  0.00  0.00    +0.169 HD
ATOM     13  C   UNL     1      -1.218  -2.736   3.424  0.00  0.00    +0.050 A 
ATOM     14  C   UNL     1      -1.517  -1.475   3.928  0.00  0.00    +0.029 A 
ATOM     15  C   UNL     1      -2.086  -2.255  -0.256  0.00  0.00    +0.044 C 
ENDBRANCH   1   8
BRANCH   1  16
ATOM     16  C   UNL     1       1.214  -6.870   2.024  0.00  0.00    +0.173 A 
ATOM     17  N   UNL     1       1.918  -6.804   3.127  0.00  0.00    -0.111 NA
ATOM     18  N   UNL     1       3.145  -7.065   2.833  0.00  0.00    -0.023 NA
ATOM     19  N   UNL     1       3.242  -7.296   1.570  0.00  0.00    -0.044 NA
ATOM     20  N   UNL     1       2.072  -7.191   1.037  0.00  0.00    -0.224 N 
BRANCH  20  21
ATOM     21  C   UNL     1       1.739  -7.381  -0.377  0.00  0.00    +0.111 C 
ATOM     22  C   UNL     1       2.220  -8.760  -0.833  0.00  0.00    +0.027 C 
ATOM     23  C   UNL     1       1.873  -8.959  -2.309  0.00  0.00    +0.002 C 
ATOM     24  C   UNL     1       2.561  -7.878  -3.145  0.00  0.00    +0.000 C 
ATOM     25  C   UNL     1       2.080  -6.498  -2.689  0.00  0.00    +0.002 C 
ATOM     26  C   UNL     1       2.427  -6.300  -1.213  0.00  0.00    +0.027 C 
ENDBRANCH  20  21
ENDBRANCH   1  16
BRANCH   1  27
ATOM     27  N   UNL     1      -0.996  -7.644   2.675  0.00  0.00    -0.277 NA
BRANCH  27  28
ATOM     28  C   UNL     1      -2.432  -7.613   2.371  0.00  0.00    +0.122 C 
BRANCH  28  29
ATOM     29  C   UNL     1      -3.070  -6.443   3.075  0.00  0.00    -0.015 A 
ATOM     30  C   UNL     1      -3.103  -6.390   4.460  0.00  0.00    +0.008 A 
ATOM     31  C   UNL     1      -3.700  -5.295   5.065  0.00  0.00    +0.020 A 
ATOM     32  C   UNL     1      -4.239  -4.299   4.272  0.00  0.00    +0.111 A 
ATOM     33  N   UNL     1      -4.190  -4.383   2.957  0.00  0.00    -0.263 NA
ATOM     34  C   UNL     1      -3.624  -5.407   2.348  0.00  0.00    +0.115 A 
ENDBRANCH  28  29
ENDBRANCH  27  28
BRANCH  27  35
ATOM     35  C   UNL     1      -0.440  -8.986   2.458  0.00  0.00    +0.160 C 
BRANCH  35  36
ATOM     36  C   UNL     1       0.623  -9.262   3.490  0.00  0.00    +0.119 A 
ATOM     37  C   UNL     1       0.409  -9.710   4.740  0.00  0.00    +0.046 A 
ATOM     38  C   UNL     1       1.677  -9.828   5.355  0.00  0.00    +0.041 A 
ATOM     39  C   UNL     1       2.589  -9.445   4.444  0.00  0.00    +0.195 A 
ATOM     40  O   UNL     1       1.946  -9.109   3.314  0.00  0.00    -0.467 OA
ENDBRANCH  35  36
ENDBRANCH  27  35
ENDBRANCH   1  27
TORSDOF 8
