REMARK  Name = ZINC16661524
REMARK  6 active torsions:
REMARK  status: ('A' for Active; 'I' for Inactive)
REMARK    1  A    between atoms: C_1  and  C_2
REMARK    2  A    between atoms: C_5  and  N_9
REMARK    3  A    between atoms: N_9  and  S_10
REMARK    4  A    between atoms: S_10  and  C_13
REMARK    5  A    between atoms: C_16  and  N_19
REMARK    6  A    between atoms: C_22  and  C_28
REMARK                            x       y       z     vdW  Elec       q    Type
REMARK                         _______ _______ _______ _____ _____    ______ ____
ROOT
ATOM      1  C   UNL     1       1.958   2.026  -1.800  0.00  0.00    +0.109 A 
ATOM      2  C   UNL     1       2.811   0.980  -2.098  0.00  0.00    +0.030 A 
ATOM      3  C   UNL     1       3.254   0.796  -3.393  0.00  0.00    +0.027 A 
ATOM      4  C   UNL     1       2.850   1.670  -4.394  0.00  0.00    +0.059 A 
ATOM      5  C   UNL     1       1.998   2.723  -4.090  0.00  0.00    +0.027 A 
ATOM      6  C   UNL     1       1.554   2.898  -2.794  0.00  0.00    +0.030 A 
ENDROOT
BRANCH   4   7
ATOM      7  N   UNL     1       3.303   1.490  -5.706  0.00  0.00    -0.144 N 
ATOM      8  C   UNL     1       2.679   1.904  -6.819  0.00  0.00    +0.243 C 
ATOM      9  O   UNL     1       1.638   2.522  -6.754  0.00  0.00    -0.273 OA
ATOM     10  C   UNL     1       3.301   1.589  -8.146  0.00  0.00    +0.097 C 
ATOM     11  C   UNL     1       4.796   1.240  -7.925  0.00  0.00    +0.201 C 
ATOM     12  S   UNL     1       4.713   0.714  -6.164  0.00  0.00    +0.053 S 
ATOM     13  O   UNL     1       5.750   1.320  -5.404  0.00  0.00    -0.155 OA
ATOM     14  O   UNL     1       4.438  -0.677  -6.063  0.00  0.00    -0.155 OA
ATOM     15  C   UNL     1       3.187   2.801  -9.073  0.00  0.00    +0.019 C 
ENDBRANCH   4   7
BRANCH   1  16
ATOM     16  S   UNL     1       1.389   2.253  -0.147  0.00  0.00    +0.072 S 
ATOM     17  O   UNL     1       1.042   3.626  -0.022  0.00  0.00    -0.150 OA
ATOM     18  O   UNL     1       2.344   1.629   0.700  0.00  0.00    -0.150 OA
BRANCH  16  19
ATOM     19  N   UNL     1      -0.017   1.393   0.010  0.00  0.00    -0.215 N 
ATOM     20  H   UNL     1      -0.843   1.850   0.234  0.00  0.00    +0.174 HD
BRANCH  19  25
ATOM     21  C   UNL     1      -0.008  -4.222  -0.790  0.00  0.00    +0.044 C 
ATOM     22  C   UNL     1      -0.011  -2.730  -0.577  0.00  0.00    -0.049 A 
ATOM     23  C   UNL     1       1.077  -2.116   0.016  0.00  0.00    +0.005 A 
ATOM     24  C   UNL     1       1.080  -0.748   0.208  0.00  0.00    +0.026 A 
ATOM     25  C   UNL     1      -0.015   0.010  -0.187  0.00  0.00    +0.062 A 
ATOM     26  C   UNL     1      -1.107  -0.611  -0.782  0.00  0.00    +0.040 A 
ATOM     27  C   UNL     1      -1.101  -1.979  -0.975  0.00  0.00    +0.020 A 
ATOM     28 BR   UNL     1      -2.598   0.417  -1.328  0.00  0.00    -0.048 Br
ENDBRANCH  19  25
ENDBRANCH  16  19
ENDBRANCH   1  16
TORSDOF 4
