REMARK  Name = ZINC38650521
REMARK  14 active torsions:
REMARK  status: ('A' for Active; 'I' for Inactive)
REMARK    1  A    between atoms: C_1  and  C_2
REMARK    2  A    between atoms: C_2  and  O_3
REMARK    3  A    between atoms: O_3  and  C_4
REMARK    4  A    between atoms: C_9  and  C_10
REMARK    5  A    between atoms: C_15  and  O_24
REMARK    6  A    between atoms: C_19  and  N_23
REMARK    7  A    between atoms: C_20  and  C_21
REMARK    8  A    between atoms: O_24  and  C_25
REMARK    9  A    between atoms: C_25  and  C_27
REMARK   10  A    between atoms: C_30  and  O_33
REMARK   11  A    between atoms: O_33  and  C_34
REMARK   12  A    between atoms: C_34  and  C_35
REMARK   13  A    between atoms: C_35  and  C_36
REMARK   14  A    between atoms: C_35  and  C_37
REMARK                            x       y       z     vdW  Elec       q    Type
REMARK                         _______ _______ _______ _____ _____    ______ ____
ROOT
ATOM      1  C   UNL     1       2.060  -1.429   3.377  0.00  0.00    +0.101 C 
ATOM      2  C   UNL     1       3.544  -1.665   3.476  0.00  0.00    +0.008 A 
ATOM      3  C   UNL     1       4.370  -1.239   2.451  0.00  0.00    +0.012 A 
ATOM      4  C   UNL     1       5.733  -1.447   2.525  0.00  0.00    +0.047 A 
ATOM      5  C   UNL     1       6.279  -2.084   3.630  0.00  0.00    +0.135 A 
ATOM      6  C   UNL     1       5.454  -2.512   4.658  0.00  0.00    +0.093 A 
ATOM      7  C   UNL     1       4.083  -2.302   4.582  0.00  0.00    +0.138 A 
ATOM      8  O   UNL     1       3.290  -2.726   5.596  0.00  0.00    -0.441 OA
ATOM      9  C   UNL     1       2.057  -2.213   5.742  0.00  0.00    +0.199 C 
ATOM     10  C   UNL     1       1.420  -1.587   4.727  0.00  0.00    +0.098 C 
ENDROOT
BRANCH   1  16
ATOM     11  C   UNL     1       0.802  -1.985   1.280  0.00  0.00    +0.125 A 
ATOM     12  C   UNL     1       0.254  -2.906   0.398  0.00  0.00    +0.046 A 
ATOM     13  C   UNL     1       0.359  -4.258   0.660  0.00  0.00    +0.004 A 
ATOM     14  C   UNL     1       1.010  -4.695   1.799  0.00  0.00    +0.001 A 
ATOM     15  C   UNL     1       1.556  -3.779   2.680  0.00  0.00    +0.008 A 
ATOM     16  C   UNL     1       1.459  -2.426   2.420  0.00  0.00    +0.007 A 
BRANCH  11  17
ATOM     17  O   UNL     1       0.700  -0.654   1.025  0.00  0.00    -0.492 OA
BRANCH  17  19
ATOM     18  C   UNL     1      -0.003   1.252  -0.284  0.00  0.00    +0.048 C 
ATOM     19  C   UNL     1       0.010  -0.273  -0.167  0.00  0.00    +0.225 C 
ENDBRANCH  17  19
ENDBRANCH  11  17
ENDBRANCH   1  16
BRANCH   9  20
ATOM     20  N   UNL     1       1.426  -2.329   6.955  0.00  0.00    -0.328 N 
ATOM     21  H   UNL     1       1.870  -2.777   7.692  0.00  0.00    +0.145 HD
ATOM     22  H   UNL     1       0.535  -1.964   7.076  0.00  0.00    +0.145 HD
ENDBRANCH   9  20
BRANCH  10  23
ATOM     23  C   UNL     1       0.106  -1.063   4.947  0.00  0.00    +0.101 C 
ATOM     24  N   UNL     1      -0.937  -0.647   5.122  0.00  0.00    -0.191 NA
ENDBRANCH  10  23
BRANCH   5  25
ATOM     25  O   UNL     1       7.621  -2.289   3.704  0.00  0.00    -0.422 OA
BRANCH  25  26
ATOM     26  C   UNL     1       8.417  -1.215   3.871  0.00  0.00    +0.344 C 
ATOM     27  O   UNL     1       7.926  -0.118   4.056  0.00  0.00    -0.245 OA
BRANCH  26  28
ATOM     28  C   UNL     1       9.883  -1.370   3.831  0.00  0.00    +0.060 A 
ATOM     29  C   UNL     1      10.448  -2.630   3.613  0.00  0.00    +0.018 A 
ATOM     30  C   UNL     1      11.818  -2.770   3.575  0.00  0.00    +0.046 A 
ATOM     31  C   UNL     1      12.637  -1.661   3.753  0.00  0.00    +0.121 A 
ATOM     32  C   UNL     1      12.078  -0.407   3.970  0.00  0.00    +0.046 A 
ATOM     33  C   UNL     1      10.710  -0.257   4.004  0.00  0.00    +0.018 A 
BRANCH  31  34
ATOM     34  O   UNL     1      13.986  -1.804   3.715  0.00  0.00    -0.492 OA
BRANCH  34  35
ATOM     35  C   UNL     1      14.769  -0.623   3.905  0.00  0.00    +0.232 C 
BRANCH  35  36
ATOM     36  C   UNL     1      16.255  -0.979   3.830  0.00  0.00    +0.020 C 
ATOM     37  C   UNL     1      17.090   0.300   3.909  0.00  0.00    +0.010 C 
ATOM     38  C   UNL     1      16.619  -1.899   4.997  0.00  0.00    +0.010 C 
ENDBRANCH  35  36
ENDBRANCH  34  35
ENDBRANCH  31  34
ENDBRANCH  26  28
ENDBRANCH  25  26
ENDBRANCH   5  25
TORSDOF 11
