REMARK  Name = ZINC12776555
REMARK  9 active torsions:
REMARK  status: ('A' for Active; 'I' for Inactive)
REMARK    1  A    between atoms: C_1  and  C_2
REMARK    2  A    between atoms: C_2  and  C_4
REMARK    3  A    between atoms: C_2  and  N_17
REMARK    4  A    between atoms: N_6  and  C_7
REMARK    5  A    between atoms: C_18  and  C_20
REMARK    6  A    between atoms: C_32  and  C_34
REMARK    7  A    between atoms: C_32  and  C_35
REMARK    8  A    between atoms: C_37  and  C_39
REMARK    9  A    between atoms: C_37  and  C_40
REMARK                            x       y       z     vdW  Elec       q    Type
REMARK                         _______ _______ _______ _____ _____    ______ ____
ROOT
ATOM      1  N   UNL     1       0.140  -2.870  -1.886  0.00  0.00    -0.302 N 
ATOM      2  C   UNL     1       0.583  -2.693  -0.625  0.00  0.00    +0.245 C 
ATOM      3  O   UNL     1       0.086  -3.322   0.285  0.00  0.00    -0.273 OA
ATOM      4  H   UNL     1       0.538  -2.367  -2.614  0.00  0.00    +0.150 HD
ENDROOT
BRANCH   2   5
ATOM      5  C   UNL     1       1.696  -1.715  -0.347  0.00  0.00    +0.238 C 
ATOM      6  C   UNL     1       1.223  -0.315  -0.668  0.00  0.00    +0.191 C 
ATOM      7  C   UNL     1       2.189   0.775  -0.185  0.00  0.00    +0.187 C 
ATOM      8  C   UNL     1       2.808   0.481   1.164  0.00  0.00    +0.209 C 
ATOM      9  C   UNL     1       3.197  -0.993   1.369  0.00  0.00    +0.286 C 
ATOM     10  O   UNL     1       2.083  -1.824   1.019  0.00  0.00    -0.333 OA
ATOM     11  O   UNL     1       3.315  -1.057   2.816  0.00  0.00    -0.318 OA
ATOM     12  C   UNL     1       2.369  -0.107   3.333  0.00  0.00    +0.168 C 
ATOM     13  O   UNL     1       1.927   0.745   2.262  0.00  0.00    -0.338 OA
ATOM     14  C   UNL     1       1.168  -0.842   3.934  0.00  0.00    +0.074 C 
ATOM     15  C   UNL     1       3.037   0.743   4.417  0.00  0.00    +0.074 C 
ATOM     16  O   UNL     1       1.322   1.929  -0.027  0.00  0.00    -0.341 OA
ATOM     17  C   UNL     1      -0.032   1.459  -0.021  0.00  0.00    +0.166 C 
ATOM     18  O   UNL     1      -0.014   0.019  -0.020  0.00  0.00    -0.340 OA
ATOM     19  C   UNL     1      -0.759   1.958  -1.274  0.00  0.00    +0.074 C 
ATOM     20  C   UNL     1      -0.764   1.966   1.223  0.00  0.00    +0.074 C 
ENDBRANCH   2   5
BRANCH   1  22
ATOM     21  C   UNL     1      -2.291  -3.134  -1.935  0.00  0.00    +0.038 C 
ATOM     22  C   UNL     1      -0.941  -3.820  -2.156  0.00  0.00    +0.156 C 
BRANCH  22  23
ATOM     23  C   UNL     1      -0.847  -4.295  -3.584  0.00  0.00    +0.237 C 
ATOM     24  O   UNL     1       0.036  -3.880  -4.304  0.00  0.00    -0.273 OA
ATOM     25  N   UNL     1      -1.745  -5.181  -4.060  0.00  0.00    -0.283 N 
ATOM     26  H   UNL     1      -2.402  -5.573  -3.464  0.00  0.00    +0.155 HD
BRANCH  25  27
ATOM     27  C   UNL     1      -1.729  -5.533  -5.410  0.00  0.00    +0.041 A 
ATOM     28  C   UNL     1      -1.200  -4.672  -6.347  0.00  0.00    +0.024 A 
ATOM     29  C   UNL     1      -1.179  -5.013  -7.696  0.00  0.00    +0.002 A 
ATOM     30  C   UNL     1      -1.680  -6.204  -8.128  0.00  0.00    +0.008 A 
ATOM     31  C   UNL     1      -2.228  -7.111  -7.205  0.00  0.00    -0.016 A 
ATOM     32  C   UNL     1      -2.250  -6.776  -5.828  0.00  0.00    +0.003 A 
ATOM     33  C   UNL     1      -2.801  -7.681  -4.907  0.00  0.00    +0.010 A 
ATOM     34  C   UNL     1      -3.300  -8.870  -5.346  0.00  0.00    +0.001 A 
ATOM     35  C   UNL     1      -3.275  -9.201  -6.700  0.00  0.00    +0.001 A 
ATOM     36  C   UNL     1      -2.751  -8.347  -7.621  0.00  0.00    +0.008 A 
ENDBRANCH  25  27
ENDBRANCH  22  23
ENDBRANCH   1  22
TORSDOF 4
