REMARK  Name = ZINC41585980
REMARK  9 active torsions:
REMARK  status: ('A' for Active; 'I' for Inactive)
REMARK    1  A    between atoms: C_1  and  C_2
REMARK    2  A    between atoms: C_2  and  O_3
REMARK    3  A    between atoms: O_3  and  C_4
REMARK    4  A    between atoms: C_9  and  O_10
REMARK    5  A    between atoms: O_10  and  C_11
REMARK    6  A    between atoms: C_12  and  C_36
REMARK    7  A    between atoms: C_20  and  O_35
REMARK    8  A    between atoms: C_21  and  C_22
REMARK    9  A    between atoms: C_22  and  N_23
REMARK                            x       y       z     vdW  Elec       q    Type
REMARK                         _______ _______ _______ _____ _____    ______ ____
ROOT
ATOM      1  C   UNL     1      -5.143  -2.079   0.087  0.00  0.00    +0.213 A 
ATOM      2  C   UNL     1      -5.339  -3.409   0.174  0.00  0.00    +0.148 A 
ATOM      3  O   UNL     1      -6.559  -3.960   0.222  0.00  0.00    -0.456 OA
ATOM      4  C   UNL     1      -7.687  -3.222   0.187  0.00  0.00    +0.147 A 
ATOM      5  C   UNL     1      -7.602  -1.821   0.097  0.00  0.00    +0.068 A 
ATOM      6  C   UNL     1      -6.266  -1.204   0.049  0.00  0.00    +0.235 A 
ATOM      7  O   UNL     1      -6.127   0.005  -0.024  0.00  0.00    -0.283 OA
ATOM      8  C   UNL     1      -8.763  -1.047   0.061  0.00  0.00    +0.019 A 
ATOM      9  C   UNL     1      -9.984  -1.655   0.113  0.00  0.00    +0.046 A 
ATOM     10  C   UNL     1     -10.078  -3.043   0.203  0.00  0.00    +0.125 A 
ATOM     11  C   UNL     1      -8.936  -3.825   0.239  0.00  0.00    +0.051 A 
ATOM     12  C   UNL     1      -4.135  -4.316   0.218  0.00  0.00    +0.090 C 
ENDROOT
BRANCH  10  13
ATOM     13  O   UNL     1     -11.299  -3.633   0.254  0.00  0.00    -0.506 OA
ATOM     14  H   UNL     1     -11.663  -3.860  -0.613  0.00  0.00    +0.292 HD
ENDBRANCH  10  13
BRANCH   1  15
ATOM     15  O   UNL     1      -3.879  -1.574   0.042  0.00  0.00    -0.445 OA
BRANCH  15  21
ATOM     16  C   UNL     1      -2.238  -0.332  -1.160  0.00  0.00    +0.163 A 
ATOM     17  C   UNL     1      -1.827   0.278  -2.334  0.00  0.00    +0.049 A 
ATOM     18  C   UNL     1      -2.646   0.257  -3.448  0.00  0.00    +0.004 A 
ATOM     19  C   UNL     1      -3.877  -0.372  -3.393  0.00  0.00    +0.004 A 
ATOM     20  C   UNL     1      -4.293  -0.982  -2.224  0.00  0.00    +0.050 A 
ATOM     21  C   UNL     1      -3.474  -0.970  -1.106  0.00  0.00    +0.170 A 
BRANCH  16  22
ATOM     22  O   UNL     1      -1.433  -0.313  -0.064  0.00  0.00    -0.489 OA
BRANCH  22  24
ATOM     23  C   UNL     1       0.583   0.277   1.132  0.00  0.00    +0.048 C 
ATOM     24  C   UNL     1      -0.178   0.360  -0.193  0.00  0.00    +0.226 C 
ENDBRANCH  22  24
ENDBRANCH  16  22
ENDBRANCH  15  21
ENDBRANCH   1  15
BRANCH  11  25
ATOM     25  C   UNL     1      -9.049  -5.325   0.335  0.00  0.00    +0.127 C 
BRANCH  25  26
ATOM     26  N   UNL     1      -9.070  -5.724   1.748  0.00  0.00    -0.295 NA
ATOM     27  C   UNL     1     -10.282  -5.232   2.417  0.00  0.00    +0.103 C 
ATOM     28  C   UNL     1     -10.181  -5.511   3.920  0.00  0.00    +0.122 C 
ATOM     29  N   UNL     1      -9.903  -6.942   4.112  0.00  0.00    -0.314 N 
ATOM     30  C   UNL     1      -8.785  -7.540   3.367  0.00  0.00    +0.122 C 
ATOM     31  C   UNL     1      -8.941  -7.181   1.885  0.00  0.00    +0.103 C 
ATOM     32  C   UNL     1     -10.677  -7.710   4.975  0.00  0.00    +0.099 A 
ATOM     33  C   UNL     1     -10.468  -9.083   5.052  0.00  0.00    +0.042 A 
ATOM     34  C   UNL     1     -11.245  -9.835   5.914  0.00  0.00    +0.005 A 
ATOM     35  C   UNL     1     -12.209  -9.185   6.674  0.00  0.00    +0.018 A 
ATOM     36  C   UNL     1     -12.362  -7.819   6.548  0.00  0.00    +0.084 A 
ATOM     37  N   UNL     1     -11.603  -7.127   5.720  0.00  0.00    -0.350 N 
ATOM     38  H   UNL     1     -11.729  -6.167   5.654  0.00  0.00    +0.166 HD
ENDBRANCH  25  26
ENDBRANCH  11  25
TORSDOF 7
