REMARK  Name = ZINC13031655
REMARK  12 active torsions:
REMARK  status: ('A' for Active; 'I' for Inactive)
REMARK    1  A    between atoms: C_1  and  C_2
REMARK    2  A    between atoms: C_2  and  C_3
REMARK    3  A    between atoms: C_2  and  C_4
REMARK    4  A    between atoms: C_4  and  C_5
REMARK    5  A    between atoms: C_5  and  N_6
REMARK    6  A    between atoms: C_7  and  C_9
REMARK    7  A    between atoms: C_9  and  C_11
REMARK    8  A    between atoms: C_9  and  N_16
REMARK    9  A    between atoms: N_16  and  C_17
REMARK   10  A    between atoms: C_17  and  C_18
REMARK   11  A    between atoms: C_27  and  C_29
REMARK   12  A    between atoms: C_29  and  N_30
REMARK                            x       y       z     vdW  Elec       q    Type
REMARK                         _______ _______ _______ _____ _____    ______ ____
ROOT
ATOM      1  N   UNL     1      -5.830   3.099  -1.472  0.00  0.00    -0.280 N 
ATOM      2  C   UNL     1      -4.659   2.515  -1.150  0.00  0.00    +0.238 C 
ATOM      3  O   UNL     1      -3.639   2.850  -1.716  0.00  0.00    -0.274 OA
ENDROOT
BRANCH   1   4
ATOM      4  C   UNL     1      -5.889   4.065  -2.572  0.00  0.00    +0.199 C 
BRANCH   4   5
ATOM      5  C   UNL     1      -7.020   3.701  -3.499  0.00  0.00    +0.019 A 
ATOM      6  C   UNL     1      -6.980   3.426  -4.826  0.00  0.00    +0.013 A 
ATOM      7  C   UNL     1      -8.156   3.113  -5.481  0.00  0.00    +0.008 A 
ATOM      8  C   UNL     1      -9.315   3.090  -4.777  0.00  0.00    +0.045 A 
ATOM      9  S   UNL     1      -8.757   3.513  -3.135  0.00  0.00    -0.099 S 
ENDBRANCH   4   5
BRANCH   4  11
ATOM     10  N   UNL     1      -6.713   6.389  -2.775  0.00  0.00    -0.313 N 
ATOM     11  C   UNL     1      -6.121   5.446  -2.015  0.00  0.00    +0.239 C 
ATOM     12  O   UNL     1      -5.775   5.710  -0.883  0.00  0.00    -0.273 OA
ATOM     13  H   UNL     1      -6.990   6.178  -3.680  0.00  0.00    +0.149 HD
BRANCH  10  14
ATOM     14  C   UNL     1      -6.939   7.731  -2.233  0.00  0.00    +0.104 C 
BRANCH  14  15
ATOM     15  C   UNL     1      -7.621   8.600  -3.292  0.00  0.00    +0.022 C 
BRANCH  15  17
ATOM     16  C   UNL     1      -6.510  10.676  -2.456  0.00  0.00    +0.007 C 
ATOM     17  C   UNL     1      -7.856  10.002  -2.726  0.00  0.00    -0.016 C 
ATOM     18  C   UNL     1      -8.649  10.833  -3.737  0.00  0.00    +0.007 C 
ENDBRANCH  15  17
ENDBRANCH  14  15
ENDBRANCH  10  14
ENDBRANCH   4  11
ENDBRANCH   1   4
BRANCH   1  19
ATOM     19  C   UNL     1      -7.044   2.767  -0.722  0.00  0.00    +0.144 C 
BRANCH  19  20
ATOM     20  C   UNL     1      -7.229   3.758   0.398  0.00  0.00    -0.026 A 
ATOM     21  C   UNL     1      -6.522   3.607   1.576  0.00  0.00    +0.009 A 
ATOM     22  C   UNL     1      -6.684   4.516   2.605  0.00  0.00    +0.050 A 
ATOM     23  C   UNL     1      -7.566   5.575   2.461  0.00  0.00    +0.166 A 
ATOM     24  C   UNL     1      -8.282   5.724   1.276  0.00  0.00    +0.167 A 
ATOM     25  C   UNL     1      -8.110   4.812   0.247  0.00  0.00    +0.054 A 
ATOM     26  O   UNL     1      -9.074   6.831   1.381  0.00  0.00    -0.453 OA
ATOM     27  C   UNL     1      -9.140   7.124   2.789  0.00  0.00    +0.466 C 
ATOM     28  O   UNL     1      -7.909   6.589   3.308  0.00  0.00    -0.453 OA
ENDBRANCH  19  20
ENDBRANCH   1  19
BRANCH   2  29
ATOM     29  C   UNL     1      -4.615   1.447  -0.088  0.00  0.00    +0.241 C 
BRANCH  29  30
ATOM     30  N   UNL     1      -3.347   0.719  -0.179  0.00  0.00    -0.235 N 
ATOM     31  C   UNL     1      -3.096  -0.405  -0.930  0.00  0.00    +0.090 A 
ATOM     32  C   UNL     1      -3.861  -1.182  -1.793  0.00  0.00    +0.029 A 
ATOM     33  C   UNL     1      -3.304  -2.271  -2.401  0.00  0.00    +0.002 A 
ATOM     34  C   UNL     1      -1.974  -2.604  -2.175  0.00  0.00    +0.002 A 
ATOM     35  C   UNL     1      -1.201  -1.855  -1.337  0.00  0.00    +0.032 A 
ATOM     36  C   UNL     1      -1.750  -0.736  -0.696  0.00  0.00    +0.113 A 
ATOM     37  N   UNL     1      -1.248   0.173   0.164  0.00  0.00    -0.129 NA
ATOM     38  N   UNL     1      -2.151   1.032   0.483  0.00  0.00    -0.064 NA
ENDBRANCH  29  30
ENDBRANCH   2  29
TORSDOF 10
