REMARK  Name = ZINC36207678
REMARK  13 active torsions:
REMARK  status: ('A' for Active; 'I' for Inactive)
REMARK    1  A    between atoms: C_1  and  C_2
REMARK    2  A    between atoms: C_7  and  C_8
REMARK    3  A    between atoms: C_17  and  C_19
REMARK    4  A    between atoms: C_19  and  N_20
REMARK    5  A    between atoms: N_20  and  C_21
REMARK    6  A    between atoms: N_20  and  C_35
REMARK    7  A    between atoms: C_21  and  C_22
REMARK    8  A    between atoms: C_22  and  C_24
REMARK    9  A    between atoms: C_22  and  O_34
REMARK   10  A    between atoms: C_24  and  O_25
REMARK   11  A    between atoms: O_25  and  C_26
REMARK   12  A    between atoms: C_29  and  O_32
REMARK   13  A    between atoms: O_32  and  C_33
REMARK                            x       y       z     vdW  Elec       q    Type
REMARK                         _______ _______ _______ _____ _____    ______ ____
ROOT
ATOM      1  C   UNL     1      -4.146   3.326   4.567  0.00  0.00    -0.003 C 
ENDROOT
BRANCH   1  11
ATOM      2  C   UNL     1      -4.449   7.795   1.042  0.00  0.00    +0.004 A 
ATOM      3  C   UNL     1      -3.875   8.906   1.563  0.00  0.00    +0.056 A 
ATOM      4  S   UNL     1      -3.292   8.361   3.156  0.00  0.00    -0.076 S 
ATOM      5  C   UNL     1      -3.825   6.670   3.087  0.00  0.00    +0.116 A 
ATOM      6  C   UNL     1      -4.449   6.569   1.832  0.00  0.00    +0.080 A 
ATOM      7  C   UNL     1      -4.987   5.283   1.509  0.00  0.00    +0.260 A 
ATOM      8  O   UNL     1      -5.543   5.096   0.441  0.00  0.00    -0.267 OA
ATOM      9  N   UNL     1      -4.870   4.284   2.403  0.00  0.00    -0.312 N 
ATOM     10  H   UNL     1      -5.234   3.410   2.190  0.00  0.00    +0.170 HD
ATOM     11  C   UNL     1      -4.254   4.474   3.597  0.00  0.00    +0.094 A 
ATOM     12  N   UNL     1      -3.744   5.634   3.917  0.00  0.00    -0.229 NA
BRANCH   2  19
ATOM     13  C   UNL     1      -7.302   7.401   0.771  0.00  0.00    +0.044 C 
ATOM     14  C   UNL     1      -6.444   7.637  -0.445  0.00  0.00    -0.043 A 
ATOM     15  C   UNL     1      -7.017   7.672  -1.700  0.00  0.00    +0.004 A 
ATOM     16  C   UNL     1      -6.230   7.888  -2.817  0.00  0.00    +0.000 A 
ATOM     17  C   UNL     1      -4.865   8.070  -2.684  0.00  0.00    +0.001 A 
ATOM     18  C   UNL     1      -4.281   8.036  -1.434  0.00  0.00    +0.009 A 
ATOM     19  C   UNL     1      -5.070   7.825  -0.304  0.00  0.00    -0.014 A 
ENDBRANCH   2  19
ENDBRANCH   1  11
BRANCH   1  20
ATOM     20  N   UNL     1      -3.570   3.804   5.831  0.00  0.00    +0.388 N 
ATOM     21  H   UNL     1      -2.701   4.282   5.645  0.00  0.00    -0.081 HD
BRANCH  20  22
ATOM     22  C   UNL     1      -3.320   2.661   6.719  0.00  0.00    -0.068 C 
ATOM     23  C   UNL     1      -1.968   2.605   7.434  0.00  0.00    -0.017 C 
ATOM     24  C   UNL     1      -2.264   1.644   6.280  0.00  0.00    -0.017 C 
ENDBRANCH  20  22
BRANCH  20  25
ATOM     25  C   UNL     1      -4.510   4.730   6.478  0.00  0.00    -0.043 C 
BRANCH  25  26
ATOM     26  C   UNL     1      -3.860   5.324   7.729  0.00  0.00    +0.135 C 
BRANCH  26  27
ATOM     27  O   UNL     1      -2.740   6.126   7.349  0.00  0.00    -0.390 OA
ATOM     28  H   UNL     1      -2.965   6.864   6.767  0.00  0.00    +0.210 HD
ENDBRANCH  26  27
BRANCH  26  29
ATOM     29  C   UNL     1      -4.880   6.190   8.471  0.00  0.00    +0.258 C 
BRANCH  29  30
ATOM     30  O   UNL     1      -4.311   6.651   9.698  0.00  0.00    -0.489 OA
BRANCH  30  31
ATOM     31  C   UNL     1      -5.093   7.439  10.483  0.00  0.00    +0.121 A 
ATOM     32  C   UNL     1      -6.381   7.758  10.082  0.00  0.00    +0.049 A 
ATOM     33  C   UNL     1      -7.175   8.559  10.880  0.00  0.00    +0.049 A 
ATOM     34  C   UNL     1      -6.684   9.044  12.082  0.00  0.00    +0.120 A 
ATOM     35  C   UNL     1      -5.395   8.725  12.484  0.00  0.00    +0.049 A 
ATOM     36  C   UNL     1      -4.603   7.921  11.688  0.00  0.00    +0.049 A 
BRANCH  34  37
ATOM     37  O   UNL     1      -7.465   9.834  12.867  0.00  0.00    -0.495 OA
ATOM     38  C   UNL     1      -6.894  10.299  14.092  0.00  0.00    +0.277 C 
ENDBRANCH  34  37
ENDBRANCH  30  31
ENDBRANCH  29  30
ENDBRANCH  26  29
ENDBRANCH  25  26
ENDBRANCH  20  25
ENDBRANCH   1  20
TORSDOF 11
