REMARK  Name = ZINC40062532
REMARK  8 active torsions:
REMARK  status: ('A' for Active; 'I' for Inactive)
REMARK    1  A    between atoms: C_1  and  C_2
REMARK    2  A    between atoms: C_7  and  C_8
REMARK    3  A    between atoms: C_11  and  C_12
REMARK    4  A    between atoms: N_14  and  C_26
REMARK    5  A    between atoms: C_16  and  C_17
REMARK    6  A    between atoms: C_18  and  C_25
REMARK    7  A    between atoms: C_20  and  C_24
REMARK    8  A    between atoms: C_22  and  C_23
REMARK                            x       y       z     vdW  Elec       q    Type
REMARK                         _______ _______ _______ _____ _____    ______ ____
ROOT
ATOM      1  C   UNL     1      -0.138  -5.282   4.636  0.00  0.00    +0.024 A 
ATOM      2  C   UNL     1      -0.325  -4.266   5.556  0.00  0.00    +0.123 A 
ATOM      3  N   UNL     1      -0.624  -4.834   6.739  0.00  0.00    -0.239 N 
ATOM      4  N   UNL     1      -0.637  -6.225   6.604  0.00  0.00    -0.166 NA
ATOM      5  C   UNL     1      -0.357  -6.541   5.360  0.00  0.00    +0.101 A 
ENDROOT
BRANCH   1  16
ATOM      6  C   UNL     1      -1.145   1.866   1.548  0.00  0.00    +0.044 C 
ATOM      7  C   UNL     1      -0.731   0.426   1.384  0.00  0.00    -0.044 A 
ATOM      8  C   UNL     1      -0.284  -0.023   0.151  0.00  0.00    +0.004 A 
ATOM      9  C   UNL     1       0.097  -1.337  -0.010  0.00  0.00    +0.016 A 
ATOM     10  C   UNL     1       0.030  -2.212   1.072  0.00  0.00    +0.068 A 
ATOM     11  C   UNL     1      -0.421  -1.761   2.321  0.00  0.00    +0.143 A 
ATOM     12  C   UNL     1      -0.795  -0.429   2.464  0.00  0.00    -0.005 A 
ATOM     13  C   UNL     1      -1.278   0.078   3.798  0.00  0.00    +0.048 C 
ATOM     14  O   UNL     1      -0.392  -2.791   3.194  0.00  0.00    -0.451 OA
ATOM     15  C   UNL     1       0.057  -3.925   2.608  0.00  0.00    +0.176 C 
ATOM     16  C   UNL     1       0.203  -5.132   3.218  0.00  0.00    +0.061 C 
ATOM     17  C   UNL     1       0.351  -3.642   1.245  0.00  0.00    +0.231 C 
ATOM     18  O   UNL     1       0.775  -4.413   0.402  0.00  0.00    -0.283 OA
ENDBRANCH   1  16
BRANCH   5  19
ATOM     19  C   UNL     1      -0.274  -7.909   4.795  0.00  0.00    +0.009 A 
ATOM     20  C   UNL     1       0.577  -8.852   5.370  0.00  0.00    -0.041 A 
ATOM     21  C   UNL     1       0.650 -10.124   4.840  0.00  0.00    +0.007 A 
ATOM     22  C   UNL     1      -0.118 -10.464   3.741  0.00  0.00    -0.050 A 
ATOM     23  C   UNL     1      -0.964  -9.532   3.167  0.00  0.00    +0.007 A 
ATOM     24  C   UNL     1      -1.050  -8.258   3.692  0.00  0.00    -0.041 A 
ATOM     25  C   UNL     1      -1.977  -7.247   3.069  0.00  0.00    +0.044 C 
ATOM     26  C   UNL     1      -0.033 -11.855   3.167  0.00  0.00    +0.044 C 
ATOM     27  C   UNL     1       1.415  -8.483   6.566  0.00  0.00    +0.044 C 
ENDBRANCH   5  19
BRANCH   3  28
ATOM     28  C   UNL     1      -0.884  -4.136   7.926  0.00  0.00    +0.065 A 
ATOM     29  C   UNL     1      -0.848  -2.748   7.939  0.00  0.00    +0.028 A 
ATOM     30  C   UNL     1      -1.105  -2.063   9.110  0.00  0.00    +0.002 A 
ATOM     31  C   UNL     1      -1.397  -2.758  10.269  0.00  0.00    +0.000 A 
ATOM     32  C   UNL     1      -1.433  -4.140  10.260  0.00  0.00    +0.002 A 
ATOM     33  C   UNL     1      -1.183  -4.831   9.090  0.00  0.00    +0.028 A 
ENDBRANCH   3  28
TORSDOF 3
