REMARK  Name = ZINC13784755
REMARK  2 active torsions:
REMARK  status: ('A' for Active; 'I' for Inactive)
REMARK    1  A    between atoms: C_1  and  C_17
REMARK    2  A    between atoms: C_3  and  C_15
REMARK                            x       y       z     vdW  Elec       q    Type
REMARK                         _______ _______ _______ _____ _____    ______ ____
ROOT
ATOM      1  C   UNL     1      -1.329   1.940   0.019  0.00  0.00    +0.150 C 
ATOM      2  C   UNL     1      -1.534   2.717  -1.306  0.00  0.00    +0.150 C 
ATOM      3  C   UNL     1      -2.819   2.060  -1.896  0.00  0.00    +0.165 C 
ATOM      4  C   UNL     1      -3.990   2.578  -1.009  0.00  0.00    +0.180 C 
ATOM      5  C   UNL     1      -3.785   1.801   0.317  0.00  0.00    +0.180 C 
ATOM      6  C   UNL     1      -2.523   0.938   0.019  0.00  0.00    +0.165 C 
ATOM      7  O   UNL     1      -2.682   0.683  -1.415  0.00  0.00    -0.366 OA
ATOM      8  O   UNL     1      -3.643   3.219   0.220  0.00  0.00    -0.363 OA
ENDROOT
BRANCH   2   9
ATOM      9  C   UNL     1      -1.760   4.182  -1.037  0.00  0.00    +0.362 C 
ATOM     10  O   UNL     1      -2.798   4.705  -1.367  0.00  0.00    -0.246 OA
ATOM     11  O   UNL     1      -0.807   4.907  -0.430  0.00  0.00    -0.246 OA
ENDBRANCH   2   9
BRANCH   1  12
ATOM     12  C   UNL     1      -0.014   1.204   0.009  0.00  0.00    +0.362 C 
ATOM     13  O   UNL     1       0.002  -0.004   0.002  0.00  0.00    -0.246 OA
ATOM     14  O   UNL     1       1.139   1.891   0.001  0.00  0.00    -0.246 OA
ENDBRANCH   1  12
TORSDOF 2
