REMARK  Name = ZINC15675523
REMARK  7 active torsions:
REMARK  status: ('A' for Active; 'I' for Inactive)
REMARK    1  A    between atoms: C_1  and  C_2
REMARK    2  A    between atoms: C_2  and  C_4
REMARK    3  A    between atoms: C_2  and  C_30
REMARK    4  A    between atoms: C_4  and  N_5
REMARK    5  A    between atoms: C_14  and  C_15
REMARK    6  A    between atoms: C_14  and  C_16
REMARK    7  A    between atoms: N_18  and  C_19
REMARK                            x       y       z     vdW  Elec       q    Type
REMARK                         _______ _______ _______ _____ _____    ______ ____
ROOT
ATOM      1  N   UNL     1       0.958  -4.397   0.147  0.00  0.00    -0.280 N 
ATOM      2  C   UNL     1      -0.203  -3.753  -0.115  0.00  0.00    +0.264 C 
ATOM      3  O   UNL     1      -1.233  -4.358  -0.352  0.00  0.00    -0.268 OA
ATOM      4  C   UNL     1      -0.154  -2.286  -0.100  0.00  0.00    +0.109 A 
ATOM      5  C   UNL     1      -1.159  -1.364  -0.142  0.00  0.00    +0.079 A 
ATOM      6  C   UNL     1      -0.566  -0.094  -0.079  0.00  0.00    +0.153 A 
ATOM      7  C   UNL     1       0.814  -0.275   0.001  0.00  0.00    +0.088 A 
ATOM      8  N   UNL     1       1.063  -1.614  -0.023  0.00  0.00    -0.331 N 
ATOM      9  C   UNL     1       2.339  -2.336   0.008  0.00  0.00    +0.157 C 
ATOM     10  C   UNL     1       2.128  -3.699   0.665  0.00  0.00    +0.128 C 
ATOM     11  C   UNL     1       3.368  -4.561   0.419  0.00  0.00    +0.043 C 
ATOM     12  C   UNL     1       1.377   1.022   0.069  0.00  0.00    +0.067 A 
ATOM     13  C   UNL     1       0.361   1.901   0.027  0.00  0.00    +0.198 A 
ATOM     14  O   UNL     1      -0.803   1.236  -0.063  0.00  0.00    -0.461 OA
ENDROOT
BRANCH  10  15
ATOM     15  C   UNL     1       1.960  -3.503   2.150  0.00  0.00    +0.238 C 
ATOM     16  O   UNL     1       2.925  -3.556   2.882  0.00  0.00    -0.273 OA
ATOM     17  N   UNL     1       0.736  -3.269   2.664  0.00  0.00    -0.311 N 
ATOM     18  H   UNL     1      -0.036  -3.227   2.079  0.00  0.00    +0.149 HD
BRANCH  17  19
ATOM     19  C   UNL     1       0.573  -3.078   4.108  0.00  0.00    +0.073 C 
ATOM     20  C   UNL     1       0.438  -4.441   4.790  0.00  0.00    +0.022 C 
ATOM     21  C   UNL     1       0.665  -4.282   6.295  0.00  0.00    +0.002 C 
ATOM     22  C   UNL     1       1.873  -3.374   6.536  0.00  0.00    +0.000 C 
ATOM     23  C   UNL     1       1.407  -2.067   7.181  0.00  0.00    +0.000 C 
ATOM     24  C   UNL     1       0.750  -1.182   6.119  0.00  0.00    +0.000 C 
ATOM     25  C   UNL     1      -0.650  -1.714   5.806  0.00  0.00    +0.002 C 
ATOM     26  C   UNL     1      -0.685  -2.248   4.373  0.00  0.00    +0.022 C 
ENDBRANCH  17  19
ENDBRANCH  10  15
BRANCH   1  27
ATOM     27  C   UNL     1       1.041  -5.840  -0.097  0.00  0.00    +0.117 C 
BRANCH  27  29
ATOM     28  C   UNL     1      -0.670  -6.356   1.649  0.00  0.00    +0.014 C 
ATOM     29  C   UNL     1       0.776  -6.594   1.207  0.00  0.00    +0.033 C 
BRANCH  29  30
ATOM     30  C   UNL     1       0.998  -8.068   0.989  0.00  0.00    -0.043 A 
ATOM     31  C   UNL     1       0.242  -8.751   0.054  0.00  0.00    +0.004 A 
ATOM     32  C   UNL     1       0.449 -10.102  -0.149  0.00  0.00    +0.000 A 
ATOM     33  C   UNL     1       1.406 -10.773   0.589  0.00  0.00    +0.000 A 
ATOM     34  C   UNL     1       2.158 -10.092   1.528  0.00  0.00    +0.000 A 
ATOM     35  C   UNL     1       1.954  -8.740   1.727  0.00  0.00    +0.004 A 
ENDBRANCH  29  30
ENDBRANCH  27  29
ENDBRANCH   1  27
TORSDOF 5
