REMARK  Name = ZINC63473004
REMARK  4 active torsions:
REMARK  status: ('A' for Active; 'I' for Inactive)
REMARK    1  A    between atoms: C_1  and  C_2
REMARK    2  A    between atoms: C_16  and  C_19
REMARK    3  A    between atoms: C_19  and  C_20
REMARK    4  A    between atoms: N_31  and  C_34
REMARK                            x       y       z     vdW  Elec       q    Type
REMARK                         _______ _______ _______ _____ _____    ______ ____
ROOT
ATOM      1  C   UNL     1      -0.018   1.503   0.010  0.00  0.00    +0.046 C 
ATOM      2  C   UNL     1       0.002  -0.004   0.002  0.00  0.00    -0.028 A 
ATOM      3  C   UNL     1       0.006  -0.685  -1.198  0.00  0.00    +0.025 A 
ATOM      4  C   UNL     1       0.024  -2.068  -1.216  0.00  0.00    +0.042 A 
ATOM      5  C   UNL     1       0.040  -2.772  -0.023  0.00  0.00    +0.027 A 
ATOM      6  C   UNL     1       0.036  -2.096   1.176  0.00  0.00    +0.005 A 
ATOM      7  C   UNL     1       0.023  -0.704   1.205  0.00  0.00    +0.042 A 
ATOM      8  N   UNL     1       0.029  -0.249   2.526  0.00  0.00    -0.283 N 
ATOM      9  C   UNL     1       0.052  -1.263   3.413  0.00  0.00    +0.243 C 
ATOM     10  O   UNL     1       0.061  -1.168   4.622  0.00  0.00    -0.273 OA
ATOM     11  C   UNL     1       0.051  -2.537   2.612  0.00  0.00    +0.136 C 
ATOM     12  C   UNL     1      -1.157  -3.421   2.942  0.00  0.00    +0.122 C 
ATOM     13  C   UNL     1      -0.613  -4.468   3.954  0.00  0.00    +0.107 C 
ATOM     14  C   UNL     1       0.876  -4.103   4.137  0.00  0.00    +0.072 C 
ATOM     15  N   UNL     1       1.243  -3.350   2.916  0.00  0.00    -0.295 NA
ATOM     16  C   UNL     1      -1.374  -4.155   5.223  0.00  0.00    +0.227 C 
ATOM     17  O   UNL     1      -1.254  -4.745   6.275  0.00  0.00    -0.275 OA
ATOM     18  N   UNL     1      -2.200  -3.126   5.003  0.00  0.00    -0.238 N 
ATOM     19  C   UNL     1      -2.166  -2.631   3.745  0.00  0.00    +0.228 C 
ATOM     20  O   UNL     1      -2.829  -1.708   3.322  0.00  0.00    -0.275 OA
ATOM     21 CL   UNL     1       0.028  -2.919  -2.729  0.00  0.00    -0.084 Cl
ATOM     22  H   UNL     1       0.018   0.688   2.776  0.00  0.00    +0.155 HD
ATOM     23  H   UNL     1       1.450  -3.985   2.160  0.00  0.00    +0.124 HD
ENDROOT
BRANCH  18  24
ATOM     24  C   UNL     1      -3.079  -2.579   6.041  0.00  0.00    +0.084 C 
ATOM     25  C   UNL     1      -2.233  -2.080   7.214  0.00  0.00    +0.023 C 
ATOM     26  C   UNL     1      -3.150  -1.510   8.297  0.00  0.00    +0.002 C 
ATOM     27  C   UNL     1      -4.104  -2.602   8.785  0.00  0.00    +0.000 C 
ATOM     28  C   UNL     1      -4.950  -3.101   7.612  0.00  0.00    +0.002 C 
ATOM     29  C   UNL     1      -4.032  -3.672   6.528  0.00  0.00    +0.023 C 
ENDBRANCH  18  24
BRANCH  14  30
ATOM     30  C   UNL     1       1.722  -5.370   4.277  0.00  0.00    +0.052 C 
BRANCH  30  31
ATOM     31  C   UNL     1       3.149  -4.991   4.576  0.00  0.00    -0.040 C 
ATOM     32  C   UNL     1       3.731  -4.910   5.795  0.00  0.00    -0.001 A 
ATOM     33  C   UNL     1       3.227  -5.139   7.154  0.00  0.00    +0.010 A 
ATOM     34  C   UNL     1       4.066  -4.974   8.202  0.00  0.00    +0.001 A 
ATOM     35  C   UNL     1       5.402  -4.589   8.022  0.00  0.00    +0.002 A 
ATOM     36  C   UNL     1       5.937  -4.359   6.804  0.00  0.00    +0.026 A 
ATOM     37  C   UNL     1       5.145  -4.504   5.632  0.00  0.00    +0.043 A 
ATOM     38  N   UNL     1       5.427  -4.341   4.362  0.00  0.00    -0.380 N 
ATOM     39  C   UNL     1       4.224  -4.631   3.575  0.00  0.00    +0.144 C 
ATOM     40  H   UNL     1       6.289  -4.077   4.003  0.00  0.00    +0.160 HD
ENDBRANCH  30  31
ENDBRANCH  14  30
TORSDOF 3
