REMARK  Name = ZINC59374303
REMARK  11 active torsions:
REMARK  status: ('A' for Active; 'I' for Inactive)
REMARK    1  A    between atoms: C_1  and  C_2
REMARK    2  A    between atoms: C_7  and  C_8
REMARK    3  A    between atoms: C_8  and  C_10
REMARK    4  A    between atoms: C_8  and  O_16
REMARK    5  A    between atoms: O_16  and  C_17
REMARK    6  A    between atoms: C_17  and  C_18
REMARK    7  A    between atoms: C_18  and  C_20
REMARK    8  A    between atoms: C_18  and  O_35
REMARK    9  A    between atoms: C_20  and  N_21
REMARK   10  A    between atoms: C_24  and  C_26
REMARK   11  A    between atoms: C_29  and  N_32
REMARK                            x       y       z     vdW  Elec       q    Type
REMARK                         _______ _______ _______ _____ _____    ______ ____
ROOT
ATOM      1  C   UNL     1      -1.732  -1.054   5.604  0.00  0.00    +0.161 C 
ENDROOT
BRANCH   1   2
ATOM      2  O   UNL     1      -2.742  -1.866   5.003  0.00  0.00    -0.388 OA
ATOM      3  H   UNL     1      -3.496  -1.367   4.660  0.00  0.00    +0.210 HD
ENDBRANCH   1   2
BRANCH   1   4
ATOM      4  C   UNL     1      -1.187  -0.068   4.569  0.00  0.00    +0.194 C 
BRANCH   4   5
ATOM      5  O   UNL     1      -0.523  -0.787   3.528  0.00  0.00    -0.365 OA
BRANCH   5   6
ATOM      6  C   UNL     1       0.025   0.045   2.504  0.00  0.00    +0.179 C 
BRANCH   6  13
ATOM      7  C   UNL     1      -0.018   1.503   0.010  0.00  0.00    +0.044 C 
ATOM      8  C   UNL     1       0.002  -0.004   0.002  0.00  0.00    -0.044 A 
ATOM      9  C   UNL     1       0.006  -0.689  -1.199  0.00  0.00    +0.004 A 
ATOM     10  C   UNL     1       0.025  -2.071  -1.207  0.00  0.00    +0.000 A 
ATOM     11  C   UNL     1       0.040  -2.768  -0.013  0.00  0.00    +0.000 A 
ATOM     12  C   UNL     1       0.037  -2.084   1.188  0.00  0.00    +0.007 A 
ATOM     13  C   UNL     1       0.023  -0.702   1.195  0.00  0.00    -0.012 A 
ENDBRANCH   6  13
BRANCH   6  14
ATOM     14  C   UNL     1       1.439   0.420   2.866  0.00  0.00    -0.014 A 
ATOM     15  C   UNL     1       2.280  -0.519   3.433  0.00  0.00    +0.006 A 
ATOM     16  C   UNL     1       3.577  -0.174   3.765  0.00  0.00    +0.000 A 
ATOM     17  C   UNL     1       4.033   1.109   3.529  0.00  0.00    +0.000 A 
ATOM     18  C   UNL     1       3.193   2.048   2.961  0.00  0.00    +0.000 A 
ATOM     19  C   UNL     1       1.897   1.702   2.625  0.00  0.00    +0.006 A 
ENDBRANCH   6  14
ENDBRANCH   5   6
ENDBRANCH   4   5
ENDBRANCH   1   4
BRANCH   1  20
ATOM     20  C   UNL     1      -2.332  -0.280   6.779  0.00  0.00    +0.178 C 
BRANCH  20  21
ATOM     21  N   UNL     1      -2.746  -1.221   7.823  0.00  0.00    -0.249 N 
ATOM     22  C   UNL     1      -2.373  -1.204   9.116  0.00  0.00    +0.219 A 
ATOM     23  N   UNL     1      -2.953  -2.204   9.724  0.00  0.00    -0.215 NA
ATOM     24  C   UNL     1      -3.708  -2.888   8.853  0.00  0.00    +0.181 A 
ATOM     25  N   UNL     1      -3.613  -2.315   7.673  0.00  0.00    -0.150 NA
BRANCH  24  26
ATOM     26  C   UNL     1      -4.519  -4.090   9.168  0.00  0.00    +0.021 A 
ATOM     27  C   UNL     1      -5.259  -4.716   8.168  0.00  0.00    +0.014 A 
ATOM     28  C   UNL     1      -6.013  -5.833   8.467  0.00  0.00    +0.033 A 
ATOM     29  C   UNL     1      -6.034  -6.331   9.757  0.00  0.00    +0.126 A 
ATOM     30  C   UNL     1      -5.302  -5.712  10.755  0.00  0.00    +0.033 A 
ATOM     31  C   UNL     1      -4.540  -4.598  10.465  0.00  0.00    +0.014 A 
BRANCH  29  32
ATOM     32  N   UNL     1      -6.844  -7.529  10.072  0.00  0.00    +0.056 N 
ATOM     33  O   UNL     1      -7.485  -8.071   9.202  0.00  0.00    -0.126 OA
ATOM     34  O   UNL     1      -6.864  -7.966  11.199  0.00  0.00    -0.126 OA
ENDBRANCH  29  32
ENDBRANCH  24  26
ENDBRANCH  20  21
ENDBRANCH   1  20
TORSDOF 10
