REMARK  Name = ZINC09390668
REMARK  8 active torsions:
REMARK  status: ('A' for Active; 'I' for Inactive)
REMARK    1  A    between atoms: C_1  and  C_2
REMARK    2  A    between atoms: C_3  and  C_25
REMARK    3  A    between atoms: C_5  and  N_11
REMARK    4  A    between atoms: C_6  and  C_7
REMARK    5  A    between atoms: C_7  and  O_9
REMARK    6  A    between atoms: O_9  and  C_10
REMARK    7  A    between atoms: C_12  and  C_14
REMARK    8  A    between atoms: C_25  and  C_26
REMARK                            x       y       z     vdW  Elec       q    Type
REMARK                         _______ _______ _______ _____ _____    ______ ____
ROOT
ATOM      1  C   UNL     1       3.618   4.224   1.710  0.00  0.00    +0.045 C 
ATOM      2  C   UNL     1       2.205   4.378   2.213  0.00  0.00    -0.024 A 
ATOM      3  C   UNL     1       1.148   4.090   1.433  0.00  0.00    -0.000 A 
ATOM      4  S   UNL     1      -0.245   4.429   2.490  0.00  0.00    -0.077 S 
ATOM      5  C   UNL     1       0.591   4.941   3.916  0.00  0.00    +0.087 A 
ATOM      6  C   UNL     1       1.930   4.842   3.552  0.00  0.00    +0.091 A 
ENDROOT
BRANCH   5   7
ATOM      7  N   UNL     1       0.057   5.350   5.126  0.00  0.00    -0.273 N 
ATOM      8  C   UNL     1      -1.280   5.382   5.296  0.00  0.00    +0.284 C 
ATOM      9  O   UNL     1      -2.016   5.052   4.387  0.00  0.00    -0.266 OA
ATOM     10  H   UNL     1       0.644   5.614   5.851  0.00  0.00    +0.156 HD
BRANCH   8  11
ATOM     11  C   UNL     1      -1.851   5.820   6.590  0.00  0.00    +0.194 A 
ATOM     12  C   UNL     1      -3.199   5.842   6.733  0.00  0.00    +0.103 A 
ATOM     13  C   UNL     1      -3.768   6.276   8.017  0.00  0.00    +0.193 A 
ATOM     14  O   UNL     1      -4.971   6.315   8.202  0.00  0.00    -0.287 OA
ATOM     15  C   UNL     1      -2.811   6.661   9.072  0.00  0.00    +0.064 A 
ATOM     16  C   UNL     1      -3.247   7.088  10.326  0.00  0.00    +0.015 A 
ATOM     17  C   UNL     1      -2.331   7.436  11.280  0.00  0.00    +0.001 A 
ATOM     18  C   UNL     1      -0.972   7.368  11.005  0.00  0.00    +0.004 A 
ATOM     19  C   UNL     1      -0.522   6.950   9.772  0.00  0.00    +0.047 A 
ATOM     20  C   UNL     1      -1.437   6.590   8.787  0.00  0.00    +0.139 A 
ATOM     21  O   UNL     1      -1.015   6.173   7.577  0.00  0.00    -0.450 OA
ENDBRANCH   8  11
ENDBRANCH   5   7
BRANCH   6  22
ATOM     22  C   UNL     1       3.007   5.188   4.482  0.00  0.00    +0.342 C 
ATOM     23  O   UNL     1       3.475   4.336   5.214  0.00  0.00    -0.245 OA
BRANCH  22  24
ATOM     24  O   UNL     1       3.480   6.450   4.528  0.00  0.00    -0.464 OA
ATOM     25  C   UNL     1       4.548   6.720   5.474  0.00  0.00    +0.280 C 
ENDBRANCH  22  24
ENDBRANCH   6  22
BRANCH   3  26
ATOM     26  C   UNL     1       1.143   3.595   0.010  0.00  0.00    +0.078 C 
BRANCH  26  27
ATOM     27  C   UNL     1       1.169   2.089   0.002  0.00  0.00    -0.039 A 
ATOM     28  C   UNL     1      -0.017   1.378   0.010  0.00  0.00    +0.008 A 
ATOM     29  C   UNL     1       0.002  -0.004   0.002  0.00  0.00    +0.050 A 
ATOM     30  C   UNL     1       1.211  -0.681  -0.013  0.00  0.00    +0.166 A 
ATOM     31  C   UNL     1       2.405   0.035  -0.021  0.00  0.00    +0.166 A 
ATOM     32  C   UNL     1       2.379   1.420  -0.012  0.00  0.00    +0.053 A 
ATOM     33  O   UNL     1       3.444  -0.851  -0.036  0.00  0.00    -0.453 OA
ATOM     34  C   UNL     1       2.873  -2.106  -0.450  0.00  0.00    +0.466 C 
ATOM     35  O   UNL     1       1.501  -2.015  -0.024  0.00  0.00    -0.453 OA
ENDBRANCH  26  27
ENDBRANCH   3  26
TORSDOF 6
