REMARK  Name = ZINC39726353
REMARK  10 active torsions:
REMARK  status: ('A' for Active; 'I' for Inactive)
REMARK    1  A    between atoms: C_1  and  C_2
REMARK    2  A    between atoms: C_2  and  C_4
REMARK    3  A    between atoms: C_2  and  N_17
REMARK    4  A    between atoms: C_4  and  C_5
REMARK    5  A    between atoms: N_7  and  C_8
REMARK    6  A    between atoms: C_13  and  C_14
REMARK    7  A    between atoms: C_14  and  C_15
REMARK    8  A    between atoms: C_14  and  C_16
REMARK    9  A    between atoms: N_17  and  C_18
REMARK   10  A    between atoms: C_18  and  C_19
REMARK                            x       y       z     vdW  Elec       q    Type
REMARK                         _______ _______ _______ _____ _____    ______ ____
ROOT
ATOM      1  C   UNL     1       0.011   1.526   0.024  0.00  0.00    -0.013 C 
ATOM      2  C   UNL     1       0.020  -0.004   0.010  0.00  0.00    -0.066 C 
ENDROOT
BRANCH   2   3
ATOM      3  N   UNL     1       0.724  -0.500   1.199  0.00  0.00    +0.385 N 
ATOM      4  H   UNL     1       0.802  -1.505   1.149  0.00  0.00    -0.085 HD
ATOM      5  H   UNL     1       1.646  -0.093   1.239  0.00  0.00    -0.085 HD
BRANCH   3   6
ATOM      6  C   UNL     1      -0.028  -0.127   2.405  0.00  0.00    -0.024 C 
BRANCH   6   7
ATOM      7  C   UNL     1       0.695  -0.636   3.625  0.00  0.00    +0.043 A 
ATOM      8  C   UNL     1       1.560   0.073   4.382  0.00  0.00    +0.114 A 
ATOM      9  N   UNL     1       1.989  -0.751   5.386  0.00  0.00    -0.306 N 
ATOM     10  C   UNL     1       2.854  -0.568   6.426  0.00  0.00    +0.092 A 
ATOM     11  C   UNL     1       3.107  -1.569   7.295  0.00  0.00    +0.018 A 
ATOM     12  C   UNL     1       2.481  -2.817   7.140  0.00  0.00    +0.005 A 
ATOM     13  C   UNL     1       1.616  -3.013   6.109  0.00  0.00    +0.047 A 
ATOM     14  C   UNL     1       1.362  -1.958   5.210  0.00  0.00    +0.138 A 
ATOM     15  N   UNL     1       0.582  -1.862   4.143  0.00  0.00    -0.235 NA
ENDBRANCH   6   7
ENDBRANCH   3   6
ENDBRANCH   2   3
BRANCH   2  16
ATOM     16  C   UNL     1       0.735  -0.498  -1.250  0.00  0.00    +0.080 C 
BRANCH  16  17
ATOM     17  C   UNL     1       0.637  -2.000  -1.326  0.00  0.00    +0.216 C 
ATOM     18  O   UNL     1       0.053  -2.615  -0.459  0.00  0.00    -0.276 OA
ATOM     19  N   UNL     1       1.198  -2.660  -2.358  0.00  0.00    -0.285 N 
ATOM     20  H   UNL     1       1.596  -2.165  -3.092  0.00  0.00    +0.155 HD
BRANCH  19  21
ATOM     21  C   UNL     1       1.209  -4.059  -2.371  0.00  0.00    +0.037 A 
ATOM     22  C   UNL     1       1.138  -4.767  -1.178  0.00  0.00    +0.023 A 
ATOM     23  C   UNL     1       1.149  -6.148  -1.195  0.00  0.00    +0.002 A 
ATOM     24  C   UNL     1       1.229  -6.826  -2.397  0.00  0.00    +0.000 A 
ATOM     25  C   UNL     1       1.300  -6.124  -3.587  0.00  0.00    +0.006 A 
ATOM     26  C   UNL     1       1.283  -4.743  -3.578  0.00  0.00    -0.024 A 
BRANCH  26  27
ATOM     27  C   UNL     1       1.353  -3.979  -4.875  0.00  0.00    +0.015 C 
ATOM     28  C   UNL     1       2.586  -4.425  -5.663  0.00  0.00    +0.012 C 
ATOM     29  C   UNL     1       0.093  -4.257  -5.698  0.00  0.00    +0.012 C 
ENDBRANCH  26  27
ENDBRANCH  19  21
ENDBRANCH  16  17
ENDBRANCH   2  16
TORSDOF 7
