REMARK  Name = ZINC59818985
REMARK  9 active torsions:
REMARK  status: ('A' for Active; 'I' for Inactive)
REMARK    1  A    between atoms: C_1  and  C_2
REMARK    2  A    between atoms: C_2  and  C_4
REMARK    3  A    between atoms: C_2  and  S_10
REMARK    4  A    between atoms: N_6  and  C_7
REMARK    5  A    between atoms: C_7  and  C_8
REMARK    6  A    between atoms: S_10  and  C_11
REMARK    7  A    between atoms: N_16  and  N_17
REMARK    8  A    between atoms: C_18  and  C_19
REMARK    9  A    between atoms: C_22  and  O_26
REMARK                            x       y       z     vdW  Elec       q    Type
REMARK                         _______ _______ _______ _____ _____    ______ ____
ROOT
ATOM      1  C   UNL     1      -2.335  -0.110   1.573  0.00  0.00    +0.211 A 
ATOM      2  N   UNL     1      -3.568  -0.353   2.031  0.00  0.00    -0.186 NA
ATOM      3  C   UNL     1      -3.709   0.179   3.227  0.00  0.00    +0.232 A 
ATOM      4  N   UNL     1      -2.546   0.780   3.556  0.00  0.00    -0.245 N 
ATOM      5  N   UNL     1      -1.673   0.575   2.475  0.00  0.00    -0.144 NA
ATOM      6  N   UNL     1      -4.849   0.130   4.009  0.00  0.00    -0.205 N 
ATOM      7  H   UNL     1      -4.857   0.554   4.881  0.00  0.00    +0.177 HD
ATOM      8  H   UNL     1      -2.351   1.256   4.378  0.00  0.00    +0.192 HD
ENDROOT
BRANCH   6   9
ATOM      9  N   UNL     1      -5.991  -0.532   3.541  0.00  0.00    -0.188 NA
ATOM     10  C   UNL     1      -7.061  -0.578   4.275  0.00  0.00    +0.138 C 
BRANCH  10  11
ATOM     11  C   UNL     1      -8.264  -1.275   3.783  0.00  0.00    -0.003 A 
ATOM     12  C   UNL     1      -8.252  -1.891   2.529  0.00  0.00    +0.028 A 
ATOM     13  C   UNL     1      -9.379  -2.542   2.072  0.00  0.00    +0.061 A 
ATOM     14  C   UNL     1     -10.525  -2.585   2.857  0.00  0.00    +0.145 A 
ATOM     15  C   UNL     1     -10.541  -1.973   4.104  0.00  0.00    +0.061 A 
ATOM     16  C   UNL     1      -9.416  -1.326   4.571  0.00  0.00    +0.028 A 
ATOM     17 BR   UNL     1     -12.104  -2.035   5.166  0.00  0.00    -0.046 Br
ATOM     18 BR   UNL     1      -9.365  -3.377   0.375  0.00  0.00    -0.046 Br
BRANCH  14  19
ATOM     19  O   UNL     1     -11.633  -3.226   2.402  0.00  0.00    -0.505 OA
ATOM     20  H   UNL     1     -11.672  -4.162   2.642  0.00  0.00    +0.292 HD
ENDBRANCH  14  19
ENDBRANCH  10  11
ENDBRANCH   6   9
BRANCH   1  21
ATOM     21  S   UNL     1      -1.700  -0.632   0.015  0.00  0.00    -0.072 S 
BRANCH  21  23
ATOM     22  C   UNL     1      -0.019   1.526   0.010  0.00  0.00    +0.029 C 
ATOM     23  C   UNL     1       0.002  -0.004   0.002  0.00  0.00    +0.137 C 
BRANCH  23  24
ATOM     24  C   UNL     1       0.707  -0.490  -1.238  0.00  0.00    +0.226 C 
ATOM     25  O   UNL     1       0.066  -0.782  -2.225  0.00  0.00    -0.275 OA
ATOM     26  N   UNL     1       2.051  -0.601  -1.250  0.00  0.00    -0.311 N 
ATOM     27  H   UNL     1       2.563  -0.367  -0.460  0.00  0.00    +0.149 HD
BRANCH  26  28
ATOM     28  C   UNL     1       2.736  -1.073  -2.455  0.00  0.00    +0.131 C 
BRANCH  28  29
ATOM     29  C   UNL     1       4.223  -1.105  -2.207  0.00  0.00    -0.016 C 
ATOM     30  C   UNL     1       4.895  -2.212  -2.402  0.00  0.00    +0.005 C 
ENDBRANCH  28  29
ENDBRANCH  26  28
ENDBRANCH  23  24
ENDBRANCH  21  23
ENDBRANCH   1  21
TORSDOF 8
