REMARK  Name = ZINC39992818
REMARK  12 active torsions:
REMARK  status: ('A' for Active; 'I' for Inactive)
REMARK    1  A    between atoms: C_1  and  C_2
REMARK    2  A    between atoms: C_7  and  N_8
REMARK    3  A    between atoms: C_9  and  C_11
REMARK    4  A    between atoms: C_11  and  C_36
REMARK    5  A    between atoms: C_12  and  C_13
REMARK    6  A    between atoms: C_14  and  O_25
REMARK    7  A    between atoms: C_17  and  C_24
REMARK    8  A    between atoms: O_25  and  C_26
REMARK    9  A    between atoms: C_29  and  C_32
REMARK   10  A    between atoms: C_32  and  C_33
REMARK   11  A    between atoms: C_32  and  C_34
REMARK   12  A    between atoms: C_32  and  C_35
REMARK                            x       y       z     vdW  Elec       q    Type
REMARK                         _______ _______ _______ _____ _____    ______ ____
ROOT
ATOM      1  C   UNL     1       0.436  -0.356   7.459  0.00  0.00    +0.103 A 
ATOM      2  C   UNL     1       0.388  -1.187   8.605  0.00  0.00    +0.235 A 
ATOM      3  N   UNL     1       0.492  -0.647   9.807  0.00  0.00    -0.194 NA
ATOM      4  C   UNL     1       0.643   0.669   9.975  0.00  0.00    +0.147 A 
ATOM      5  C   UNL     1       0.748   1.183  11.278  0.00  0.00    -0.007 A 
ATOM      6  C   UNL     1       0.902   2.526  11.462  0.00  0.00    +0.008 A 
ATOM      7  C   UNL     1       0.952   3.374  10.348  0.00  0.00    +0.019 A 
ATOM      8  C   UNL     1       0.849   2.861   9.100  0.00  0.00    +0.096 A 
ATOM      9  N   UNL     1       0.696   1.521   8.908  0.00  0.00    -0.267 N 
ATOM     10  C   UNL     1       0.602   1.041   7.649  0.00  0.00    +0.269 A 
ATOM     11  O   UNL     1       0.654   1.794   6.693  0.00  0.00    -0.266 OA
ATOM     12  C   UNL     1       0.691   0.257  12.466  0.00  0.00    +0.047 C 
ENDROOT
BRANCH   1  14
ATOM     13  C   UNL     1      -0.778  -1.668   5.828  0.00  0.00    +0.114 C 
ATOM     14  C   UNL     1       0.328  -0.901   6.167  0.00  0.00    +0.042 C 
BRANCH  13  16
ATOM     15  N   UNL     1      -1.907  -3.085   4.196  0.00  0.00    -0.281 N 
ATOM     16  C   UNL     1      -0.833  -2.340   4.526  0.00  0.00    +0.259 C 
ATOM     17  O   UNL     1       0.091  -2.225   3.742  0.00  0.00    -0.269 OA
ATOM     18  H   UNL     1      -2.670  -3.127   4.794  0.00  0.00    +0.155 HD
BRANCH  15  25
ATOM     19  C   UNL     1      -3.272  -5.580   4.128  0.00  0.00    +0.045 C 
ATOM     20  C   UNL     1      -2.576  -5.019   2.915  0.00  0.00    -0.029 A 
ATOM     21  C   UNL     1      -2.594  -5.717   1.723  0.00  0.00    +0.005 A 
ATOM     22  C   UNL     1      -1.956  -5.203   0.610  0.00  0.00    +0.000 A 
ATOM     23  C   UNL     1      -1.297  -3.989   0.685  0.00  0.00    +0.002 A 
ATOM     24  C   UNL     1      -1.276  -3.286   1.874  0.00  0.00    +0.023 A 
ATOM     25  C   UNL     1      -1.922  -3.797   2.993  0.00  0.00    +0.037 A 
ENDBRANCH  15  25
ENDBRANCH  13  16
BRANCH  13  26
ATOM     26  C   UNL     1      -1.866  -1.803   6.750  0.00  0.00    +0.104 C 
ATOM     27  N   UNL     1      -2.729  -1.911   7.481  0.00  0.00    -0.191 NA
ENDBRANCH  13  26
ENDBRANCH   1  14
BRANCH   2  28
ATOM     28  O   UNL     1       0.237  -2.524   8.470  0.00  0.00    -0.437 OA
BRANCH  28  29
ATOM     29  C   UNL     1       0.123  -3.270   9.600  0.00  0.00    +0.130 A 
ATOM     30  C   UNL     1      -1.065  -3.268  10.317  0.00  0.00    +0.046 A 
ATOM     31  C   UNL     1      -1.179  -4.027  11.466  0.00  0.00    +0.008 A 
ATOM     32  C   UNL     1      -0.110  -4.789  11.901  0.00  0.00    -0.042 A 
ATOM     33  C   UNL     1       1.075  -4.792  11.188  0.00  0.00    +0.008 A 
ATOM     34  C   UNL     1       1.192  -4.039  10.036  0.00  0.00    +0.046 A 
BRANCH  32  35
ATOM     35  C   UNL     1      -0.236  -5.616  13.155  0.00  0.00    -0.013 C 
ATOM     36  C   UNL     1      -1.368  -6.630  12.984  0.00  0.00    +0.015 C 
ATOM     37  C   UNL     1       1.078  -6.356  13.412  0.00  0.00    +0.015 C 
ATOM     38  C   UNL     1      -0.546  -4.700  14.341  0.00  0.00    +0.015 C 
ENDBRANCH  32  35
ENDBRANCH  28  29
ENDBRANCH   2  28
TORSDOF 7
