REMARK  Name = ZINC36309877
REMARK  14 active torsions:
REMARK  status: ('A' for Active; 'I' for Inactive)
REMARK    1  A    between atoms: C_2  and  C_3
REMARK    2  A    between atoms: C_3  and  N_4
REMARK    3  A    between atoms: N_4  and  C_5
REMARK    4  A    between atoms: N_4  and  C_17
REMARK    5  A    between atoms: C_5  and  C_6
REMARK    6  A    between atoms: C_6  and  C_8
REMARK    7  A    between atoms: C_6  and  O_16
REMARK    8  A    between atoms: C_8  and  O_9
REMARK    9  A    between atoms: O_9  and  C_10
REMARK   10  A    between atoms: C_10  and  C_11
REMARK   11  A    between atoms: C_17  and  C_18
REMARK   12  A    between atoms: C_28  and  C_30
REMARK   13  A    between atoms: C_30  and  O_31
REMARK   14  A    between atoms: O_31  and  C_32
REMARK                            x       y       z     vdW  Elec       q    Type
REMARK                         _______ _______ _______ _____ _____    ______ ____
ROOT
ATOM      1  C   UNL     1       3.527  -1.307   1.857  0.00  0.00    +0.200 C 
ATOM      2  O   UNL     1       3.206  -0.138   1.901  0.00  0.00    -0.278 OA
ATOM      3  N   UNL     1       4.778  -1.676   2.194  0.00  0.00    -0.292 N 
ATOM      4  C   UNL     1       5.180  -3.090   2.138  0.00  0.00    +0.113 C 
ATOM      5  C   UNL     1       6.266  -3.240   1.062  0.00  0.00    +0.061 C 
ATOM      6  C   UNL     1       7.232  -2.108   1.194  0.00  0.00    -0.004 A 
ATOM      7  C   UNL     1       7.062  -0.939   1.869  0.00  0.00    -0.014 A 
ATOM      8  C   UNL     1       8.122  -0.035   1.831  0.00  0.00    +0.013 A 
ATOM      9  C   UNL     1       9.250  -0.343   1.151  0.00  0.00    +0.046 A 
ATOM     10  S   UNL     1       8.863  -1.966   0.513  0.00  0.00    -0.101 S 
ATOM     11  C   UNL     1       5.763  -0.671   2.618  0.00  0.00    +0.144 C 
ENDROOT
BRANCH   1  12
ATOM     12  C   UNL     1       2.526  -2.347   1.424  0.00  0.00    +0.019 C 
BRANCH  12  13
ATOM     13  N   UNL     1       1.246  -1.695   1.112  0.00  0.00    +0.389 N 
ATOM     14  H   UNL     1       0.944  -1.151   1.907  0.00  0.00    -0.081 HD
BRANCH  13  15
ATOM     15  C   UNL     1       1.417  -0.813  -0.049  0.00  0.00    -0.051 C 
BRANCH  15  17
ATOM     16  C   UNL     1       1.015  -1.547  -2.343  0.00  0.00    +0.002 C 
ATOM     17  C   UNL     1       1.752  -1.640  -1.264  0.00  0.00    -0.053 C 
ENDBRANCH  15  17
ENDBRANCH  13  15
BRANCH  13  18
ATOM     18  C   UNL     1       0.237  -2.718   0.806  0.00  0.00    -0.044 C 
BRANCH  18  19
ATOM     19  C   UNL     1      -1.127  -2.050   0.622  0.00  0.00    +0.124 C 
BRANCH  19  20
ATOM     20  O   UNL     1      -1.537  -1.457   1.856  0.00  0.00    -0.391 OA
ATOM     21  H   UNL     1      -1.623  -2.086   2.585  0.00  0.00    +0.210 HD
ENDBRANCH  19  20
BRANCH  19  22
ATOM     22  C   UNL     1      -2.155  -3.099   0.194  0.00  0.00    +0.189 C 
BRANCH  22  23
ATOM     23  O   UNL     1      -3.400  -2.458  -0.090  0.00  0.00    -0.370 OA
BRANCH  23  24
ATOM     24  C   UNL     1      -4.434  -3.354  -0.501  0.00  0.00    +0.234 C 
BRANCH  24  25
ATOM     25  C   UNL     1      -5.695  -2.574  -0.774  0.00  0.00    +0.130 A 
ATOM     26  C   UNL     1      -6.052  -2.045  -1.957  0.00  0.00    +0.047 A 
ATOM     27  C   UNL     1      -7.297  -1.405  -1.760  0.00  0.00    +0.041 A 
ATOM     28  C   UNL     1      -7.626  -1.581  -0.468  0.00  0.00    +0.195 A 
ATOM     29  O   UNL     1      -6.655  -2.296   0.123  0.00  0.00    -0.465 OA
ENDBRANCH  24  25
ENDBRANCH  23  24
ENDBRANCH  22  23
ENDBRANCH  19  22
ENDBRANCH  18  19
ENDBRANCH  13  18
ENDBRANCH  12  13
ENDBRANCH   1  12
BRANCH  11  30
ATOM     30  C   UNL     1       6.004  -0.785   4.124  0.00  0.00    +0.256 C 
BRANCH  30  31
ATOM     31  O   UNL     1       6.609  -2.046   4.415  0.00  0.00    -0.490 OA
BRANCH  31  32
ATOM     32  C   UNL     1       6.892  -2.309   5.719  0.00  0.00    +0.121 A 
ATOM     33  C   UNL     1       6.588  -1.374   6.697  0.00  0.00    +0.048 A 
ATOM     34  C   UNL     1       6.876  -1.642   8.021  0.00  0.00    +0.042 A 
ATOM     35  C   UNL     1       7.468  -2.843   8.372  0.00  0.00    +0.124 A 
ATOM     36  C   UNL     1       7.772  -3.777   7.397  0.00  0.00    +0.042 A 
ATOM     37  C   UNL     1       7.479  -3.515   6.072  0.00  0.00    +0.048 A 
ATOM     38  F   UNL     1       7.750  -3.104   9.668  0.00  0.00    -0.205 F 
ENDBRANCH  31  32
ENDBRANCH  30  31
ENDBRANCH  11  30
TORSDOF 14
