REMARK  Name = ZINC41586351
REMARK  9 active torsions:
REMARK  status: ('A' for Active; 'I' for Inactive)
REMARK    1  A    between atoms: C_1  and  C_2
REMARK    2  A    between atoms: C_2  and  O_3
REMARK    3  A    between atoms: O_3  and  C_4
REMARK    4  A    between atoms: C_4  and  C_6
REMARK    5  A    between atoms: N_11  and  C_13
REMARK    6  A    between atoms: C_13  and  C_14
REMARK    7  A    between atoms: C_15  and  O_34
REMARK    8  A    between atoms: C_17  and  C_33
REMARK    9  A    between atoms: C_22  and  C_23
REMARK                            x       y       z     vdW  Elec       q    Type
REMARK                         _______ _______ _______ _____ _____    ______ ____
ROOT
ATOM      1  C   UNL     1       2.713  -6.507   4.804  0.00  0.00    +0.020 A 
ATOM      2  C   UNL     1       4.063  -6.814   4.850  0.00  0.00    +0.122 A 
ATOM      3  C   UNL     1       4.630  -7.343   6.006  0.00  0.00    +0.050 A 
ATOM      4  C   UNL     1       3.857  -7.565   7.110  0.00  0.00    -0.033 A 
ATOM      5  C   UNL     1       2.496  -7.261   7.078  0.00  0.00    +0.071 A 
ATOM      6  C   UNL     1       1.913  -6.722   5.920  0.00  0.00    +0.145 A 
ATOM      7  O   UNL     1       0.597  -6.507   6.130  0.00  0.00    -0.451 OA
ATOM      8  C   UNL     1       0.222  -6.862   7.381  0.00  0.00    +0.176 C 
ATOM      9  C   UNL     1      -1.029  -6.770   7.900  0.00  0.00    +0.062 C 
ATOM     10  C   UNL     1       1.413  -7.378   8.072  0.00  0.00    +0.232 C 
ATOM     11  O   UNL     1       1.490  -7.797   9.214  0.00  0.00    -0.283 OA
ATOM     12  C   UNL     1       4.473  -8.139   8.360  0.00  0.00    +0.045 C 
ENDROOT
BRANCH   9  13
ATOM     13  C   UNL     1      -2.127  -6.243   7.080  0.00  0.00    +0.032 A 
ATOM     14  C   UNL     1      -1.972  -5.034   6.387  0.00  0.00    +0.132 A 
ATOM     15  C   UNL     1      -3.011  -4.547   5.618  0.00  0.00    +0.039 A 
ATOM     16  C   UNL     1      -4.202  -5.248   5.532  0.00  0.00    +0.004 A 
ATOM     17  C   UNL     1      -4.363  -6.442   6.214  0.00  0.00    +0.021 A 
ATOM     18  C   UNL     1      -3.334  -6.948   6.981  0.00  0.00    +0.051 A 
ATOM     19 CL   UNL     1      -3.537  -8.450   7.829  0.00  0.00    -0.083 Cl
ATOM     20  F   UNL     1      -0.811  -4.348   6.471  0.00  0.00    -0.205 F 
ENDBRANCH   9  13
BRANCH   2  21
ATOM     21  O   UNL     1       4.840  -6.597   3.758  0.00  0.00    -0.506 OA
ATOM     22  H   UNL     1       5.240  -5.717   3.729  0.00  0.00    +0.292 HD
ENDBRANCH   2  21
BRANCH   1  23
ATOM     23  C   UNL     1       2.112  -5.935   3.546  0.00  0.00    -0.036 C 
BRANCH  23  28
ATOM     24  C   UNL     1       1.516  -2.381   2.500  0.00  0.00    +0.081 C 
ATOM     25  C   UNL     1       2.967  -1.891   2.511  0.00  0.00    +0.011 C 
ATOM     26  C   UNL     1       3.706  -2.541   3.684  0.00  0.00    -0.018 C 
ATOM     27  C   UNL     1       3.608  -4.063   3.562  0.00  0.00    -0.078 C 
ATOM     28  N   UNL     1       2.198  -4.469   3.585  0.00  0.00    +0.383 N 
ATOM     29  C   UNL     1       1.499  -3.909   2.422  0.00  0.00    -0.064 C 
ATOM     30  H   UNL     1       1.765  -4.131   4.431  0.00  0.00    -0.081 HD
BRANCH  24  31
ATOM     31  C   UNL     1       0.801  -1.808   1.304  0.00  0.00    +0.308 C 
ATOM     32  O   UNL     1       0.324  -2.546   0.475  0.00  0.00    -0.251 OA
BRANCH  31  33
ATOM     33  O   UNL     1       0.693  -0.477   1.160  0.00  0.00    -0.465 OA
BRANCH  33  35
ATOM     34  C   UNL     1      -0.019   1.526   0.010  0.00  0.00    +0.048 C 
ATOM     35  C   UNL     1       0.002  -0.004   0.002  0.00  0.00    +0.229 C 
ENDBRANCH  33  35
ENDBRANCH  31  33
ENDBRANCH  24  31
ENDBRANCH  23  28
ENDBRANCH   1  23
TORSDOF 7
