REMARK  Name = ZINC63426681
REMARK  12 active torsions:
REMARK  status: ('A' for Active; 'I' for Inactive)
REMARK    1  A    between atoms: C_1  and  C_2
REMARK    2  A    between atoms: C_4  and  O_12
REMARK    3  A    between atoms: C_5  and  C_9
REMARK    4  A    between atoms: C_9  and  C_10
REMARK    5  A    between atoms: C_9  and  C_11
REMARK    6  A    between atoms: O_12  and  C_13
REMARK    7  A    between atoms: C_13  and  C_14
REMARK    8  A    between atoms: C_16  and  C_22
REMARK    9  A    between atoms: C_19  and  O_20
REMARK   10  A    between atoms: O_20  and  C_21
REMARK   11  A    between atoms: C_29  and  O_34
REMARK   12  A    between atoms: O_34  and  C_35
REMARK                            x       y       z     vdW  Elec       q    Type
REMARK                         _______ _______ _______ _____ _____    ______ ____
ROOT
ATOM      1  C   UNL     1       0.014  -2.879  -4.780  0.00  0.00    +0.032 A 
ATOM      2  C   UNL     1       0.028  -4.249  -4.606  0.00  0.00    +0.015 A 
ATOM      3  C   UNL     1       0.037  -5.087  -5.705  0.00  0.00    -0.028 A 
ATOM      4  C   UNL     1       0.033  -4.556  -6.982  0.00  0.00    +0.009 A 
ATOM      5  C   UNL     1       0.019  -3.187  -7.162  0.00  0.00    +0.046 A 
ATOM      6  C   UNL     1       0.004  -2.344  -6.060  0.00  0.00    +0.126 A 
ENDROOT
BRANCH   3   7
ATOM      7  C   UNL     1       0.053  -6.581  -5.512  0.00  0.00    +0.111 C 
ATOM      8  C   UNL     1       1.222  -7.189  -6.290  0.00  0.00    +0.128 C 
ATOM      9  C   UNL     1       0.913  -6.967  -7.767  0.00  0.00    -0.035 C 
ATOM     10  C   UNL     1       1.966  -6.350  -8.282  0.00  0.00    +0.003 A 
ATOM     11  C   UNL     1       2.297  -5.949  -9.658  0.00  0.00    +0.055 A 
ATOM     12  C   UNL     1       3.483  -5.305  -9.839  0.00  0.00    +0.121 A 
ATOM     13  C   UNL     1       4.383  -5.013  -8.803  0.00  0.00    +0.047 A 
ATOM     14  C   UNL     1       4.181  -5.342  -7.501  0.00  0.00    +0.029 A 
ATOM     15  C   UNL     1       2.933  -6.047  -7.180  0.00  0.00    +0.043 A 
ATOM     16  N   UNL     1       2.489  -6.507  -6.028  0.00  0.00    -0.376 N 
ATOM     17  C   UNL     1      -0.424  -7.340  -8.360  0.00  0.00    +0.048 C 
ATOM     18  C   UNL     1      -1.491  -6.769  -7.409  0.00  0.00    +0.086 C 
ATOM     19  N   UNL     1      -1.197  -7.161  -6.026  0.00  0.00    -0.307 NA
ATOM     20  H   UNL     1      -1.198  -8.165  -5.928  0.00  0.00    +0.123 HD
ATOM     21  H   UNL     1       2.913  -6.410  -5.161  0.00  0.00    +0.160 HD
BRANCH  12  22
ATOM     22  O   UNL     1       3.817  -4.923 -11.100  0.00  0.00    -0.495 OA
ATOM     23  C   UNL     1       5.066  -4.249 -11.265  0.00  0.00    +0.277 C 
ENDBRANCH  12  22
ENDBRANCH   3   7
BRANCH   6  24
ATOM     24  O   UNL     1      -0.016  -0.996  -6.234  0.00  0.00    -0.495 OA
ATOM     25  C   UNL     1      -0.026  -0.516  -7.580  0.00  0.00    +0.277 C 
ENDBRANCH   6  24
BRANCH   1  26
ATOM     26  C   UNL     1       0.004  -1.966  -3.581  0.00  0.00    +0.268 C 
BRANCH  26  27
ATOM     27  O   UNL     1       0.017  -2.749  -2.386  0.00  0.00    -0.487 OA
BRANCH  27  31
ATOM     28  C   UNL     1      -0.037   1.503   0.010  0.00  0.00    +0.045 C 
ATOM     29  C   UNL     1      -0.016  -0.004   0.002  0.00  0.00    -0.029 A 
ATOM     30  C   UNL     1      -0.009  -0.688  -1.198  0.00  0.00    +0.050 A 
ATOM     31  C   UNL     1       0.010  -2.075  -1.206  0.00  0.00    +0.125 A 
ATOM     32  C   UNL     1       0.022  -2.773  -0.007  0.00  0.00    -0.002 A 
ATOM     33  C   UNL     1       0.015  -2.086   1.192  0.00  0.00    +0.027 A 
ATOM     34  C   UNL     1       0.001  -0.702   1.197  0.00  0.00    +0.044 A 
ATOM     35 CL   UNL     1      -0.001   0.160   2.704  0.00  0.00    -0.083 Cl
BRANCH  32  36
ATOM     36  C   UNL     1       0.043  -4.280  -0.011  0.00  0.00    +0.016 C 
ATOM     37  C   UNL     1       1.300  -4.775   0.706  0.00  0.00    +0.012 C 
ATOM     38  C   UNL     1      -1.198  -4.809   0.711  0.00  0.00    +0.012 C 
ENDBRANCH  32  36
ENDBRANCH  27  31
ENDBRANCH  26  27
ENDBRANCH   1  26
TORSDOF 7
