REMARK  Name = ZINC15226690
REMARK  7 active torsions:
REMARK  status: ('A' for Active; 'I' for Inactive)
REMARK    1  A    between atoms: C_1  and  C_2
REMARK    2  A    between atoms: C_2  and  C_3
REMARK    3  A    between atoms: C_3  and  C_4
REMARK    4  A    between atoms: C_4  and  C_5
REMARK    5  A    between atoms: C_5  and  S_6
REMARK    6  A    between atoms: S_6  and  C_7
REMARK    7  A    between atoms: C_18  and  C_23
REMARK                            x       y       z     vdW  Elec       q    Type
REMARK                         _______ _______ _______ _____ _____    ______ ____
ROOT
ATOM      1  C   UNL     1      -4.527  -4.856   0.019  0.00  0.00    +0.274 C 
ATOM      2  N   UNL     1      -5.422  -3.912   0.028  0.00  0.00    -0.137 NA
ATOM      3  N   UNL     1      -6.795  -4.198   0.038  0.00  0.00    -0.228 N 
ATOM      4  C   UNL     1      -7.189  -5.489   0.040  0.00  0.00    +0.119 C 
ATOM      5  C   UNL     1      -8.581  -5.638   0.051  0.00  0.00    +0.026 A 
ATOM      6  C   UNL     1      -9.263  -4.409   0.058  0.00  0.00    +0.012 A 
ATOM      7  C   UNL     1     -10.624  -4.397   0.069  0.00  0.00    +0.001 A 
ATOM      8  C   UNL     1     -11.369  -5.576   0.074  0.00  0.00    +0.002 A 
ATOM      9  C   UNL     1     -10.773  -6.798   0.068  0.00  0.00    +0.026 A 
ATOM     10  C   UNL     1      -9.364  -6.883   0.056  0.00  0.00    +0.046 A 
ATOM     11  N   UNL     1      -8.927  -8.132   0.051  0.00  0.00    -0.359 N 
ATOM     12  C   UNL     1      -7.541  -8.612   0.040  0.00  0.00    +0.233 C 
ATOM     13  N   UNL     1      -6.301  -7.831   0.030  0.00  0.00    -0.219 NA
ATOM     14  C   UNL     1      -6.151  -6.541   0.031  0.00  0.00    +0.244 C 
ATOM     15  O   UNL     1      -4.851  -6.166   0.015  0.00  0.00    -0.412 OA
ATOM     16  H   UNL     1      -7.449  -3.482   0.045  0.00  0.00    +0.175 HD
ATOM     17  H   UNL     1      -9.611  -8.819   0.057  0.00  0.00    +0.162 HD
ENDROOT
BRANCH  12  18
ATOM     18  C   UNL     1      -7.444  -9.532  -1.150  0.00  0.00    +0.000 A 
ATOM     19  C   UNL     1      -8.558 -10.235  -1.570  0.00  0.00    +0.011 A 
ATOM     20  C   UNL     1      -8.475 -11.080  -2.661  0.00  0.00    +0.050 A 
ATOM     21  C   UNL     1      -7.274 -11.225  -3.336  0.00  0.00    +0.166 A 
ATOM     22  C   UNL     1      -6.152 -10.516  -2.912  0.00  0.00    +0.167 A 
ATOM     23  C   UNL     1      -6.244  -9.667  -1.822  0.00  0.00    +0.057 A 
ATOM     24  O   UNL     1      -5.105 -10.827  -3.731  0.00  0.00    -0.453 OA
ATOM     25  C   UNL     1      -5.491 -12.039  -4.406  0.00  0.00    +0.466 C 
ATOM     26  O   UNL     1      -6.930 -11.979  -4.420  0.00  0.00    -0.453 OA
ENDBRANCH  12  18
BRANCH   1  27
ATOM     27  S   UNL     1      -2.823  -4.407   0.005  0.00  0.00    -0.066 S 
BRANCH  27  28
ATOM     28  C   UNL     1      -2.848  -2.593   0.015  0.00  0.00    +0.079 C 
BRANCH  28  29
ATOM     29  C   UNL     1      -1.413  -2.063   0.004  0.00  0.00    +0.011 C 
BRANCH  29  30
ATOM     30  C   UNL     1      -1.433  -0.534   0.013  0.00  0.00    +0.001 C 
BRANCH  30  32
ATOM     31  C   UNL     1      -0.019   1.526   0.010  0.00  0.00    +0.004 C 
ATOM     32  C   UNL     1       0.002  -0.004   0.002  0.00  0.00    -0.003 C 
ENDBRANCH  30  32
ENDBRANCH  29  30
ENDBRANCH  28  29
ENDBRANCH  27  28
ENDBRANCH   1  27
TORSDOF 6
