REMARK  Name = ZINC04476936
REMARK  7 active torsions:
REMARK  status: ('A' for Active; 'I' for Inactive)
REMARK    1  A    between atoms: C_1  and  C_2
REMARK    2  A    between atoms: C_5  and  C_8
REMARK    3  A    between atoms: C_8  and  C_28
REMARK    4  A    between atoms: N_11  and  C_15
REMARK    5  A    between atoms: C_15  and  C_16
REMARK    6  A    between atoms: N_18  and  C_19
REMARK    7  A    between atoms: C_25  and  C_27
REMARK                            x       y       z     vdW  Elec       q    Type
REMARK                         _______ _______ _______ _____ _____    ______ ____
ROOT
ATOM      1  C   UNL     1       1.158   1.862   0.001  0.00  0.00    +0.135 C 
ATOM      2  C   UNL     1       0.545   3.248   0.013  0.00  0.00    +0.251 C 
ATOM      3  O   UNL     1       1.132   4.309   0.013  0.00  0.00    -0.272 OA
ATOM      4  N   UNL     1      -0.789   3.056   0.025  0.00  0.00    -0.215 N 
ATOM      5  C   UNL     1      -1.101   1.755   0.016  0.00  0.00    +0.310 C 
ATOM      6  O   UNL     1      -2.240   1.333   0.019  0.00  0.00    -0.252 OA
ATOM      7  N   UNL     1      -0.011   0.966   0.007  0.00  0.00    -0.281 N 
ATOM      8  C   UNL     1       1.992   1.650  -1.264  0.00  0.00    +0.047 C 
ATOM      9  H   UNL     1       0.002  -0.004   0.002  0.00  0.00    +0.152 HD
ENDROOT
BRANCH   1  14
ATOM     10  C   UNL     1       4.386   1.026   4.721  0.00  0.00    +0.044 C 
ATOM     11  C   UNL     1       3.545   1.244   3.489  0.00  0.00    -0.050 A 
ATOM     12  C   UNL     1       2.838   0.190   2.940  0.00  0.00    +0.004 A 
ATOM     13  C   UNL     1       2.066   0.390   1.811  0.00  0.00    +0.006 A 
ATOM     14  C   UNL     1       2.000   1.644   1.232  0.00  0.00    -0.015 A 
ATOM     15  C   UNL     1       2.711   2.696   1.778  0.00  0.00    +0.006 A 
ATOM     16  C   UNL     1       3.480   2.497   2.910  0.00  0.00    +0.004 A 
ENDBRANCH   1  14
BRANCH   4  17
ATOM     17  C   UNL     1      -1.776   4.138   0.038  0.00  0.00    +0.213 C 
BRANCH  17  18
ATOM     18  C   UNL     1      -2.128   4.516  -1.378  0.00  0.00    +0.231 C 
ATOM     19  O   UNL     1      -1.605   3.937  -2.307  0.00  0.00    -0.274 OA
ATOM     20  N   UNL     1      -3.023   5.495  -1.612  0.00  0.00    -0.311 N 
ATOM     21  H   UNL     1      -3.441   5.958  -0.869  0.00  0.00    +0.149 HD
BRANCH  20  22
ATOM     22  C   UNL     1      -3.365   5.862  -2.989  0.00  0.00    +0.076 C 
ATOM     23  C   UNL     1      -4.466   4.934  -3.505  0.00  0.00    +0.022 C 
ATOM     24  C   UNL     1      -4.822   5.317  -4.943  0.00  0.00    +0.002 C 
ATOM     25  C   UNL     1      -5.318   6.764  -4.977  0.00  0.00    +0.000 C 
ATOM     26  C   UNL     1      -4.216   7.692  -4.461  0.00  0.00    +0.005 C 
ATOM     27  C   UNL     1      -3.860   7.309  -3.023  0.00  0.00    +0.006 C 
ATOM     28  C   UNL     1      -2.759   8.238  -2.506  0.00  0.00    +0.009 C 
ENDBRANCH  20  22
ENDBRANCH  17  18
ENDBRANCH   4  17
TORSDOF 4
