REMARK  Name = ZINC12099640
REMARK  6 active torsions:
REMARK  status: ('A' for Active; 'I' for Inactive)
REMARK    1  A    between atoms: C_3  and  C_8
REMARK    2  A    between atoms: C_11  and  C_33
REMARK    3  A    between atoms: C_13  and  C_14
REMARK    4  A    between atoms: C_19  and  C_20
REMARK    5  A    between atoms: C_19  and  N_58
REMARK    6  A    between atoms: C_25  and  C_26
REMARK                            x       y       z     vdW  Elec       q    Type
REMARK                         _______ _______ _______ _____ _____    ______ ____
ROOT
ATOM      1  C   UNL     1       1.461  -1.645   1.135  0.00  0.00    +0.035 C 
ATOM      2  C   UNL     1       2.278  -2.389   2.195  0.00  0.00    -0.009 C 
ATOM      3  C   UNL     1       2.297  -3.882   1.861  0.00  0.00    -0.078 C 
ATOM      4  C   UNL     1       2.094  -3.415  -0.508  0.00  0.00    -0.078 C 
ATOM      5  C   UNL     1       2.069  -1.907  -0.245  0.00  0.00    -0.009 C 
ATOM      6  N   UNL     1       2.916  -4.070   0.531  0.00  0.00    +0.382 N 
ATOM      7  H   UNL     1       3.850  -3.642   0.536  0.00  0.00    -0.081 HD
ENDROOT
BRANCH   1  13
ATOM      8  C   UNL     1       0.304   0.533   1.663  0.00  0.00    +0.022 A 
ATOM      9  C   UNL     1       0.387   1.903   1.926  0.00  0.00    +0.123 A 
ATOM     10  N   UNL     1       1.575   2.481   1.938  0.00  0.00    -0.232 NA
ATOM     11  C   UNL     1       2.671   1.784   1.707  0.00  0.00    +0.234 A 
ATOM     12  N   UNL     1       2.636   0.491   1.455  0.00  0.00    -0.228 NA
ATOM     13  C   UNL     1       1.489  -0.166   1.424  0.00  0.00    +0.056 A 
BRANCH   8  16
ATOM     14  C   UNL     1      -3.124  -0.643   2.667  0.00  0.00    +0.003 A 
ATOM     15  C   UNL     1      -1.905   0.004   2.693  0.00  0.00    +0.009 A 
ATOM     16  C   UNL     1      -1.008  -0.161   1.639  0.00  0.00    -0.012 A 
ATOM     17  C   UNL     1      -1.349  -0.973   0.560  0.00  0.00    +0.047 A 
ATOM     18  C   UNL     1      -2.571  -1.620   0.545  0.00  0.00    +0.124 A 
ATOM     19  C   UNL     1      -3.458  -1.453   1.597  0.00  0.00    +0.038 A 
ATOM     20  F   UNL     1      -2.902  -2.413  -0.497  0.00  0.00    -0.205 F 
ENDBRANCH   8  16
BRANCH  11  21
ATOM     21  C   UNL     1       4.003   2.488   1.732  0.00  0.00    +0.452 C 
ATOM     22  F   UNL     1       4.152   3.246   0.566  0.00  0.00    -0.163 F 
ATOM     23  F   UNL     1       4.064   3.331   2.847  0.00  0.00    -0.163 F 
ATOM     24  F   UNL     1       5.030   1.541   1.808  0.00  0.00    -0.163 F 
ENDBRANCH  11  21
ENDBRANCH   1  13
BRANCH   6  25
ATOM     25  C   UNL     1       3.050  -5.511   0.236  0.00  0.00    -0.039 C 
BRANCH  25  26
ATOM     26  C   UNL     1       3.784  -6.179   1.369  0.00  0.00    -0.019 A 
ATOM     27  C   UNL     1       3.241  -6.998   2.296  0.00  0.00    +0.107 A 
ATOM     28  N   UNL     1       4.225  -7.388   3.136  0.00  0.00    -0.284 N 
ATOM     29  H   UNL     1       4.119  -7.997   3.921  0.00  0.00    +0.188 HD
ATOM     30  N   UNL     1       5.420  -6.790   2.715  0.00  0.00    -0.174 NA
ATOM     31  C   UNL     1       5.161  -6.065   1.647  0.00  0.00    +0.094 A 
BRANCH  31  32
ATOM     32  C   UNL     1       6.144  -5.266   0.875  0.00  0.00    +0.002 A 
ATOM     33  C   UNL     1       6.122  -5.288  -0.518  0.00  0.00    +0.013 A 
ATOM     34  C   UNL     1       7.035  -4.539  -1.232  0.00  0.00    +0.039 A 
ATOM     35  C   UNL     1       7.979  -3.774  -0.566  0.00  0.00    +0.123 A 
ATOM     36  C   UNL     1       8.008  -3.754   0.819  0.00  0.00    +0.039 A 
ATOM     37  C   UNL     1       7.095  -4.495   1.541  0.00  0.00    +0.013 A 
ATOM     38  F   UNL     1       8.874  -3.046  -1.269  0.00  0.00    -0.205 F 
ENDBRANCH  31  32
ENDBRANCH  25  26
ENDBRANCH   6  25
TORSDOF 6
