REMARK  Name = ZINC36593587
REMARK  16 active torsions:
REMARK  status: ('A' for Active; 'I' for Inactive)
REMARK    1  A    between atoms: C_1  and  C_2
REMARK    2  A    between atoms: C_2  and  C_3
REMARK    3  A    between atoms: C_3  and  C_4
REMARK    4  A    between atoms: C_5  and  C_6
REMARK    5  A    between atoms: C_6  and  C_8
REMARK    6  A    between atoms: C_6  and  N_22
REMARK    7  A    between atoms: N_10  and  C_11
REMARK    8  A    between atoms: C_11  and  S_12
REMARK    9  A    between atoms: S_12  and  C_15
REMARK   10  A    between atoms: C_18  and  C_21
REMARK   11  A    between atoms: N_22  and  C_34
REMARK   12  A    between atoms: C_23  and  C_25
REMARK   13  A    between atoms: C_28  and  N_31
REMARK   14  A    between atoms: C_34  and  C_35
REMARK   15  A    between atoms: C_34  and  C_36
REMARK   16  A    between atoms: C_34  and  C_37
REMARK                            x       y       z     vdW  Elec       q    Type
REMARK                         _______ _______ _______ _____ _____    ______ ____
ROOT
ATOM      1  C   UNL     1       1.773  -4.897  -0.991  0.00  0.00    +0.186 C 
ENDROOT
BRANCH   1   2
ATOM      2  C   UNL     1       1.355  -6.306  -1.324  0.00  0.00    +0.239 C 
ATOM      3  O   UNL     1       0.564  -6.888  -0.613  0.00  0.00    -0.273 OA
ATOM      4  N   UNL     1       1.859  -6.919  -2.413  0.00  0.00    -0.294 N 
ATOM      5  H   UNL     1       2.491  -6.454  -2.983  0.00  0.00    +0.150 HD
BRANCH   4   6
ATOM      6  C   UNL     1       1.452  -8.288  -2.738  0.00  0.00    +0.278 C 
BRANCH   6   7
ATOM      7  S   UNL     1       0.084  -8.247  -3.928  0.00  0.00    +0.013 S 
ATOM      8  O   UNL     1      -0.281  -9.569  -4.301  0.00  0.00    -0.168 OA
ATOM      9  O   UNL     1      -0.903  -7.314  -3.508  0.00  0.00    -0.168 OA
BRANCH   7  10
ATOM     10  C   UNL     1       0.775  -7.543  -5.388  0.00  0.00    +0.090 A 
ATOM     11  C   UNL     1       0.750  -6.173  -5.573  0.00  0.00    +0.027 A 
ATOM     12  C   UNL     1       1.292  -5.620  -6.718  0.00  0.00    +0.005 A 
ATOM     13  C   UNL     1       1.860  -6.437  -7.678  0.00  0.00    -0.050 A 
ATOM     14  C   UNL     1       1.886  -7.807  -7.492  0.00  0.00    +0.005 A 
ATOM     15  C   UNL     1       1.348  -8.359  -6.345  0.00  0.00    +0.027 A 
ATOM     16  C   UNL     1       2.451  -5.835  -8.927  0.00  0.00    +0.044 C 
ENDBRANCH   7  10
ENDBRANCH   6   7
ENDBRANCH   4   6
ENDBRANCH   1   2
BRANCH   1  17
ATOM     17  N   UNL     1       0.923  -4.376   0.082  0.00  0.00    -0.278 N 
ATOM     18  C   UNL     1       1.460  -4.068   1.279  0.00  0.00    +0.248 C 
ATOM     19  O   UNL     1       2.663  -3.924   1.386  0.00  0.00    -0.270 OA
BRANCH  18  20
ATOM     20  C   UNL     1       0.588  -3.905   2.461  0.00  0.00    +0.037 A 
ATOM     21  C   UNL     1      -0.786  -3.724   2.299  0.00  0.00    +0.015 A 
ATOM     22  C   UNL     1      -1.595  -3.573   3.406  0.00  0.00    +0.033 A 
ATOM     23  C   UNL     1      -1.046  -3.601   4.676  0.00  0.00    +0.126 A 
ATOM     24  C   UNL     1       0.315  -3.780   4.844  0.00  0.00    +0.033 A 
ATOM     25  C   UNL     1       1.134  -3.938   3.745  0.00  0.00    +0.015 A 
BRANCH  23  26
ATOM     26  N   UNL     1      -1.920  -3.438   5.860  0.00  0.00    +0.056 N 
ATOM     27  O   UNL     1      -3.110  -3.281   5.716  0.00  0.00    -0.126 OA
ATOM     28  O   UNL     1      -1.443  -3.461   6.971  0.00  0.00    -0.126 OA
ENDBRANCH  23  26
ENDBRANCH  18  20
BRANCH  17  29
ATOM     29  C   UNL     1      -0.512  -4.189  -0.146  0.00  0.00    +0.030 C 
ATOM     30  C   UNL     1      -0.854  -4.577  -1.586  0.00  0.00    +0.031 C 
ATOM     31  C   UNL     1      -1.302  -5.074   0.821  0.00  0.00    +0.031 C 
ATOM     32  C   UNL     1      -0.879  -2.723   0.088  0.00  0.00    +0.031 C 
ENDBRANCH  17  29
ENDBRANCH   1  17
BRANCH   1  34
ATOM     33  C   UNL     1       1.074  -2.846  -2.115  0.00  0.00    -0.029 C 
ATOM     34  C   UNL     1       1.630  -4.028  -2.213  0.00  0.00    +0.000 C 
BRANCH  33  35
ATOM     35  C   UNL     1       1.006  -1.942  -3.319  0.00  0.00    +0.027 C 
BRANCH  35  37
ATOM     36  C   UNL     1      -0.516  -0.611  -4.787  0.00  0.00    +0.004 C 
ATOM     37  C   UNL     1      -0.447  -1.528  -3.564  0.00  0.00    +0.001 C 
ENDBRANCH  35  37
ENDBRANCH  33  35
ENDBRANCH   1  34
TORSDOF 11
