REMARK  Name = ZINC02501740
REMARK  7 active torsions:
REMARK  status: ('A' for Active; 'I' for Inactive)
REMARK    1  A    between atoms: C_1  and  C_2
REMARK    2  A    between atoms: C_4  and  C_8
REMARK    3  A    between atoms: C_5  and  C_7
REMARK    4  A    between atoms: C_10  and  C_31
REMARK    5  A    between atoms: C_11  and  N_30
REMARK    6  A    between atoms: N_12  and  C_20
REMARK    7  A    between atoms: C_22  and  N_27
REMARK                            x       y       z     vdW  Elec       q    Type
REMARK                         _______ _______ _______ _____ _____    ______ ____
ROOT
ATOM      1  C   UNL     1      -4.321  -1.058   0.016  0.00  0.00    +0.098 C 
ATOM      2  C   UNL     1      -3.928  -0.315   1.258  0.00  0.00    +0.077 C 
ATOM      3  C   UNL     1      -3.010   0.686   1.216  0.00  0.00    +0.107 C 
ATOM      4  N   UNL     1      -2.428   1.040   0.020  0.00  0.00    -0.259 N 
ATOM      5  C   UNL     1      -3.022   0.704  -1.169  0.00  0.00    +0.025 C 
ATOM      6  C   UNL     1      -3.934  -0.291  -1.224  0.00  0.00    +0.025 C 
ATOM      7  C   UNL     1      -4.557  -0.636  -2.436  0.00  0.00    +0.162 C 
ATOM      8  O   UNL     1      -5.372  -1.537  -2.452  0.00  0.00    -0.292 OA
ATOM      9  C   UNL     1      -4.243   0.104  -3.713  0.00  0.00    +0.080 C 
ATOM     10  C   UNL     1      -3.809   1.534  -3.374  0.00  0.00    +0.014 C 
ATOM     11  C   UNL     1      -2.622   1.465  -2.409  0.00  0.00    +0.052 C 
ENDROOT
BRANCH   1  15
ATOM     12  C   UNL     1      -0.197  -4.045   0.011  0.00  0.00    +0.051 C 
ATOM     13  C   UNL     1      -1.663  -3.698   0.002  0.00  0.00    -0.013 A 
ATOM     14  C   UNL     1      -2.252  -2.477   0.015  0.00  0.00    +0.015 A 
ATOM     15  C   UNL     1      -3.632  -2.398   0.002  0.00  0.00    -0.025 A 
ATOM     16  C   UNL     1      -4.356  -3.544  -0.016  0.00  0.00    -0.009 A 
ATOM     17  S   UNL     1      -3.076  -4.789  -0.028  0.00  0.00    -0.098 S 
ATOM     18  C   UNL     1      -5.852  -3.721  -0.026  0.00  0.00    +0.052 C 
ENDBRANCH   1  15
BRANCH   4  19
ATOM     19  C   UNL     1      -1.224   1.754   0.017  0.00  0.00    +0.060 A 
ATOM     20  C   UNL     1      -0.013   1.076   0.008  0.00  0.00    +0.058 A 
ATOM     21  C   UNL     1       1.174   1.783   0.000  0.00  0.00    +0.128 A 
ATOM     22  C   UNL     1       1.156   3.166   0.007  0.00  0.00    +0.034 A 
ATOM     23  C   UNL     1      -0.048   3.846   0.022  0.00  0.00    +0.024 A 
ATOM     24  C   UNL     1      -1.239   3.144   0.029  0.00  0.00    +0.063 A 
ATOM     25 CL   UNL     1      -2.750   3.998   0.047  0.00  0.00    -0.082 Cl
BRANCH  21  26
ATOM     26  N   UNL     1       2.465   1.060  -0.016  0.00  0.00    +0.056 N 
ATOM     27  O   UNL     1       2.481  -0.158  -0.022  0.00  0.00    -0.126 OA
ATOM     28  O   UNL     1       3.512   1.683  -0.022  0.00  0.00    -0.126 OA
ENDBRANCH  21  26
ENDBRANCH   4  19
BRANCH   3  29
ATOM     29  N   UNL     1      -2.661   1.346   2.370  0.00  0.00    -0.345 N 
ATOM     30  H   UNL     1      -2.006   2.061   2.341  0.00  0.00    +0.144 HD
ATOM     31  H   UNL     1      -3.070   1.097   3.214  0.00  0.00    +0.144 HD
ENDBRANCH   3  29
BRANCH   2  32
ATOM     32  C   UNL     1      -4.529  -0.666   2.509  0.00  0.00    +0.099 C 
ATOM     33  N   UNL     1      -5.006  -0.945   3.502  0.00  0.00    -0.191 NA
ENDBRANCH   2  32
TORSDOF 5
