REMARK  Name = ZINC59719380
REMARK  8 active torsions:
REMARK  status: ('A' for Active; 'I' for Inactive)
REMARK    1  A    between atoms: C_1  and  C_2
REMARK    2  A    between atoms: C_2  and  C_4
REMARK    3  A    between atoms: N_6  and  C_28
REMARK    4  A    between atoms: C_7  and  C_12
REMARK    5  A    between atoms: N_10  and  C_11
REMARK    6  A    between atoms: C_17  and  O_18
REMARK    7  A    between atoms: O_18  and  C_19
REMARK    8  A    between atoms: C_19  and  C_20
REMARK                            x       y       z     vdW  Elec       q    Type
REMARK                         _______ _______ _______ _____ _____    ______ ____
ROOT
ATOM      1  C   UNL     1       0.019  -0.704  -1.223  0.00  0.00    +0.195 C 
ATOM      2  N   UNL     1      -0.095  -0.041  -2.348  0.00  0.00    -0.158 NA
ATOM      3  N   UNL     1      -0.106  -0.748  -3.563  0.00  0.00    -0.199 N 
ATOM      4  C   UNL     1      -0.334  -2.201  -3.518  0.00  0.00    +0.215 C 
ATOM      5  N   UNL     1       0.458  -2.745  -2.398  0.00  0.00    -0.213 NA
ATOM      6  N   UNL     1       0.125  -2.102  -1.237  0.00  0.00    -0.248 N 
ATOM      7  C   UNL     1      -0.125  -2.871  -0.016  0.00  0.00    +0.151 C 
ATOM      8  H   UNL     1       1.446  -2.665  -2.581  0.00  0.00    +0.147 HD
ENDROOT
BRANCH   3   9
ATOM      9  C   UNL     1       0.091  -0.090  -4.778  0.00  0.00    +0.054 A 
ATOM     10  C   UNL     1       0.070  -0.807  -5.969  0.00  0.00    +0.026 A 
ATOM     11  C   UNL     1       0.266  -0.153  -7.169  0.00  0.00    +0.022 A 
ATOM     12  C   UNL     1       0.483   1.214  -7.187  0.00  0.00    +0.041 A 
ATOM     13  C   UNL     1       0.505   1.930  -6.003  0.00  0.00    +0.022 A 
ATOM     14  C   UNL     1       0.303   1.283  -4.800  0.00  0.00    +0.026 A 
ATOM     15 CL   UNL     1       0.729   2.032  -8.699  0.00  0.00    -0.084 Cl
ENDBRANCH   3   9
BRANCH   4  16
ATOM     16  C   UNL     1      -1.797  -2.483  -3.294  0.00  0.00    +0.032 A 
ATOM     17  C   UNL     1      -2.746  -1.553  -3.675  0.00  0.00    +0.010 A 
ATOM     18  C   UNL     1      -4.089  -1.810  -3.470  0.00  0.00    +0.001 A 
ATOM     19  C   UNL     1      -4.486  -2.998  -2.884  0.00  0.00    +0.004 A 
ATOM     20  C   UNL     1      -3.542  -3.931  -2.502  0.00  0.00    +0.046 A 
ATOM     21  C   UNL     1      -2.193  -3.678  -2.712  0.00  0.00    +0.127 A 
BRANCH  21  22
ATOM     22  O   UNL     1      -1.263  -4.596  -2.342  0.00  0.00    -0.487 OA
BRANCH  22  23
ATOM     23  C   UNL     1      -1.743  -5.804  -1.748  0.00  0.00    +0.266 C 
BRANCH  23  24
ATOM     24  C   UNL     1      -0.577  -6.694  -1.407  0.00  0.00    +0.008 A 
ATOM     25  C   UNL     1       0.714  -6.277  -1.676  0.00  0.00    +0.010 A 
ATOM     26  C   UNL     1       1.784  -7.093  -1.363  0.00  0.00    +0.020 A 
ATOM     27  C   UNL     1       1.565  -8.329  -0.779  0.00  0.00    +0.042 A 
ATOM     28  C   UNL     1       0.275  -8.746  -0.508  0.00  0.00    +0.040 A 
ATOM     29  C   UNL     1      -0.796  -7.927  -0.818  0.00  0.00    +0.049 A 
ATOM     30 CL   UNL     1      -2.416  -8.447  -0.473  0.00  0.00    -0.083 Cl
ATOM     31 CL   UNL     1       2.910  -9.354  -0.386  0.00  0.00    -0.083 Cl
ENDBRANCH  23  24
ENDBRANCH  22  23
ENDBRANCH  21  22
ENDBRANCH   4  16
BRANCH   1  33
ATOM     32  C   UNL     1      -0.223   1.477   0.040  0.00  0.00    +0.095 C 
ATOM     33  C   UNL     1       0.041  -0.006   0.009  0.00  0.00    +0.195 C 
ATOM     34  O   UNL     1       0.273  -0.603   1.041  0.00  0.00    -0.289 OA
ENDBRANCH   1  33
TORSDOF 6
