REMARK  Name = ZINC39515935
REMARK  8 active torsions:
REMARK  status: ('A' for Active; 'I' for Inactive)
REMARK    1  A    between atoms: C_1  and  N_2
REMARK    2  A    between atoms: N_2  and  C_3
REMARK    3  A    between atoms: N_2  and  C_15
REMARK    4  A    between atoms: C_3  and  C_4
REMARK    5  A    between atoms: N_18  and  C_21
REMARK    6  A    between atoms: C_24  and  C_27
REMARK    7  A    between atoms: N_29  and  C_30
REMARK    8  A    between atoms: C_30  and  C_31
REMARK                            x       y       z     vdW  Elec       q    Type
REMARK                         _______ _______ _______ _____ _____    ______ ____
ROOT
ATOM      1  C   UNL     1       0.721  -0.478   1.192  0.00  0.00    -0.066 C 
ATOM      2  C   UNL     1       0.743  -2.008   1.167  0.00  0.00    +0.004 C 
ATOM      3  C   UNL     1       1.444  -2.526   2.426  0.00  0.00    +0.103 C 
ATOM      4  N   UNL     1       2.773  -1.905   2.516  0.00  0.00    -0.330 N 
ATOM      5  C   UNL     1       2.874  -0.441   2.459  0.00  0.00    +0.103 C 
ATOM      6  C   UNL     1       2.156   0.054   1.199  0.00  0.00    +0.004 C 
ENDROOT
BRANCH   4   7
ATOM      7  C   UNL     1       3.913  -2.689   2.654  0.00  0.00    +0.030 A 
ATOM      8  C   UNL     1       5.172  -2.096   2.622  0.00  0.00    +0.024 A 
ATOM      9  C   UNL     1       6.303  -2.869   2.757  0.00  0.00    +0.015 A 
ATOM     10  C   UNL     1       6.186  -4.251   2.928  0.00  0.00    +0.037 A 
ATOM     11  C   UNL     1       4.920  -4.844   2.959  0.00  0.00    +0.015 A 
ATOM     12  C   UNL     1       3.793  -4.065   2.829  0.00  0.00    +0.024 A 
BRANCH  10  13
ATOM     13  C   UNL     1       7.396  -5.083   3.073  0.00  0.00    +0.244 C 
ATOM     14  O   UNL     1       8.496  -4.566   3.045  0.00  0.00    -0.270 OA
ATOM     15  N   UNL     1       7.281  -6.416   3.237  0.00  0.00    -0.307 N 
ATOM     16  H   UNL     1       6.404  -6.828   3.260  0.00  0.00    +0.149 HD
BRANCH  15  17
ATOM     17  C   UNL     1       8.483  -7.242   3.382  0.00  0.00    +0.142 C 
BRANCH  17  18
ATOM     18  C   UNL     1       8.083  -8.685   3.550  0.00  0.00    +0.005 A 
ATOM     19  C   UNL     1       8.055  -9.252   4.810  0.00  0.00    +0.008 A 
ATOM     20  C   UNL     1       7.688 -10.576   4.965  0.00  0.00    +0.000 A 
ATOM     21  C   UNL     1       7.349 -11.334   3.860  0.00  0.00    +0.003 A 
ATOM     22  C   UNL     1       7.376 -10.769   2.599  0.00  0.00    +0.038 A 
ATOM     23  C   UNL     1       7.738  -9.442   2.443  0.00  0.00    +0.128 A 
ATOM     24  F   UNL     1       7.760  -8.887   1.212  0.00  0.00    -0.205 F 
ENDBRANCH  17  18
ENDBRANCH  15  17
ENDBRANCH  10  13
ENDBRANCH   4   7
BRANCH   1  26
ATOM     25  C   UNL     1      -0.002   1.490   0.027  0.00  0.00    -0.096 C 
ATOM     26  N   UNL     1       0.020   0.022   0.002  0.00  0.00    +0.381 N 
ATOM     27  H   UNL     1       0.499  -0.293  -0.828  0.00  0.00    -0.082 HD
BRANCH  26  28
ATOM     28  C   UNL     1      -1.358  -0.489  -0.004  0.00  0.00    -0.045 C 
BRANCH  28  29
ATOM     29  C   UNL     1      -2.050  -0.072  -1.304  0.00  0.00    +0.139 C 
ATOM     30  C   UNL     1      -3.396  -0.734  -1.430  0.00  0.00    -0.023 C 
ATOM     31  C   UNL     1      -3.316  -1.490  -2.516  0.00  0.00    +0.064 C 
ATOM     32  C   UNL     1      -4.454  -2.364  -3.026  0.00  0.00    +0.057 C 
ATOM     33  C   UNL     1      -4.710  -3.437  -1.958  0.00  0.00    +0.006 C 
ATOM     34  C   UNL     1      -5.542  -2.896  -0.823  0.00  0.00    +0.001 C 
ATOM     35  C   UNL     1      -4.855  -1.945   0.127  0.00  0.00    +0.004 C 
ATOM     36  C   UNL     1      -4.616  -0.582  -0.546  0.00  0.00    +0.035 C 
ATOM     37  N   UNL     1      -2.093  -1.365  -3.079  0.00  0.00    -0.159 NA
ATOM     38  N   UNL     1      -1.324  -0.598  -2.478  0.00  0.00    -0.181 NA
ENDBRANCH  28  29
ENDBRANCH  26  28
ENDBRANCH   1  26
TORSDOF 7
