REMARK  Name = ZINC40172580
REMARK  11 active torsions:
REMARK  status: ('A' for Active; 'I' for Inactive)
REMARK    1  A    between atoms: C_1  and  C_2
REMARK    2  A    between atoms: C_2  and  C_3
REMARK    3  A    between atoms: C_6  and  N_9
REMARK    4  A    between atoms: C_10  and  C_12
REMARK    5  A    between atoms: C_12  and  C_14
REMARK    6  A    between atoms: C_12  and  N_16
REMARK    7  A    between atoms: C_14  and  C_15
REMARK    8  A    between atoms: C_20  and  S_21
REMARK    9  A    between atoms: S_21  and  C_22
REMARK   10  A    between atoms: C_22  and  C_23
REMARK   11  A    between atoms: C_23  and  C_24
REMARK                            x       y       z     vdW  Elec       q    Type
REMARK                         _______ _______ _______ _____ _____    ______ ____
ROOT
ATOM      1  N   UNL     1      -7.998  -2.672  -2.436  0.00  0.00    -0.279 N 
ATOM      2  C   UNL     1      -7.707  -3.618  -3.378  0.00  0.00    +0.216 A 
ATOM      3  N   UNL     1      -8.478  -3.406  -4.416  0.00  0.00    -0.113 NA
ATOM      4  N   UNL     1      -9.286  -2.296  -4.137  0.00  0.00    -0.121 NA
ATOM      5  C   UNL     1      -8.986  -1.869  -2.934  0.00  0.00    +0.194 A 
ATOM      6  N   UNL     1      -6.760  -4.626  -3.256  0.00  0.00    -0.328 N 
ATOM      7  H   UNL     1      -6.234  -4.702  -2.444  0.00  0.00    +0.145 HD
ATOM      8  H   UNL     1      -6.624  -5.254  -3.983  0.00  0.00    +0.145 HD
ENDROOT
BRANCH   1   9
ATOM      9  C   UNL     1      -7.367  -2.544  -1.120  0.00  0.00    +0.178 C 
BRANCH   9  11
ATOM     10  N   UNL     1      -5.155  -1.839  -0.266  0.00  0.00    -0.284 N 
ATOM     11  C   UNL     1      -5.888  -2.312  -1.293  0.00  0.00    +0.240 C 
ATOM     12  O   UNL     1      -5.357  -2.552  -2.357  0.00  0.00    -0.273 OA
ATOM     13  H   UNL     1      -5.570  -1.694   0.599  0.00  0.00    +0.155 HD
BRANCH  10  17
ATOM     14  C   UNL     1      -1.109  -1.004  -0.802  0.00  0.00    -0.048 A 
ATOM     15  C   UNL     1      -1.875  -0.202   0.023  0.00  0.00    +0.005 A 
ATOM     16  C   UNL     1      -3.217  -0.476   0.203  0.00  0.00    +0.023 A 
ATOM     17  C   UNL     1      -3.796  -1.558  -0.446  0.00  0.00    +0.033 A 
ATOM     18  C   UNL     1      -3.024  -2.362  -1.275  0.00  0.00    +0.023 A 
ATOM     19  C   UNL     1      -1.684  -2.079  -1.454  0.00  0.00    +0.005 A 
BRANCH  14  21
ATOM     20  C   UNL     1       0.526   0.252  -2.180  0.00  0.00    +0.009 C 
ATOM     21  C   UNL     1       0.355  -0.702  -0.996  0.00  0.00    +0.032 C 
ENDBRANCH  14  21
ENDBRANCH  10  17
ENDBRANCH   9  11
BRANCH   9  22
ATOM     22  C   UNL     1      -7.592  -3.828  -0.319  0.00  0.00    +0.031 C 
ATOM     23  C   UNL     1      -7.101  -3.627   1.115  0.00  0.00    +0.006 C 
ENDBRANCH   9  22
ENDBRANCH   1   9
BRANCH   5  24
ATOM     24  S   UNL     1      -9.723  -0.499  -2.108  0.00  0.00    -0.086 S 
BRANCH  24  25
ATOM     25  C   UNL     1     -10.944   0.125  -3.296  0.00  0.00    +0.082 C 
BRANCH  25  26
ATOM     26  C   UNL     1     -11.667   1.333  -2.697  0.00  0.00    +0.046 C 
BRANCH  26  27
ATOM     27  C   UNL     1     -12.681   1.851  -3.684  0.00  0.00    -0.047 A 
ATOM     28  C   UNL     1     -12.318   2.812  -4.608  0.00  0.00    +0.003 A 
ATOM     29  C   UNL     1     -13.248   3.288  -5.513  0.00  0.00    +0.000 A 
ATOM     30  C   UNL     1     -14.542   2.802  -5.494  0.00  0.00    +0.000 A 
ATOM     31  C   UNL     1     -14.905   1.840  -4.571  0.00  0.00    +0.000 A 
ATOM     32  C   UNL     1     -13.974   1.361  -3.668  0.00  0.00    +0.003 A 
ENDBRANCH  26  27
ENDBRANCH  25  26
ENDBRANCH  24  25
ENDBRANCH   5  24
TORSDOF 9
