REMARK  Name = ZINC67405026
REMARK  10 active torsions:
REMARK  status: ('A' for Active; 'I' for Inactive)
REMARK    1  A    between atoms: C_1  and  C_2
REMARK    2  A    between atoms: C_2  and  C_4
REMARK    3  A    between atoms: C_2  and  C_26
REMARK    4  A    between atoms: C_4  and  N_5
REMARK    5  A    between atoms: N_5  and  C_6
REMARK    6  A    between atoms: N_9  and  C_10
REMARK    7  A    between atoms: C_10  and  C_12
REMARK    8  A    between atoms: C_10  and  C_13
REMARK    9  A    between atoms: C_16  and  N_19
REMARK   10  A    between atoms: N_22  and  C_23
REMARK                            x       y       z     vdW  Elec       q    Type
REMARK                         _______ _______ _______ _____ _____    ______ ____
ROOT
ATOM      1  C   UNL     1      -2.510  -1.526   4.670  0.00  0.00    +0.102 C 
ATOM      2  C   UNL     1      -1.218  -1.467   5.487  0.00  0.00    +0.033 C 
ENDROOT
BRANCH   1   7
ATOM      3  N   UNL     1      -1.838   0.183   1.485  0.00  0.00    -0.288 N 
ATOM      4  C   UNL     1      -2.459   1.490   1.719  0.00  0.00    +0.133 C 
ATOM      5  C   UNL     1      -1.871  -0.760   2.447  0.00  0.00    +0.302 C 
ATOM      6  O   UNL     1      -1.356  -1.844   2.253  0.00  0.00    -0.253 OA
ATOM      7  N   UNL     1      -2.475  -0.501   3.624  0.00  0.00    -0.293 N 
ATOM      8  H   UNL     1      -2.885   0.364   3.779  0.00  0.00    +0.151 HD
BRANCH   3   9
ATOM      9  C   UNL     1      -1.182  -0.098   0.206  0.00  0.00    +0.117 C 
BRANCH   9  11
ATOM     10  C   UNL     1       0.401   1.816   0.476  0.00  0.00    +0.014 C 
ATOM     11  C   UNL     1       0.292   0.301   0.290  0.00  0.00    +0.033 C 
BRANCH  11  12
ATOM     12  C   UNL     1       0.995  -0.100  -0.981  0.00  0.00    -0.043 A 
ATOM     13  C   UNL     1       0.582   0.421  -2.193  0.00  0.00    +0.004 A 
ATOM     14  C   UNL     1       1.226   0.052  -3.359  0.00  0.00    +0.000 A 
ATOM     15  C   UNL     1       2.284  -0.836  -3.313  0.00  0.00    +0.000 A 
ATOM     16  C   UNL     1       2.698  -1.356  -2.101  0.00  0.00    +0.000 A 
ATOM     17  C   UNL     1       2.056  -0.984  -0.935  0.00  0.00    +0.004 A 
ENDBRANCH  11  12
ENDBRANCH   9  11
ENDBRANCH   3   9
ENDBRANCH   1   7
BRANCH   1  18
ATOM     18  C   UNL     1      -3.689  -1.279   5.576  0.00  0.00    -0.027 A 
ATOM     19  C   UNL     1      -4.023   0.013   5.937  0.00  0.00    +0.007 A 
ATOM     20  C   UNL     1      -5.103   0.243   6.767  0.00  0.00    +0.023 A 
ATOM     21  C   UNL     1      -5.853  -0.826   7.239  0.00  0.00    +0.035 A 
ATOM     22  C   UNL     1      -5.515  -2.122   6.875  0.00  0.00    +0.023 A 
ATOM     23  C   UNL     1      -4.438  -2.345   6.040  0.00  0.00    +0.007 A 
BRANCH  21  24
ATOM     24  N   UNL     1      -6.947  -0.596   8.081  0.00  0.00    -0.269 N 
ATOM     25  C   UNL     1      -7.690   0.518   7.931  0.00  0.00    +0.304 C 
ATOM     26  O   UNL     1      -7.471   1.276   7.006  0.00  0.00    -0.253 OA
ATOM     27  N   UNL     1      -8.677   0.793   8.807  0.00  0.00    -0.296 N 
ATOM     28  H   UNL     1      -7.171  -1.239   8.772  0.00  0.00    +0.156 HD
ATOM     29  H   UNL     1      -8.852   0.189   9.546  0.00  0.00    +0.151 HD
BRANCH  27  30
ATOM     30  C   UNL     1      -9.485   2.004   8.645  0.00  0.00    +0.075 C 
ATOM     31  C   UNL     1      -9.786   2.826   9.900  0.00  0.00    +0.024 C 
ATOM     32  C   UNL     1     -10.893   2.000   9.242  0.00  0.00    +0.024 C 
ENDBRANCH  27  30
ENDBRANCH  21  24
ENDBRANCH   1  18
TORSDOF 7
