REMARK  Name = ZINC63473003
REMARK  4 active torsions:
REMARK  status: ('A' for Active; 'I' for Inactive)
REMARK    1  A    between atoms: C_1  and  C_2
REMARK    2  A    between atoms: C_16  and  C_19
REMARK    3  A    between atoms: C_19  and  C_20
REMARK    4  A    between atoms: N_31  and  C_34
REMARK                            x       y       z     vdW  Elec       q    Type
REMARK                         _______ _______ _______ _____ _____    ______ ____
ROOT
ATOM      1  C   UNL     1      -0.018   1.503   0.010  0.00  0.00    +0.046 C 
ATOM      2  C   UNL     1       0.002  -0.004   0.002  0.00  0.00    -0.028 A 
ATOM      3  C   UNL     1       0.006  -0.685  -1.198  0.00  0.00    +0.025 A 
ATOM      4  C   UNL     1       0.025  -2.068  -1.216  0.00  0.00    +0.042 A 
ATOM      5  C   UNL     1       0.040  -2.772  -0.023  0.00  0.00    +0.027 A 
ATOM      6  C   UNL     1       0.036  -2.096   1.176  0.00  0.00    +0.005 A 
ATOM      7  C   UNL     1       0.023  -0.704   1.205  0.00  0.00    +0.042 A 
ATOM      8  N   UNL     1       0.029  -0.249   2.526  0.00  0.00    -0.283 N 
ATOM      9  C   UNL     1       0.048  -1.263   3.413  0.00  0.00    +0.243 C 
ATOM     10  O   UNL     1       0.055  -1.167   4.622  0.00  0.00    -0.273 OA
ATOM     11  C   UNL     1       0.045  -2.537   2.612  0.00  0.00    +0.136 C 
ATOM     12  C   UNL     1       1.281  -3.386   2.935  0.00  0.00    +0.122 C 
ATOM     13  C   UNL     1       0.773  -4.439   3.960  0.00  0.00    +0.107 C 
ATOM     14  C   UNL     1      -0.717  -4.100   4.172  0.00  0.00    +0.072 C 
ATOM     15  N   UNL     1      -1.121  -3.383   2.927  0.00  0.00    -0.295 NA
ATOM     16  C   UNL     1       0.903  -5.745   3.212  0.00  0.00    +0.227 C 
ATOM     17  O   UNL     1       0.602  -6.836   3.649  0.00  0.00    -0.275 OA
ATOM     18  N   UNL     1       1.401  -5.512   1.993  0.00  0.00    -0.238 N 
ATOM     19  C   UNL     1       1.662  -4.211   1.727  0.00  0.00    +0.228 C 
ATOM     20  O   UNL     1       2.121  -3.771   0.695  0.00  0.00    -0.275 OA
ATOM     21 CL   UNL     1       0.029  -2.920  -2.729  0.00  0.00    -0.084 Cl
ATOM     22  H   UNL     1       0.021   0.688   2.776  0.00  0.00    +0.155 HD
ATOM     23  H   UNL     1      -1.943  -2.820   3.089  0.00  0.00    +0.124 HD
ENDROOT
BRANCH  18  24
ATOM     24  C   UNL     1       1.654  -6.580   1.022  0.00  0.00    +0.084 C 
ATOM     25  C   UNL     1       0.343  -7.305   0.710  0.00  0.00    +0.023 C 
ATOM     26  C   UNL     1       0.607  -8.421  -0.304  0.00  0.00    +0.002 C 
ATOM     27  C   UNL     1       1.613  -9.414   0.281  0.00  0.00    +0.000 C 
ATOM     28  C   UNL     1       2.923  -8.688   0.593  0.00  0.00    +0.002 C 
ATOM     29  C   UNL     1       2.660  -7.573   1.606  0.00  0.00    +0.023 C 
ENDBRANCH  18  24
BRANCH  14  30
ATOM     30  C   UNL     1      -1.538  -5.383   4.322  0.00  0.00    +0.052 C 
BRANCH  30  31
ATOM     31  C   UNL     1      -2.966  -5.030   4.650  0.00  0.00    -0.040 C 
ATOM     32  C   UNL     1      -3.994  -4.909   3.779  0.00  0.00    -0.001 A 
ATOM     33  C   UNL     1      -4.087  -5.063   2.323  0.00  0.00    +0.010 A 
ATOM     34  C   UNL     1      -5.281  -4.873   1.718  0.00  0.00    +0.001 A 
ATOM     35  C   UNL     1      -6.430  -4.533   2.445  0.00  0.00    +0.002 A 
ATOM     36  C   UNL     1      -6.424  -4.374   3.785  0.00  0.00    +0.026 A 
ATOM     37  C   UNL     1      -5.222  -4.550   4.525  0.00  0.00    +0.043 A 
ATOM     38  N   UNL     1      -4.963  -4.453   5.806  0.00  0.00    -0.380 N 
ATOM     39  C   UNL     1      -3.541  -4.745   6.019  0.00  0.00    +0.144 C 
ATOM     40  H   UNL     1      -5.605  -4.229   6.498  0.00  0.00    +0.160 HD
ENDBRANCH  30  31
ENDBRANCH  14  30
TORSDOF 3
