REMARK  Name = ZINC49741149
REMARK  6 active torsions:
REMARK  status: ('A' for Active; 'I' for Inactive)
REMARK    1  A    between atoms: C_1  and  C_2
REMARK    2  A    between atoms: C_5  and  O_26
REMARK    3  A    between atoms: C_6  and  S_8
REMARK    4  A    between atoms: S_8  and  N_11
REMARK    5  A    between atoms: N_11  and  C_12
REMARK    6  A    between atoms: O_26  and  C_27
REMARK                            x       y       z     vdW  Elec       q    Type
REMARK                         _______ _______ _______ _____ _____    ______ ____
ROOT
ATOM      1  C   UNL     1      -1.555  -4.933   2.043  0.00  0.00    +0.048 A 
ATOM      2  C   UNL     1      -1.370  -4.900   0.666  0.00  0.00    +0.026 A 
ATOM      3  C   UNL     1      -1.603  -6.027  -0.093  0.00  0.00    +0.025 A 
ATOM      4  C   UNL     1      -2.023  -7.208   0.513  0.00  0.00    +0.038 A 
ATOM      5  C   UNL     1      -2.203  -7.234   1.892  0.00  0.00    -0.009 A 
ATOM      6  C   UNL     1      -1.968  -6.111   2.653  0.00  0.00    +0.031 A 
ATOM      7  C   UNL     1      -2.648  -8.632   2.226  0.00  0.00    +0.074 C 
ATOM      8  C   UNL     1      -4.028  -8.627   2.898  0.00  0.00    +0.021 C 
ATOM      9  C   UNL     1      -3.951  -9.790   3.921  0.00  0.00    +0.001 C 
ATOM     10  C   UNL     1      -2.493  -9.697   4.439  0.00  0.00    +0.001 C 
ATOM     11  C   UNL     1      -1.671  -9.310   3.190  0.00  0.00    +0.021 C 
ATOM     12  C   UNL     1      -2.694  -9.350   0.903  0.00  0.00    +0.228 C 
ATOM     13  O   UNL     1      -3.007 -10.507   0.719  0.00  0.00    -0.274 OA
ATOM     14  N   UNL     1      -2.319  -8.460  -0.036  0.00  0.00    -0.284 N 
ATOM     15  H   UNL     1      -2.262  -8.664  -0.983  0.00  0.00    +0.155 HD
ENDROOT
BRANCH   1  16
ATOM     16  N   UNL     1      -1.320  -3.788   2.811  0.00  0.00    -0.216 N 
ATOM     17  H   UNL     1      -1.961  -3.517   3.486  0.00  0.00    +0.174 HD
BRANCH  16  18
ATOM     18  S   UNL     1       0.054  -2.895   2.568  0.00  0.00    +0.076 S 
ATOM     19  O   UNL     1       0.058  -1.878   3.561  0.00  0.00    -0.150 OA
ATOM     20  O   UNL     1       0.108  -2.604   1.179  0.00  0.00    -0.150 OA
BRANCH  18  26
ATOM     21  C   UNL     1       4.342  -5.487   1.082  0.00  0.00    +0.044 C 
ATOM     22  C   UNL     1       3.383  -5.112   2.183  0.00  0.00    -0.048 A 
ATOM     23  C   UNL     1       3.581  -5.593   3.465  0.00  0.00    +0.007 A 
ATOM     24  C   UNL     1       2.704  -5.251   4.475  0.00  0.00    +0.048 A 
ATOM     25  C   UNL     1       1.622  -4.425   4.203  0.00  0.00    +0.147 A 
ATOM     26  C   UNL     1       1.426  -3.945   2.917  0.00  0.00    +0.150 A 
ATOM     27  C   UNL     1       2.309  -4.285   1.911  0.00  0.00    +0.036 A 
BRANCH  25  28
ATOM     28  O   UNL     1       0.757  -4.088   5.196  0.00  0.00    -0.493 OA
ATOM     29  C   UNL     1       0.954  -4.711   6.467  0.00  0.00    +0.277 C 
ENDBRANCH  25  28
ENDBRANCH  18  26
ENDBRANCH  16  18
ENDBRANCH   1  16
TORSDOF 4
