REMARK  Name = ZINC09420056
REMARK  11 active torsions:
REMARK  status: ('A' for Active; 'I' for Inactive)
REMARK    1  A    between atoms: C_1  and  C_2
REMARK    2  A    between atoms: C_7  and  C_8
REMARK    3  A    between atoms: C_7  and  N_61
REMARK    4  A    between atoms: C_9  and  O_31
REMARK    5  A    between atoms: C_16  and  C_17
REMARK    6  A    between atoms: C_19  and  O_27
REMARK    7  A    between atoms: C_20  and  O_25
REMARK    8  A    between atoms: C_21  and  O_23
REMARK    9  A    between atoms: O_23  and  C_24
REMARK   10  A    between atoms: O_25  and  C_26
REMARK   11  A    between atoms: O_27  and  C_28
REMARK                            x       y       z     vdW  Elec       q    Type
REMARK                         _______ _______ _______ _____ _____    ______ ____
ROOT
ATOM      1  C   UNL     1      -1.417   5.110  -1.786  0.00  0.00    +0.020 A 
ATOM      2  C   UNL     1      -2.665   5.552  -1.376  0.00  0.00    +0.122 A 
ATOM      3  C   UNL     1      -3.022   6.891  -1.514  0.00  0.00    +0.046 A 
ATOM      4  C   UNL     1      -2.145   7.782  -2.065  0.00  0.00    +0.019 A 
ATOM      5  C   UNL     1      -0.887   7.349  -2.487  0.00  0.00    +0.068 A 
ATOM      6  C   UNL     1      -0.514   6.003  -2.349  0.00  0.00    +0.144 A 
ATOM      7  O   UNL     1       0.738   5.826  -2.824  0.00  0.00    -0.451 OA
ATOM      8  C   UNL     1       1.267   6.982  -3.291  0.00  0.00    +0.176 C 
ATOM      9  C   UNL     1       2.502   7.138  -3.832  0.00  0.00    +0.058 C 
ATOM     10  C   UNL     1       0.260   8.037  -3.106  0.00  0.00    +0.231 C 
ATOM     11  O   UNL     1       0.354   9.217  -3.399  0.00  0.00    -0.283 OA
ENDROOT
BRANCH   9  12
ATOM     12  C   UNL     1       3.347   5.964  -4.082  0.00  0.00    -0.014 A 
ATOM     13  C   UNL     1       2.825   4.675  -3.918  0.00  0.00    +0.057 A 
ATOM     14  C   UNL     1       3.621   3.573  -4.161  0.00  0.00    +0.166 A 
ATOM     15  C   UNL     1       4.946   3.742  -4.557  0.00  0.00    +0.204 A 
ATOM     16  C   UNL     1       5.471   5.022  -4.716  0.00  0.00    +0.166 A 
ATOM     17  C   UNL     1       4.679   6.130  -4.481  0.00  0.00    +0.057 A 
BRANCH  16  18
ATOM     18  O   UNL     1       6.765   5.183  -5.103  0.00  0.00    -0.491 OA
ATOM     19  C   UNL     1       7.239   6.523  -5.246  0.00  0.00    +0.277 C 
ENDBRANCH  16  18
BRANCH  15  20
ATOM     20  O   UNL     1       5.728   2.655  -4.790  0.00  0.00    -0.488 OA
ATOM     21  C   UNL     1       6.467   2.138  -3.681  0.00  0.00    +0.277 C 
ENDBRANCH  15  20
BRANCH  14  22
ATOM     22  O   UNL     1       3.113   2.321  -4.007  0.00  0.00    -0.491 OA
ATOM     23  C   UNL     1       1.748   2.220  -3.599  0.00  0.00    +0.277 C 
ENDBRANCH  14  22
ENDBRANCH   9  12
BRANCH   2  24
ATOM     24  O   UNL     1      -3.545   4.674  -0.832  0.00  0.00    -0.506 OA
ATOM     25  H   UNL     1      -3.475   4.591   0.129  0.00  0.00    +0.292 HD
ENDBRANCH   2  24
BRANCH   1  26
ATOM     26  C   UNL     1      -1.043   3.659  -1.627  0.00  0.00    -0.036 C 
BRANCH  26  33
ATOM     27  C   UNL     1       0.627   2.436   3.701  0.00  0.00    +0.007 C 
ATOM     28  C   UNL     1      -0.193   2.550   2.415  0.00  0.00    -0.018 C 
ATOM     29  C   UNL     1       0.553   1.859   1.270  0.00  0.00    -0.016 C 
ATOM     30  C   UNL     1      -0.241   2.028  -0.027  0.00  0.00    -0.078 C 
ATOM     31  C   UNL     1      -1.161   4.133   0.744  0.00  0.00    -0.078 C 
ATOM     32  C   UNL     1      -0.395   4.027   2.064  0.00  0.00    -0.016 C 
ATOM     33  N   UNL     1      -0.379   3.471  -0.321  0.00  0.00    +0.383 N 
ATOM     34  H   UNL     1       0.557   3.893  -0.358  0.00  0.00    -0.081 HD
ENDBRANCH  26  33
ENDBRANCH   1  26
TORSDOF 7
