REMARK  Name = ZINC00876513
REMARK  6 active torsions:
REMARK  status: ('A' for Active; 'I' for Inactive)
REMARK    1  A    between atoms: C_1  and  C_2
REMARK    2  A    between atoms: C_7  and  C_8
REMARK    3  A    between atoms: C_18  and  C_30
REMARK    4  A    between atoms: C_19  and  C_20
REMARK    5  A    between atoms: N_22  and  C_23
REMARK    6  A    between atoms: C_28  and  C_29
REMARK                            x       y       z     vdW  Elec       q    Type
REMARK                         _______ _______ _______ _____ _____    ______ ____
ROOT
ATOM      1  C   UNL     1       0.938   0.980  -0.137  0.00  0.00    +0.091 C 
ATOM      2  C   UNL     1       0.570   0.210  -1.381  0.00  0.00    +0.024 C 
ATOM      3  C   UNL     1       0.896  -1.094  -1.506  0.00  0.00    +0.015 C 
ATOM      4  C   UNL     1       0.534  -1.870  -2.748  0.00  0.00    +0.051 C 
ATOM      5  C   UNL     1      -0.755  -1.306  -3.349  0.00  0.00    +0.014 C 
ATOM      6  C   UNL     1      -0.537   0.178  -3.662  0.00  0.00    +0.080 C 
ATOM      7  C   UNL     1      -0.120   0.886  -2.401  0.00  0.00    +0.162 C 
ATOM      8  O   UNL     1      -0.385   2.064  -2.264  0.00  0.00    -0.292 OA
ATOM      9  N   UNL     1       1.568  -1.741  -0.504  0.00  0.00    -0.321 N 
ATOM     10  C   UNL     1       2.266  -1.034   0.436  0.00  0.00    +0.014 C 
ATOM     11  C   UNL     1       2.004   0.267   0.642  0.00  0.00    +0.043 C 
ATOM     12  C   UNL     1       3.338  -1.718   1.244  0.00  0.00    +0.061 C 
ATOM     13  H   UNL     1       1.549  -2.840  -0.449  0.00  0.00    +0.152 HD
ENDROOT
BRANCH   1  20
ATOM     14  C   UNL     1       0.117   3.607   0.742  0.00  0.00    +0.044 C 
ATOM     15  C   UNL     1      -0.679   2.393   1.148  0.00  0.00    -0.046 A 
ATOM     16  C   UNL     1      -1.802   2.537   1.941  0.00  0.00    +0.003 A 
ATOM     17  C   UNL     1      -2.533   1.424   2.313  0.00  0.00    +0.000 A 
ATOM     18  C   UNL     1      -2.143   0.168   1.889  0.00  0.00    +0.000 A 
ATOM     19  C   UNL     1      -1.016   0.023   1.100  0.00  0.00    +0.005 A 
ATOM     20  C   UNL     1      -0.286   1.137   0.728  0.00  0.00    -0.032 A 
ENDBRANCH   1  20
BRANCH  11  21
ATOM     21  C   UNL     1       2.747   0.980   1.615  0.00  0.00    +0.247 C 
ATOM     22  O   UNL     1       3.681   1.682   1.273  0.00  0.00    -0.270 OA
ATOM     23  N   UNL     1       2.420   0.881   2.919  0.00  0.00    -0.281 N 
ATOM     24  H   UNL     1       1.636   0.178   3.237  0.00  0.00    +0.155 HD
BRANCH  23  25
ATOM     25  C   UNL     1       3.076   1.673   3.866  0.00  0.00    +0.037 A 
ATOM     26  C   UNL     1       4.407   2.023   3.679  0.00  0.00    +0.023 A 
ATOM     27  C   UNL     1       5.051   2.809   4.614  0.00  0.00    +0.002 A 
ATOM     28  C   UNL     1       4.375   3.239   5.741  0.00  0.00    +0.000 A 
ATOM     29  C   UNL     1       3.052   2.888   5.934  0.00  0.00    +0.005 A 
ATOM     30  C   UNL     1       2.401   2.106   4.999  0.00  0.00    -0.029 A 
ATOM     31  C   UNL     1       0.958   1.724   5.210  0.00  0.00    +0.045 C 
ENDBRANCH  23  25
ENDBRANCH  11  21
TORSDOF 3
