REMARK  Name = ZINC32879186
REMARK  10 active torsions:
REMARK  status: ('A' for Active; 'I' for Inactive)
REMARK    1  A    between atoms: C_1  and  C_2
REMARK    2  A    between atoms: C_3  and  C_14
REMARK    3  A    between atoms: C_4  and  C_13
REMARK    4  A    between atoms: N_5  and  C_7
REMARK    5  A    between atoms: N_21  and  C_22
REMARK    6  A    between atoms: C_22  and  C_23
REMARK    7  A    between atoms: C_23  and  C_25
REMARK    8  A    between atoms: C_23  and  O_34
REMARK    9  A    between atoms: C_25  and  O_26
REMARK   10  A    between atoms: O_26  and  C_27
REMARK                            x       y       z     vdW  Elec       q    Type
REMARK                         _______ _______ _______ _____ _____    ______ ____
ROOT
ATOM      1  C   UNL     1       0.317   1.421   0.054  0.00  0.00    +0.054 C 
ATOM      2  C   UNL     1      -0.249   1.878  -1.261  0.00  0.00    +0.204 C 
ATOM      3  O   UNL     1       0.489   1.940  -2.221  0.00  0.00    -0.277 OA
ATOM      4  N   UNL     1      -1.533   2.219  -1.417  0.00  0.00    -0.318 N 
ATOM      5  C   UNL     1      -2.494   2.214  -0.318  0.00  0.00    +0.085 C 
ATOM      6  C   UNL     1      -1.962   1.368   0.840  0.00  0.00    -0.058 C 
ATOM      7  N   UNL     1      -0.591   1.797   1.146  0.00  0.00    +0.393 N 
ATOM      8  H   UNL     1      -1.853   2.513  -2.427  0.00  0.00    +0.149 HD
ATOM      9  H   UNL     1      -0.581   2.893   1.242  0.00  0.00    -0.080 HD
ENDROOT
BRANCH   1  12
ATOM     10  C   UNL     1       0.814   4.437   0.889  0.00  0.00    +0.068 C 
ATOM     11  C   UNL     1       1.880   3.401   0.642  0.00  0.00    +0.063 A 
ATOM     12  C   UNL     1       1.659   2.069   0.273  0.00  0.00    -0.009 A 
ATOM     13  C   UNL     1       2.864   1.465   0.153  0.00  0.00    +0.044 A 
ATOM     14  N   UNL     1       3.815   2.386   0.429  0.00  0.00    -0.237 N 
ATOM     15  N   UNL     1       3.171   3.591   0.736  0.00  0.00    -0.171 NA
ATOM     16  C   UNL     1       3.103   0.026  -0.223  0.00  0.00    +0.066 C 
BRANCH  14  17
ATOM     17  C   UNL     1       5.200   2.171   0.416  0.00  0.00    +0.066 A 
ATOM     18  C   UNL     1       5.998   2.711   1.415  0.00  0.00    +0.028 A 
ATOM     19  C   UNL     1       7.362   2.494   1.402  0.00  0.00    +0.002 A 
ATOM     20  C   UNL     1       7.934   1.747   0.389  0.00  0.00    +0.000 A 
ATOM     21  C   UNL     1       7.143   1.212  -0.611  0.00  0.00    +0.002 A 
ATOM     22  C   UNL     1       5.778   1.421  -0.601  0.00  0.00    +0.028 A 
ENDBRANCH  14  17
ENDBRANCH   1  12
BRANCH   7  23
ATOM     23  C   UNL     1      -0.138   1.232   2.424  0.00  0.00    -0.042 C 
BRANCH  23  24
ATOM     24  C   UNL     1      -0.809   1.979   3.579  0.00  0.00    +0.135 C 
BRANCH  24  25
ATOM     25  O   UNL     1      -2.212   1.712   3.567  0.00  0.00    -0.390 OA
ATOM     26  H   UNL     1      -2.865   2.167   4.328  0.00  0.00    +0.210 HD
ENDBRANCH  24  25
BRANCH  24  27
ATOM     27  C   UNL     1      -0.211   1.509   4.906  0.00  0.00    +0.258 C 
BRANCH  27  28
ATOM     28  O   UNL     1      -0.752   2.289   5.975  0.00  0.00    -0.489 OA
BRANCH  28  29
ATOM     29  C   UNL     1      -0.322   1.997   7.231  0.00  0.00    +0.121 A 
ATOM     30  C   UNL     1       0.598   0.978   7.431  0.00  0.00    +0.047 A 
ATOM     31  C   UNL     1       1.037   0.686   8.707  0.00  0.00    +0.023 A 
ATOM     32  C   UNL     1       0.553   1.403   9.787  0.00  0.00    +0.041 A 
ATOM     33  C   UNL     1      -0.369   2.416   9.591  0.00  0.00    +0.023 A 
ATOM     34  C   UNL     1      -0.807   2.714   8.315  0.00  0.00    +0.047 A 
ATOM     35 CL   UNL     1       1.102   1.030  11.392  0.00  0.00    -0.084 Cl
ENDBRANCH  28  29
ENDBRANCH  27  28
ENDBRANCH  24  27
ENDBRANCH  23  24
ENDBRANCH   7  23
TORSDOF 8
