REMARK  Name = ZINC33125870
REMARK  9 active torsions:
REMARK  status: ('A' for Active; 'I' for Inactive)
REMARK    1  A    between atoms: C_1  and  C_2
REMARK    2  A    between atoms: C_2  and  C_3
REMARK    3  A    between atoms: C_2  and  C_4
REMARK    4  A    between atoms: C_4  and  C_5
REMARK    5  A    between atoms: C_5  and  N_6
REMARK    6  A    between atoms: N_9  and  C_10
REMARK    7  A    between atoms: C_10  and  C_11
REMARK    8  A    between atoms: C_11  and  C_12
REMARK    9  A    between atoms: N_20  and  C_21
REMARK                            x       y       z     vdW  Elec       q    Type
REMARK                         _______ _______ _______ _____ _____    ______ ____
ROOT
ATOM      1  C   UNL     1       5.986   2.691   1.288  0.00  0.00    -0.007 C 
ATOM      2  C   UNL     1       5.507   1.480   2.092  0.00  0.00    +0.022 C 
ATOM      3  C   UNL     1       4.693   0.556   1.182  0.00  0.00    +0.109 C 
ATOM      4  N   UNL     1       3.612   1.335   0.562  0.00  0.00    -0.286 N 
ATOM      5  C   UNL     1       3.954   2.565  -0.165  0.00  0.00    +0.109 C 
ATOM      6  C   UNL     1       4.776   3.470   0.766  0.00  0.00    +0.022 C 
ATOM      7  C   UNL     1       2.331   0.926   0.654  0.00  0.00    +0.302 C 
ATOM      8  O   UNL     1       2.050  -0.043   1.333  0.00  0.00    -0.253 OA
ATOM      9  N   UNL     1       1.362   1.590  -0.006  0.00  0.00    -0.296 N 
ATOM     10  H   UNL     1       1.603   2.514  -0.553  0.00  0.00    +0.151 HD
ENDROOT
BRANCH   9  11
ATOM     11  C   UNL     1      -0.012   1.083   0.005  0.00  0.00    +0.074 C 
ATOM     12  C   UNL     1      -0.730   1.581   1.261  0.00  0.00    +0.022 C 
ATOM     13  C   UNL     1      -2.165   1.052   1.273  0.00  0.00    +0.002 C 
ATOM     14  C   UNL     1      -2.904   1.554   0.030  0.00  0.00    +0.000 C 
ATOM     15  C   UNL     1      -2.186   1.055  -1.226  0.00  0.00    +0.002 C 
ATOM     16  C   UNL     1      -0.751   1.585  -1.237  0.00  0.00    +0.022 C 
ENDBRANCH   9  11
BRANCH   1  17
ATOM     17  C   UNL     1       6.829   3.599   2.185  0.00  0.00    +0.022 C 
BRANCH  17  18
ATOM     18  C   UNL     1       7.410   4.742   1.352  0.00  0.00    +0.106 C 
BRANCH  18  22
ATOM     19  N   UNL     1       9.574   7.493   2.481  0.00  0.00    -0.299 N 
ATOM     20  C   UNL     1       8.832   6.692   1.690  0.00  0.00    +0.300 C 
ATOM     21  O   UNL     1       8.716   6.945   0.506  0.00  0.00    -0.253 OA
ATOM     22  N   UNL     1       8.217   5.612   2.211  0.00  0.00    -0.299 N 
ATOM     23  H   UNL     1       9.678   7.264   3.552  0.00  0.00    +0.150 HD
ATOM     24  H   UNL     1       8.321   5.383   3.282  0.00  0.00    +0.150 HD
BRANCH  19  25
ATOM     25  C   UNL     1      10.242   8.667   1.914  0.00  0.00    +0.106 C 
BRANCH  25  26
ATOM     26  C   UNL     1      11.012   9.397   3.016  0.00  0.00    +0.022 C 
BRANCH  26  28
ATOM     27  C   UNL     1      10.658  11.622   1.936  0.00  0.00    +0.007 C 
ATOM     28  C   UNL     1      11.709  10.623   2.425  0.00  0.00    -0.016 C 
ATOM     29  C   UNL     1      12.579  11.282   3.497  0.00  0.00    +0.007 C 
ENDBRANCH  26  28
ENDBRANCH  25  26
ENDBRANCH  19  25
ENDBRANCH  18  22
ENDBRANCH  17  18
ENDBRANCH   1  17
TORSDOF 7
