REMARK  Name = ZINC39695846
REMARK  11 active torsions:
REMARK  status: ('A' for Active; 'I' for Inactive)
REMARK    1  A    between atoms: C_1  and  C_2
REMARK    2  A    between atoms: C_9  and  C_11
REMARK    3  A    between atoms: C_11  and  C_13
REMARK    4  A    between atoms: C_11  and  N_14
REMARK    5  A    between atoms: C_15  and  C_17
REMARK    6  A    between atoms: C_28  and  C_30
REMARK    7  A    between atoms: C_30  and  C_32
REMARK    8  A    between atoms: C_30  and  O_35
REMARK    9  A    between atoms: C_32  and  C_33
REMARK   10  A    between atoms: C_32  and  C_34
REMARK   11  A    between atoms: O_35  and  C_36
REMARK                            x       y       z     vdW  Elec       q    Type
REMARK                         _______ _______ _______ _____ _____    ______ ____
ROOT
ATOM      1  C   UNL     1       2.520  -8.823   0.782  0.00  0.00    +0.100 C 
ATOM      2  C   UNL     1       1.280  -9.273  -0.023  0.00  0.00    +0.121 C 
ATOM      3  N   UNL     1       1.225 -10.742   0.165  0.00  0.00    -0.297 N 
ATOM      4  C   UNL     1       1.602 -10.947   1.584  0.00  0.00    +0.115 C 
ATOM      5  C   UNL     1       2.727  -9.924   1.836  0.00  0.00    -0.004 C 
ATOM      6  C   UNL     1       2.603  -9.340   3.240  0.00  0.00    -0.010 C 
ATOM      7  C   UNL     1       2.871 -10.440   4.271  0.00  0.00    -0.082 C 
ATOM      8  N   UNL     1       4.216 -10.990   4.065  0.00  0.00    +0.379 N 
ATOM      9  C   UNL     1       4.298 -11.632   2.747  0.00  0.00    -0.082 C 
ATOM     10  C   UNL     1       4.091 -10.582   1.652  0.00  0.00    -0.010 C 
ATOM     11  C   UNL     1       0.905 -11.681  -0.748  0.00  0.00    +0.257 C 
ATOM     12  O   UNL     1       0.808 -12.843  -0.415  0.00  0.00    -0.272 OA
ATOM     13  H   UNL     1       4.894 -10.245   4.117  0.00  0.00    -0.086 HD
ATOM     14  H   UNL     1       4.413 -11.672   4.782  0.00  0.00    -0.086 HD
ENDROOT
BRANCH   1  16
ATOM     15  N   UNL     1       3.291  -6.718   1.826  0.00  0.00    -0.305 N 
ATOM     16  C   UNL     1       2.258  -7.498   1.450  0.00  0.00    +0.219 C 
ATOM     17  O   UNL     1       1.119  -7.135   1.651  0.00  0.00    -0.275 OA
ATOM     18  H   UNL     1       4.202  -7.008   1.666  0.00  0.00    +0.149 HD
BRANCH  15  19
ATOM     19  C   UNL     1       3.037  -5.429   2.476  0.00  0.00    +0.136 C 
ATOM     20  C   UNL     1       2.804  -4.357   1.409  0.00  0.00    +0.036 C 
BRANCH  19  29
ATOM     21  C   UNL     1       8.030  -2.833   7.345  0.00  0.00    +0.044 C 
ATOM     22  C   UNL     1       7.400  -3.568   6.190  0.00  0.00    -0.048 A 
ATOM     23  C   UNL     1       8.187  -4.361   5.367  0.00  0.00    +0.005 A 
ATOM     24  C   UNL     1       7.636  -5.036   4.315  0.00  0.00    +0.030 A 
ATOM     25  C   UNL     1       6.266  -4.931   4.062  0.00  0.00    +0.089 A 
ATOM     26  C   UNL     1       5.468  -4.128   4.895  0.00  0.00    +0.067 A 
ATOM     27  C   UNL     1       6.045  -3.454   5.963  0.00  0.00    +0.031 A 
ATOM     28  N   UNL     1       4.183  -4.224   4.400  0.00  0.00    -0.340 N 
ATOM     29  C   UNL     1       4.226  -5.049   3.320  0.00  0.00    +0.128 A 
ATOM     30  N   UNL     1       5.444  -5.463   3.121  0.00  0.00    -0.231 NA
ATOM     31  H   UNL     1       3.395  -3.784   4.757  0.00  0.00    +0.167 HD
ENDBRANCH  19  29
ENDBRANCH  15  19
ENDBRANCH   1  16
BRANCH  11  32
ATOM     32  C   UNL     1       0.667 -11.286  -2.183  0.00  0.00    +0.261 C 
BRANCH  32  33
ATOM     33  C   UNL     1       1.995 -11.306  -2.944  0.00  0.00    +0.033 C 
ATOM     34  C   UNL     1       1.736 -11.039  -4.428  0.00  0.00    +0.011 C 
ATOM     35  C   UNL     1       2.920 -10.224  -2.384  0.00  0.00    +0.011 C 
ENDBRANCH  32  33
BRANCH  32  36
ATOM     36  O   UNL     1      -0.242 -12.208  -2.787  0.00  0.00    -0.479 OA
BRANCH  36  37
ATOM     37  C   UNL     1      -1.116 -11.705  -3.698  0.00  0.00    +0.122 A 
ATOM     38  C   UNL     1      -2.018 -12.547  -4.333  0.00  0.00    +0.045 A 
ATOM     39  C   UNL     1      -2.906 -12.033  -5.259  0.00  0.00    +0.004 A 
ATOM     40  C   UNL     1      -2.896 -10.682  -5.553  0.00  0.00    +0.000 A 
ATOM     41  C   UNL     1      -1.997  -9.842  -4.921  0.00  0.00    +0.004 A 
ATOM     42  C   UNL     1      -1.112 -10.349  -3.990  0.00  0.00    +0.045 A 
ENDBRANCH  36  37
ENDBRANCH  32  36
ENDBRANCH  11  32
TORSDOF 7
