REMARK  Name = ZINC33570402
REMARK  8 active torsions:
REMARK  status: ('A' for Active; 'I' for Inactive)
REMARK    1  A    between atoms: C_1  and  C_2
REMARK    2  A    between atoms: C_2  and  C_3
REMARK    3  A    between atoms: C_4  and  C_30
REMARK    4  A    between atoms: C_5  and  N_10
REMARK    5  A    between atoms: C_7  and  C_9
REMARK    6  A    between atoms: N_14  and  S_17
REMARK    7  A    between atoms: S_17  and  C_20
REMARK    8  A    between atoms: C_30  and  C_31
REMARK                            x       y       z     vdW  Elec       q    Type
REMARK                         _______ _______ _______ _____ _____    ______ ____
ROOT
ATOM      1  N   UNL     1      -2.220  -0.582  -1.481  0.00  0.00    -0.314 N 
ATOM      2  C   UNL     1      -0.878  -1.090  -1.202  0.00  0.00    +0.108 C 
ATOM      3  C   UNL     1      -0.898  -1.846   0.108  0.00  0.00    +0.036 C 
ATOM      4  C   UNL     1      -1.159  -3.338  -0.160  0.00  0.00    +0.111 C 
ATOM      5  N   UNL     1      -2.171  -3.523  -1.220  0.00  0.00    -0.175 NA
ATOM      6  C   UNL     1      -3.369  -2.713  -1.302  0.00  0.00    +0.128 C 
ATOM      7  C   UNL     1      -3.093  -1.460  -2.166  0.00  0.00    +0.123 C 
ENDROOT
BRANCH   1  10
ATOM      8  C   UNL     1      -2.353   3.029  -2.064  0.00  0.00    +0.024 A 
ATOM      9  C   UNL     1      -2.428   1.823  -1.395  0.00  0.00    +0.016 A 
ATOM     10  C   UNL     1      -2.164   0.652  -2.108  0.00  0.00    +0.128 A 
ATOM     11  N   UNL     1      -1.863   0.740  -3.401  0.00  0.00    -0.219 NA
ATOM     12  C   UNL     1      -1.802   1.912  -3.999  0.00  0.00    +0.106 A 
ATOM     13  N   UNL     1      -2.041   3.035  -3.352  0.00  0.00    -0.347 N 
ATOM     14  C   UNL     1      -1.451   1.970  -5.463  0.00  0.00    +0.086 C 
ATOM     15  H   UNL     1      -1.978   3.988  -3.898  0.00  0.00    +0.167 HD
BRANCH   8  17
ATOM     16  C   UNL     1      -1.299   4.940  -0.887  0.00  0.00    +0.010 C 
ATOM     17  C   UNL     1      -2.624   4.321  -1.338  0.00  0.00    +0.050 C 
ENDBRANCH   8  17
BRANCH   9  18
ATOM     18  C   UNL     1      -2.780   1.772   0.069  0.00  0.00    +0.075 C 
BRANCH  18  19
ATOM     19  C   UNL     1      -4.255   1.506   0.223  0.00  0.00    -0.043 A 
ATOM     20  C   UNL     1      -5.151   2.559   0.221  0.00  0.00    +0.004 A 
ATOM     21  C   UNL     1      -6.505   2.314   0.356  0.00  0.00    +0.000 A 
ATOM     22  C   UNL     1      -6.962   1.018   0.504  0.00  0.00    +0.000 A 
ATOM     23  C   UNL     1      -6.065  -0.035   0.511  0.00  0.00    +0.000 A 
ATOM     24  C   UNL     1      -4.712   0.210   0.370  0.00  0.00    +0.004 A 
ENDBRANCH  18  19
ENDBRANCH   9  18
ENDBRANCH   1  10
BRANCH   5  25
ATOM     25  S   UNL     1      -1.926  -4.701  -2.358  0.00  0.00    +0.061 S 
ATOM     26  O   UNL     1      -2.532  -4.239  -3.557  0.00  0.00    -0.153 OA
ATOM     27  O   UNL     1      -0.551  -5.055  -2.286  0.00  0.00    -0.153 OA
BRANCH  25  28
ATOM     28  C   UNL     1      -2.838  -6.118  -1.845  0.00  0.00    +0.113 A 
ATOM     29  C   UNL     1      -3.910  -6.540  -2.571  0.00  0.00    +0.029 A 
ATOM     30  C   UNL     1      -4.644  -7.659  -2.181  0.00  0.00    +0.003 A 
ATOM     31  C   UNL     1      -4.310  -8.362  -1.065  0.00  0.00    +0.008 A 
ATOM     32  C   UNL     1      -3.210  -7.957  -0.291  0.00  0.00    -0.016 A 
ATOM     33  C   UNL     1      -2.460  -6.822  -0.690  0.00  0.00    +0.008 A 
ATOM     34  C   UNL     1      -1.363  -6.413   0.087  0.00  0.00    +0.010 A 
ATOM     35  C   UNL     1      -1.029  -7.117   1.203  0.00  0.00    +0.001 A 
ATOM     36  C   UNL     1      -1.763  -8.235   1.593  0.00  0.00    +0.001 A 
ATOM     37  C   UNL     1      -2.835  -8.658   0.868  0.00  0.00    +0.008 A 
ENDBRANCH  25  28
ENDBRANCH   5  25
TORSDOF 6
