REMARK  Name = ZINC02209129
REMARK  7 active torsions:
REMARK  status: ('A' for Active; 'I' for Inactive)
REMARK    1  A    between atoms: C_1  and  C_2
REMARK    2  A    between atoms: C_5  and  C_8
REMARK    3  A    between atoms: C_14  and  C_31
REMARK    4  A    between atoms: C_19  and  C_21
REMARK    5  A    between atoms: C_24  and  C_27
REMARK    6  A    between atoms: C_27  and  O_29
REMARK    7  A    between atoms: O_29  and  C_30
REMARK                            x       y       z     vdW  Elec       q    Type
REMARK                         _______ _______ _______ _____ _____    ______ ____
ROOT
ATOM      1  C   UNL     1       0.059  -4.275  -0.021  0.00  0.00    +0.163 C 
ATOM      2  C   UNL     1       1.493  -4.729   0.140  0.00  0.00    +0.028 C 
ATOM      3  C   UNL     1       1.792  -5.521   1.191  0.00  0.00    +0.083 C 
ATOM      4  C   UNL     1       3.204  -5.952   1.345  0.00  0.00    +0.043 A 
ATOM      5  C   UNL     1       3.555  -7.002   2.183  0.00  0.00    +0.017 A 
ATOM      6  C   UNL     1       4.882  -7.371   2.294  0.00  0.00    -0.050 A 
ATOM      7  C   UNL     1       5.855  -6.700   1.575  0.00  0.00    +0.007 A 
ATOM      8  C   UNL     1       5.513  -5.653   0.738  0.00  0.00    +0.046 A 
ATOM      9  C   UNL     1       4.189  -5.271   0.618  0.00  0.00    +0.131 A 
ATOM     10  O   UNL     1       3.826  -4.242  -0.190  0.00  0.00    -0.479 OA
ATOM     11  C   UNL     1       2.556  -4.325  -0.839  0.00  0.00    +0.234 C 
ATOM     12  C   UNL     1       5.271  -8.509   3.203  0.00  0.00    +0.044 C 
ATOM     13  N   UNL     1       0.840  -5.908   2.075  0.00  0.00    -0.216 NA
ATOM     14  C   UNL     1      -0.424  -5.555   1.999  0.00  0.00    +0.209 C 
ATOM     15  N   UNL     1      -0.884  -4.752   1.001  0.00  0.00    -0.182 N 
ATOM     16  N   UNL     1      -2.251  -4.562   1.208  0.00  0.00    -0.169 NA
ATOM     17  C   UNL     1      -2.598  -5.214   2.271  0.00  0.00    +0.208 C 
ATOM     18  N   UNL     1      -1.505  -5.845   2.791  0.00  0.00    -0.275 N 
ATOM     19  H   UNL     1      -1.495  -6.400   3.586  0.00  0.00    +0.156 HD
ENDROOT
BRANCH   1  24
ATOM     20  C   UNL     1      -0.018   1.503   0.010  0.00  0.00    +0.044 C 
ATOM     21  C   UNL     1       0.002  -0.004   0.002  0.00  0.00    -0.050 A 
ATOM     22  C   UNL     1       0.006  -0.689  -1.199  0.00  0.00    +0.004 A 
ATOM     23  C   UNL     1       0.025  -2.071  -1.206  0.00  0.00    +0.006 A 
ATOM     24  C   UNL     1       0.040  -2.768  -0.013  0.00  0.00    -0.021 A 
ATOM     25  C   UNL     1       0.037  -2.084   1.188  0.00  0.00    +0.006 A 
ATOM     26  C   UNL     1       0.023  -0.702   1.195  0.00  0.00    +0.004 A 
ENDBRANCH   1  24
BRANCH  11  27
ATOM     27  C   UNL     1       2.628  -5.344  -1.946  0.00  0.00    -0.003 A 
ATOM     28  C   UNL     1       3.303  -6.535  -1.744  0.00  0.00    +0.008 A 
ATOM     29  C   UNL     1       3.373  -7.472  -2.753  0.00  0.00    +0.015 A 
ATOM     30  C   UNL     1       2.759  -7.218  -3.982  0.00  0.00    +0.059 A 
ATOM     31  C   UNL     1       2.079  -6.014  -4.179  0.00  0.00    +0.015 A 
ATOM     32  C   UNL     1       2.013  -5.088  -3.159  0.00  0.00    +0.008 A 
BRANCH  30  33
ATOM     33  C   UNL     1       2.830  -8.217  -5.067  0.00  0.00    +0.339 C 
ATOM     34  O   UNL     1       3.422  -9.263  -4.893  0.00  0.00    -0.245 OA
BRANCH  33  35
ATOM     35  O   UNL     1       2.237  -7.968  -6.251  0.00  0.00    -0.464 OA
ATOM     36  C   UNL     1       2.345  -8.978  -7.256  0.00  0.00    +0.280 C 
ENDBRANCH  33  35
ENDBRANCH  30  33
ENDBRANCH  11  27
TORSDOF 4
