REMARK  Name = ZINC06443920
REMARK  9 active torsions:
REMARK  status: ('A' for Active; 'I' for Inactive)
REMARK    1  A    between atoms: C_1  and  C_2
REMARK    2  A    between atoms: C_12  and  C_14
REMARK    3  A    between atoms: C_14  and  C_16
REMARK    4  A    between atoms: C_14  and  N_67
REMARK    5  A    between atoms: N_20  and  C_21
REMARK    6  A    between atoms: C_26  and  C_27
REMARK    7  A    between atoms: C_26  and  N_67
REMARK    8  A    between atoms: C_34  and  C_35
REMARK    9  A    between atoms: C_34  and  N_67
REMARK                            x       y       z     vdW  Elec       q    Type
REMARK                         _______ _______ _______ _____ _____    ______ ____
ROOT
ATOM      1  C   UNL     1       0.099  -2.972   4.530  0.00  0.00    +0.040 C 
ENDROOT
BRANCH   1  13
ATOM      2  C   UNL     1       3.589   1.419   1.104  0.00  0.00    +0.046 C 
ATOM      3  C   UNL     1       2.115   1.335   1.403  0.00  0.00    -0.026 A 
ATOM      4  C   UNL     1       1.256   2.301   0.925  0.00  0.00    +0.005 A 
ATOM      5  C   UNL     1      -0.105   2.232   1.189  0.00  0.00    +0.001 A 
ATOM      6  C   UNL     1      -0.618   1.210   1.937  0.00  0.00    +0.010 A 
ATOM      7  C   UNL     1       0.236   0.221   2.437  0.00  0.00    -0.001 A 
ATOM      8  C   UNL     1       1.616   0.285   2.166  0.00  0.00    +0.052 A 
ATOM      9  N   UNL     1       2.453  -0.693   2.661  0.00  0.00    -0.322 N 
ATOM     10  H   UNL     1       3.404  -0.647   2.474  0.00  0.00    +0.169 HD
ATOM     11  C   UNL     1       1.971  -1.708   3.399  0.00  0.00    +0.251 A 
ATOM     12  O   UNL     1       2.740  -2.554   3.820  0.00  0.00    -0.268 OA
ATOM     13  C   UNL     1       0.596  -1.818   3.698  0.00  0.00    +0.011 A 
ATOM     14  C   UNL     1      -0.279  -0.888   3.241  0.00  0.00    +0.017 A 
ENDBRANCH   1  13
BRANCH   1  15
ATOM     15  C   UNL     1      -1.351  -2.754   4.876  0.00  0.00    +0.143 A 
ATOM     16  N   UNL     1      -1.890  -1.647   5.326  0.00  0.00    -0.115 NA
ATOM     17  N   UNL     1      -3.149  -1.860   5.501  0.00  0.00    -0.023 NA
ATOM     18  N   UNL     1      -3.427  -3.073   5.174  0.00  0.00    -0.044 NA
ATOM     19  N   UNL     1      -2.346  -3.656   4.779  0.00  0.00    -0.227 N 
BRANCH  19  20
ATOM     20  C   UNL     1      -2.223  -5.040   4.314  0.00  0.00    +0.111 C 
ATOM     21  C   UNL     1      -3.152  -5.276   3.106  0.00  0.00    +0.027 C 
ATOM     22  C   UNL     1      -3.678  -6.720   3.309  0.00  0.00    +0.002 C 
ATOM     23  C   UNL     1      -3.872  -6.801   4.843  0.00  0.00    +0.002 C 
ATOM     24  C   UNL     1      -2.679  -6.009   5.418  0.00  0.00    +0.027 C 
ENDBRANCH  19  20
ENDBRANCH   1  15
BRANCH   1  25
ATOM     25  N   UNL     1       0.917  -3.059   5.758  0.00  0.00    +0.397 N 
ATOM     26  H   UNL     1       1.907  -2.949   5.508  0.00  0.00    -0.079 HD
BRANCH  25  27
ATOM     27  C   UNL     1       0.728  -4.378   6.398  0.00  0.00    -0.041 C 
BRANCH  27  28
ATOM     28  C   UNL     1       1.744  -4.533   7.501  0.00  0.00    -0.064 A 
ATOM     29  C   UNL     1       3.024  -4.962   7.205  0.00  0.00    +0.003 A 
ATOM     30  C   UNL     1       3.958  -5.098   8.216  0.00  0.00    +0.020 A 
ATOM     31  C   UNL     1       3.607  -4.816   9.524  0.00  0.00    +0.041 A 
ATOM     32  C   UNL     1       2.324  -4.393   9.819  0.00  0.00    +0.020 A 
ATOM     33  C   UNL     1       1.393  -4.251   8.808  0.00  0.00    +0.003 A 
ATOM     34 CL   UNL     1       4.777  -4.994  10.794  0.00  0.00    -0.084 Cl
ENDBRANCH  27  28
ENDBRANCH  25  27
BRANCH  25  35
ATOM     35  C   UNL     1       0.536  -1.983   6.696  0.00  0.00    -0.001 C 
BRANCH  35  36
ATOM     36  C   UNL     1       1.186  -0.700   6.248  0.00  0.00    +0.089 A 
ATOM     37  C   UNL     1       0.594   0.275   5.535  0.00  0.00    +0.042 A 
ATOM     38  C   UNL     1       1.563   1.286   5.338  0.00  0.00    +0.041 A 
ATOM     39  C   UNL     1       2.689   0.868   5.944  0.00  0.00    +0.195 A 
ATOM     40  O   UNL     1       2.454  -0.332   6.498  0.00  0.00    -0.470 OA
ENDBRANCH  35  36
ENDBRANCH  25  35
ENDBRANCH   1  25
TORSDOF 8
