REMARK  Name = ZINC39205222
REMARK  5 active torsions:
REMARK  status: ('A' for Active; 'I' for Inactive)
REMARK    1  A    between atoms: C_5  and  C_7
REMARK    2  A    between atoms: C_7  and  N_8
REMARK    3  A    between atoms: C_10  and  C_18
REMARK    4  A    between atoms: C_19  and  C_20
REMARK    5  A    between atoms: C_19  and  C_22
REMARK                            x       y       z     vdW  Elec       q    Type
REMARK                         _______ _______ _______ _____ _____    ______ ____
ROOT
ATOM      1  N   UNL     1       1.489  -2.679   1.333  0.00  0.00    -0.324 N 
ATOM      2  C   UNL     1       2.818  -2.938   1.891  0.00  0.00    +0.117 C 
ATOM      3  C   UNL     1       2.564  -3.435   3.324  0.00  0.00    +0.062 C 
ATOM      4  C   UNL     1       1.059  -3.417   3.470  0.00  0.00    -0.018 A 
ATOM      5  C   UNL     1       0.506  -2.964   2.283  0.00  0.00    +0.034 A 
ATOM      6  C   UNL     1      -0.882  -2.855   2.180  0.00  0.00    +0.023 A 
ATOM      7  C   UNL     1      -1.687  -3.191   3.248  0.00  0.00    +0.002 A 
ATOM      8  C   UNL     1      -1.125  -3.638   4.429  0.00  0.00    +0.000 A 
ATOM      9  C   UNL     1       0.249  -3.757   4.536  0.00  0.00    +0.006 A 
ENDROOT
BRANCH   3  10
ATOM     10  C   UNL     1       3.204  -2.506   4.324  0.00  0.00    +0.001 C 
ATOM     11  C   UNL     1       4.133  -2.964   5.158  0.00  0.00    +0.068 C 
BRANCH  11  12
ATOM     12  C   UNL     1       4.772  -2.035   6.158  0.00  0.00    +0.216 C 
ATOM     13  N   UNL     1       6.230  -2.028   5.979  0.00  0.00    -0.359 N 
ATOM     14  C   UNL     1       6.762  -2.449   7.090  0.00  0.00    +0.060 A 
ATOM     15  C   UNL     1       8.153  -2.656   7.516  0.00  0.00    +0.027 A 
ATOM     16  C   UNL     1       8.406  -3.113   8.758  0.00  0.00    +0.002 A 
ATOM     17  C   UNL     1       7.387  -3.406   9.682  0.00  0.00    +0.002 A 
ATOM     18  C   UNL     1       6.079  -3.251   9.393  0.00  0.00    +0.027 A 
ATOM     19  C   UNL     1       5.683  -2.758   8.067  0.00  0.00    +0.060 A 
ATOM     20  N   UNL     1       4.525  -2.516   7.523  0.00  0.00    -0.359 N 
ATOM     21  H   UNL     1       6.708  -1.760   5.179  0.00  0.00    +0.162 HD
ATOM     22  H   UNL     1       3.658  -2.633   7.942  0.00  0.00    +0.162 HD
ENDBRANCH  11  12
BRANCH  11  23
ATOM     23  C   UNL     1       4.526  -4.340   5.106  0.00  0.00    +0.098 C 
ATOM     24  N   UNL     1       4.837  -5.432   5.065  0.00  0.00    -0.191 NA
ENDBRANCH  11  23
ENDBRANCH   3  10
BRANCH   1  25
ATOM     25  C   UNL     1       1.229  -2.186  -0.022  0.00  0.00    +0.141 C 
BRANCH  25  30
ATOM     26  C   UNL     1      -0.017   1.378   0.010  0.00  0.00    +0.000 A 
ATOM     27  C   UNL     1       1.171   2.086   0.002  0.00  0.00    +0.001 A 
ATOM     28  C   UNL     1       2.377   1.412  -0.013  0.00  0.00    +0.020 A 
ATOM     29  C   UNL     1       2.397   0.029  -0.021  0.00  0.00    +0.046 A 
ATOM     30  C   UNL     1       1.208  -0.679  -0.013  0.00  0.00    -0.012 A 
ATOM     31  C   UNL     1       0.002  -0.004   0.002  0.00  0.00    +0.006 A 
ATOM     32 CL   UNL     1       3.912  -0.818  -0.041  0.00  0.00    -0.083 Cl
ENDBRANCH  25  30
ENDBRANCH   1  25
TORSDOF 5
