REMARK  Name = ZINC20291927
REMARK  10 active torsions:
REMARK  status: ('A' for Active; 'I' for Inactive)
REMARK    1  A    between atoms: C_1  and  C_2
REMARK    2  A    between atoms: C_2  and  C_4
REMARK    3  A    between atoms: C_2  and  N_10
REMARK    4  A    between atoms: C_11  and  C_13
REMARK    5  A    between atoms: C_13  and  S_14
REMARK    6  A    between atoms: S_14  and  C_15
REMARK    7  A    between atoms: N_19  and  N_20
REMARK    8  A    between atoms: N_21  and  N_22
REMARK    9  A    between atoms: C_23  and  C_24
REMARK   10  A    between atoms: C_28  and  N_30
REMARK                            x       y       z     vdW  Elec       q    Type
REMARK                         _______ _______ _______ _____ _____    ______ ____
ROOT
ATOM      1  C   UNL     1       5.227  -1.697   3.477  0.00  0.00    +0.210 A 
ATOM      2  N   UNL     1       4.550  -2.044   4.593  0.00  0.00    -0.119 NA
ATOM      3  N   UNL     1       5.379  -2.436   5.495  0.00  0.00    -0.109 NA
ATOM      4  C   UNL     1       6.637  -2.365   5.013  0.00  0.00    +0.254 A 
ATOM      5  N   UNL     1       6.556  -1.900   3.725  0.00  0.00    -0.211 N 
ATOM      6  N   UNL     1       7.755  -2.692   5.668  0.00  0.00    -0.204 N 
ATOM      7  H   UNL     1       8.617  -2.604   5.231  0.00  0.00    +0.177 HD
ENDROOT
BRANCH   5   8
ATOM      8  N   UNL     1       7.594  -1.681   2.864  0.00  0.00    -0.294 N 
ATOM      9  H   UNL     1       7.945  -0.739   2.953  0.00  0.00    +0.163 HD
ATOM     10  H   UNL     1       8.330  -2.356   3.006  0.00  0.00    +0.163 HD
ENDBRANCH   5   8
BRANCH   6  11
ATOM     11  N   UNL     1       7.689  -3.123   6.882  0.00  0.00    -0.188 NA
ATOM     12  C   UNL     1       8.789  -3.444   7.526  0.00  0.00    +0.138 C 
BRANCH  12  13
ATOM     13  C   UNL     1       8.714  -3.934   8.904  0.00  0.00    -0.003 A 
ATOM     14  C   UNL     1       7.470  -4.068   9.540  0.00  0.00    +0.009 A 
ATOM     15  C   UNL     1       7.409  -4.530  10.836  0.00  0.00    +0.003 A 
ATOM     16  C   UNL     1       8.572  -4.861  11.513  0.00  0.00    +0.033 A 
ATOM     17  C   UNL     1       9.806  -4.732  10.894  0.00  0.00    +0.127 A 
ATOM     18  C   UNL     1       9.886  -4.279   9.596  0.00  0.00    +0.042 A 
BRANCH  17  19
ATOM     19  N   UNL     1      11.040  -5.089  11.629  0.00  0.00    +0.056 N 
ATOM     20  O   UNL     1      10.965  -5.529  12.868  0.00  0.00    -0.126 OA
ATOM     21  O   UNL     1      12.213  -4.968  11.043  0.00  0.00    -0.126 OA
ENDBRANCH  17  19
ENDBRANCH  12  13
ENDBRANCH   6  11
BRANCH   1  22
ATOM     22  S   UNL     1       4.566  -1.134   2.062  0.00  0.00    -0.075 S 
BRANCH  22  23
ATOM     23  C   UNL     1       2.783  -1.099   2.395  0.00  0.00    +0.173 C 
BRANCH  23  25
ATOM     24  N   UNL     1       0.711  -0.489   1.189  0.00  0.00    -0.308 N 
ATOM     25  C   UNL     1       2.054  -0.600   1.174  0.00  0.00    +0.224 C 
ATOM     26  O   UNL     1       2.676  -0.297   0.177  0.00  0.00    -0.275 OA
ATOM     27  H   UNL     1       0.213  -0.731   1.986  0.00  0.00    +0.149 HD
BRANCH  24  29
ATOM     28  C   UNL     1      -0.019   1.526   0.010  0.00  0.00    +0.033 C 
ATOM     29  C   UNL     1       0.002  -0.004   0.002  0.00  0.00    +0.100 C 
BRANCH  29  30
ATOM     30  C   UNL     1      -1.412  -0.526   0.013  0.00  0.00    -0.027 A 
ATOM     31  C   UNL     1      -2.123  -0.571   1.197  0.00  0.00    +0.005 A 
ATOM     32  C   UNL     1      -3.420  -1.049   1.207  0.00  0.00    +0.000 A 
ATOM     33  C   UNL     1      -4.006  -1.482   0.032  0.00  0.00    +0.000 A 
ATOM     34  C   UNL     1      -3.295  -1.436  -1.153  0.00  0.00    +0.000 A 
ATOM     35  C   UNL     1      -2.000  -0.954  -1.163  0.00  0.00    +0.005 A 
ENDBRANCH  29  30
ENDBRANCH  24  29
ENDBRANCH  23  25
ENDBRANCH  22  23
ENDBRANCH   1  22
TORSDOF 9
