REMARK  Name = ZINC39469812
REMARK  8 active torsions:
REMARK  status: ('A' for Active; 'I' for Inactive)
REMARK    1  A    between atoms: C_1  and  C_2
REMARK    2  A    between atoms: C_2  and  C_3
REMARK    3  A    between atoms: C_2  and  S_4
REMARK    4  A    between atoms: S_4  and  P_7
REMARK    5  A    between atoms: C_15  and  C_32
REMARK    6  A    between atoms: C_16  and  C_25
REMARK    7  A    between atoms: C_25  and  C_26
REMARK    8  A    between atoms: C_37  and  O_38
REMARK                            x       y       z     vdW  Elec       q    Type
REMARK                         _______ _______ _______ _____ _____    ______ ____
ROOT
ATOM      1  P   UNL     1       2.806   0.221  -1.358  0.00  0.00    +0.392 P 
ATOM      2  O   UNL     1       2.749   1.700  -1.366  0.00  0.00    -0.249 OA
ATOM      3  N   UNL     1       3.738  -0.326  -2.606  0.00  0.00    -0.274 NA
ATOM      4  N   UNL     1       4.247  -1.604  -2.515  0.00  0.00    +0.398 N 
ATOM      5  C   UNL     1       5.118  -1.778  -3.689  0.00  0.00    -0.046 C 
ATOM      6  C   UNL     1       5.731  -3.172  -3.711  0.00  0.00    +0.005 C 
ATOM      7  C   UNL     1       4.653  -4.221  -3.776  0.00  0.00    -0.016 C 
ATOM      8  C   UNL     1       4.925  -5.469  -3.357  0.00  0.00    -0.015 C 
ATOM      9  C   UNL     1       6.280  -5.784  -2.855  0.00  0.00    -0.039 C 
ATOM     10  C   UNL     1       7.064  -4.807  -2.418  0.00  0.00    -0.019 C 
ATOM     11  C   UNL     1       6.557  -3.385  -2.438  0.00  0.00    +0.016 C 
ATOM     12  C   UNL     1       5.651  -3.159  -1.227  0.00  0.00    -0.003 C 
ATOM     13  C   UNL     1       5.019  -1.763  -1.281  0.00  0.00    -0.020 C 
ATOM     14  C   UNL     1       4.128  -1.624  -0.039  0.00  0.00    +0.158 C 
ATOM     15  O   UNL     1       3.546  -0.309  -0.009  0.00  0.00    -0.304 OA
ATOM     16  H   UNL     1       3.920   0.233  -3.377  0.00  0.00    +0.112 HD
ATOM     17  H   UNL     1       3.493  -2.273  -2.534  0.00  0.00    -0.055 HD
ENDROOT
BRANCH   8  18
ATOM     18  C   UNL     1       3.877  -6.519  -3.397  0.00  0.00    +0.024 A 
ATOM     19  C   UNL     1       3.920  -7.513  -4.373  0.00  0.00    +0.012 A 
ATOM     20  C   UNL     1       2.943  -8.486  -4.406  0.00  0.00    +0.001 A 
ATOM     21  C   UNL     1       1.920  -8.480  -3.474  0.00  0.00    +0.004 A 
ATOM     22  C   UNL     1       1.868  -7.498  -2.502  0.00  0.00    +0.046 A 
ATOM     23  C   UNL     1       2.846  -6.518  -2.453  0.00  0.00    +0.125 A 
BRANCH  23  24
ATOM     24  O   UNL     1       2.800  -5.556  -1.495  0.00  0.00    -0.506 OA
ATOM     25  H   UNL     1       2.298  -4.770  -1.751  0.00  0.00    +0.292 HD
ENDBRANCH  23  24
ENDBRANCH   8  18
BRANCH   1  26
ATOM     26  S   UNL     1       0.851  -0.589  -1.490  0.00  0.00    +0.056 S 
ATOM     27  O   UNL     1       1.037  -1.996  -1.428  0.00  0.00    -0.164 OA
ATOM     28  O   UNL     1       0.285   0.016  -2.645  0.00  0.00    -0.164 OA
BRANCH  26  30
ATOM     29  C   UNL     1      -0.019   1.526   0.010  0.00  0.00    +0.032 C 
ATOM     30  C   UNL     1       0.002  -0.004   0.002  0.00  0.00    +0.135 C 
ATOM     31  C   UNL     1      -1.433  -0.534   0.013  0.00  0.00    +0.032 C 
ENDBRANCH  26  30
ENDBRANCH   1  26
BRANCH   9  32
ATOM     32  C   UNL     1       6.770  -7.210  -2.842  0.00  0.00    +0.070 C 
BRANCH  32  33
ATOM     33  C   UNL     1       6.303  -7.889  -1.580  0.00  0.00    -0.043 A 
ATOM     34  C   UNL     1       7.087  -7.846  -0.442  0.00  0.00    +0.004 A 
ATOM     35  C   UNL     1       6.659  -8.469   0.716  0.00  0.00    +0.000 A 
ATOM     36  C   UNL     1       5.447  -9.134   0.735  0.00  0.00    +0.000 A 
ATOM     37  C   UNL     1       4.663  -9.175  -0.402  0.00  0.00    +0.000 A 
ATOM     38  C   UNL     1       5.089  -8.549  -1.559  0.00  0.00    +0.004 A 
ENDBRANCH  32  33
ENDBRANCH   9  32
TORSDOF 6
