REMARK  Name = ZINC35523504
REMARK  6 active torsions:
REMARK  status: ('A' for Active; 'I' for Inactive)
REMARK    1  A    between atoms: C_4  and  C_7
REMARK    2  A    between atoms: C_7  and  C_8
REMARK    3  A    between atoms: C_14  and  C_16
REMARK    4  A    between atoms: C_19  and  C_21
REMARK    5  A    between atoms: C_21  and  N_22
REMARK    6  A    between atoms: C_30  and  C_32
REMARK                            x       y       z     vdW  Elec       q    Type
REMARK                         _______ _______ _______ _____ _____    ______ ____
ROOT
ATOM      1  C   UNL     1       8.247  -1.505   4.258  0.00  0.00    +0.190 A 
ATOM      2  C   UNL     1       9.411  -1.364   4.957  0.00  0.00    +0.055 A 
ATOM      3  C   UNL     1      10.146  -2.543   4.760  0.00  0.00    +0.043 A 
ATOM      4  C   UNL     1       9.408  -3.342   3.959  0.00  0.00    +0.090 A 
ATOM      5  O   UNL     1       8.262  -2.716   3.663  0.00  0.00    -0.457 OA
ENDROOT
BRANCH   1  12
ATOM      6  C   UNL     1       4.614  -0.465   0.957  0.00  0.00    -0.004 C 
ATOM      7  C   UNL     1       4.740   0.714   1.924  0.00  0.00    +0.023 C 
ATOM      8  C   UNL     1       4.973   0.183   3.342  0.00  0.00    +0.108 C 
ATOM      9  N   UNL     1       6.137  -0.713   3.327  0.00  0.00    -0.295 N 
ATOM     10  C   UNL     1       6.158  -1.828   2.370  0.00  0.00    +0.108 C 
ATOM     11  C   UNL     1       5.912  -1.274   0.963  0.00  0.00    +0.023 C 
ATOM     12  C   UNL     1       7.167  -0.516   4.174  0.00  0.00    +0.282 C 
ATOM     13  O   UNL     1       7.200   0.482   4.869  0.00  0.00    -0.267 OA
BRANCH   6  14
ATOM     14  C   UNL     1       4.347   0.060  -0.455  0.00  0.00    +0.038 C 
BRANCH  14  18
ATOM     15  C   UNL     1       0.553   2.021  -0.554  0.00  0.00    +0.000 A 
ATOM     16  C   UNL     1       1.695   2.740  -0.251  0.00  0.00    +0.000 A 
ATOM     17  C   UNL     1       2.922   2.105  -0.219  0.00  0.00    +0.003 A 
ATOM     18  C   UNL     1       3.008   0.752  -0.489  0.00  0.00    -0.047 A 
ATOM     19  C   UNL     1       1.867   0.034  -0.791  0.00  0.00    +0.003 A 
ATOM     20  C   UNL     1       0.639   0.669  -0.825  0.00  0.00    +0.000 A 
ENDBRANCH  14  18
ENDBRANCH   6  14
ENDBRANCH   1  12
BRANCH   4  21
ATOM     21  C   UNL     1       9.805  -4.715   3.481  0.00  0.00    -0.002 C 
BRANCH  21  22
ATOM     22  N   UNL     1       9.334  -5.723   4.440  0.00  0.00    +0.394 N 
ATOM     23  C   UNL     1       7.866  -5.721   4.469  0.00  0.00    -0.055 C 
ATOM     24  C   UNL     1       7.366  -6.527   5.674  0.00  0.00    +0.103 C 
ATOM     25  N   UNL     1       8.039  -7.832   5.657  0.00  0.00    -0.353 N 
ATOM     26  C   UNL     1       7.701  -8.960   6.330  0.00  0.00    +0.086 A 
ATOM     27  C   UNL     1       8.593  -9.924   6.012  0.00  0.00    +0.019 A 
ATOM     28  C   UNL     1       9.518  -9.362   5.107  0.00  0.00    +0.021 A 
ATOM     29  C   UNL     1       9.159  -8.086   4.909  0.00  0.00    +0.009 A 
ATOM     30  C   UNL     1       9.826  -7.051   4.036  0.00  0.00    +0.014 C 
ATOM     31  H   UNL     1       9.686  -5.501   5.360  0.00  0.00    -0.080 HD
BRANCH  30  32
ATOM     32  C   UNL     1      11.320  -7.117   4.219  0.00  0.00    -0.020 A 
ATOM     33  C   UNL     1      11.940  -6.298   5.144  0.00  0.00    +0.008 A 
ATOM     34  C   UNL     1      13.310  -6.358   5.314  0.00  0.00    +0.039 A 
ATOM     35  C   UNL     1      14.064  -7.239   4.556  0.00  0.00    +0.126 A 
ATOM     36  C   UNL     1      13.445  -8.060   3.630  0.00  0.00    +0.077 A 
ATOM     37  C   UNL     1      12.072  -8.003   3.466  0.00  0.00    +0.128 A 
ATOM     38  F   UNL     1      11.465  -8.808   2.566  0.00  0.00    -0.205 F 
ATOM     39  F   UNL     1      15.404  -7.297   4.722  0.00  0.00    -0.205 F 
ENDBRANCH  30  32
ENDBRANCH  21  22
ENDBRANCH   4  21
TORSDOF 6
