REMARK  Name = ZINC35840758
REMARK  14 active torsions:
REMARK  status: ('A' for Active; 'I' for Inactive)
REMARK    1  A    between atoms: C_1  and  C_2
REMARK    2  A    between atoms: C_7  and  C_8
REMARK    3  A    between atoms: C_8  and  N_9
REMARK    4  A    between atoms: C_13  and  C_14
REMARK    5  A    between atoms: C_14  and  N_15
REMARK    6  A    between atoms: N_15  and  C_16
REMARK    7  A    between atoms: N_15  and  C_30
REMARK    8  A    between atoms: C_16  and  C_17
REMARK    9  A    between atoms: C_17  and  C_19
REMARK   10  A    between atoms: C_17  and  O_29
REMARK   11  A    between atoms: C_19  and  O_20
REMARK   12  A    between atoms: O_20  and  C_21
REMARK   13  A    between atoms: C_24  and  O_27
REMARK   14  A    between atoms: O_27  and  C_28
REMARK                            x       y       z     vdW  Elec       q    Type
REMARK                         _______ _______ _______ _____ _____    ______ ____
ROOT
ATOM      1  N   UNL     1      -1.869  -2.240   2.572  0.00  0.00    +0.387 N 
ATOM      2  H   UNL     1      -2.683  -2.098   1.992  0.00  0.00    -0.081 HD
ENDROOT
BRANCH   1   3
ATOM      3  C   UNL     1      -0.687  -1.682   1.902  0.00  0.00    -0.068 C 
ATOM      4  C   UNL     1      -0.875  -0.176   1.708  0.00  0.00    -0.015 C 
ATOM      5  C   UNL     1       0.357   0.406   1.010  0.00  0.00    -0.002 C 
ATOM      6  C   UNL     1       1.597   0.153   1.870  0.00  0.00    -0.000 C 
ATOM      7  C   UNL     1       1.785  -1.353   2.064  0.00  0.00    -0.002 C 
ATOM      8  C   UNL     1       0.553  -1.934   2.762  0.00  0.00    -0.015 C 
ENDBRANCH   1   3
BRANCH   1   9
ATOM      9  C   UNL     1      -2.064  -1.566   3.863  0.00  0.00    -0.024 C 
BRANCH   9  14
ATOM     10  N   UNL     1      -4.593  -1.546   4.242  0.00  0.00    -0.348 N 
ATOM     11  C   UNL     1      -5.499  -2.237   4.991  0.00  0.00    +0.086 A 
ATOM     12  C   UNL     1      -4.832  -3.162   5.712  0.00  0.00    +0.019 A 
ATOM     13  C   UNL     1      -3.465  -3.037   5.396  0.00  0.00    +0.021 A 
ATOM     14  C   UNL     1      -3.349  -2.044   4.490  0.00  0.00    +0.003 A 
BRANCH  10  15
ATOM     15  C   UNL     1      -4.906  -0.452   3.319  0.00  0.00    +0.156 C 
BRANCH  15  22
ATOM     16  C   UNL     1      -5.835   1.400   5.332  0.00  0.00    +0.044 C 
ATOM     17  C   UNL     1      -6.816   0.769   4.379  0.00  0.00    -0.046 A 
ATOM     18  C   UNL     1      -8.161   1.081   4.465  0.00  0.00    +0.004 A 
ATOM     19  C   UNL     1      -9.061   0.502   3.590  0.00  0.00    +0.000 A 
ATOM     20  C   UNL     1      -8.618  -0.389   2.630  0.00  0.00    +0.000 A 
ATOM     21  C   UNL     1      -7.274  -0.700   2.544  0.00  0.00    +0.005 A 
ATOM     22  C   UNL     1      -6.372  -0.117   3.416  0.00  0.00    -0.025 A 
ENDBRANCH  15  22
ENDBRANCH  10  15
ENDBRANCH   9  14
ENDBRANCH   1   9
BRANCH   1  23
ATOM     23  C   UNL     1      -1.672  -3.678   2.796  0.00  0.00    -0.043 C 
BRANCH  23  24
ATOM     24  C   UNL     1      -1.639  -4.404   1.449  0.00  0.00    +0.135 C 
BRANCH  24  25
ATOM     25  O   UNL     1      -0.458  -4.032   0.736  0.00  0.00    -0.390 OA
ATOM     26  H   UNL     1       0.363  -4.322   1.156  0.00  0.00    +0.210 HD
ENDBRANCH  24  25
BRANCH  24  27
ATOM     27  C   UNL     1      -1.638  -5.916   1.684  0.00  0.00    +0.258 C 
BRANCH  27  28
ATOM     28  O   UNL     1      -1.725  -6.593   0.429  0.00  0.00    -0.489 OA
BRANCH  28  29
ATOM     29  C   UNL     1      -1.736  -7.952   0.460  0.00  0.00    +0.121 A 
ATOM     30  C   UNL     1      -1.670  -8.618   1.675  0.00  0.00    +0.049 A 
ATOM     31  C   UNL     1      -1.681  -9.999   1.707  0.00  0.00    +0.049 A 
ATOM     32  C   UNL     1      -1.758 -10.720   0.524  0.00  0.00    +0.120 A 
ATOM     33  C   UNL     1      -1.825 -10.054  -0.691  0.00  0.00    +0.049 A 
ATOM     34  C   UNL     1      -1.819  -8.673  -0.722  0.00  0.00    +0.049 A 
BRANCH  32  35
ATOM     35  O   UNL     1      -1.768 -12.079   0.555  0.00  0.00    -0.495 OA
ATOM     36  C   UNL     1      -1.849 -12.757  -0.700  0.00  0.00    +0.277 C 
ENDBRANCH  32  35
ENDBRANCH  28  29
ENDBRANCH  27  28
ENDBRANCH  24  27
ENDBRANCH  23  24
ENDBRANCH   1  23
TORSDOF 12
