REMARK  Name = ZINC12273985
REMARK  7 active torsions:
REMARK  status: ('A' for Active; 'I' for Inactive)
REMARK    1  A    between atoms: C_1  and  C_2
REMARK    2  A    between atoms: C_3  and  C_23
REMARK    3  A    between atoms: N_6  and  C_7
REMARK    4  A    between atoms: C_13  and  C_16
REMARK    5  A    between atoms: N_25  and  C_26
REMARK    6  A    between atoms: C_29  and  S_32
REMARK    7  A    between atoms: S_32  and  C_33
REMARK                            x       y       z     vdW  Elec       q    Type
REMARK                         _______ _______ _______ _____ _____    ______ ____
ROOT
ATOM      1  C   UNL     1       8.344   3.938   0.920  0.00  0.00    +0.068 C 
ATOM      2  C   UNL     1       7.397   4.749   0.073  0.00  0.00    +0.074 A 
ATOM      3  C   UNL     1       7.547   6.057  -0.292  0.00  0.00    +0.170 A 
ATOM      4  N   UNL     1       6.489   6.414  -1.040  0.00  0.00    -0.124 NA
ATOM      5  N   UNL     1       5.693   5.410  -1.168  0.00  0.00    -0.060 NA
ATOM      6  N   UNL     1       6.238   4.321  -0.473  0.00  0.00    -0.216 N 
ENDROOT
BRANCH   6   7
ATOM      7  C   UNL     1       5.684   3.038  -0.362  0.00  0.00    +0.068 A 
ATOM      8  C   UNL     1       6.537   1.925  -0.327  0.00  0.00    +0.030 A 
ATOM      9  C   UNL     1       6.060   0.660  -0.220  0.00  0.00    +0.034 A 
ATOM     10  C   UNL     1       4.667   0.445  -0.141  0.00  0.00    +0.114 A 
ATOM     11  C   UNL     1       3.773   1.621  -0.179  0.00  0.00    +0.051 A 
ATOM     12  C   UNL     1       4.328   2.900  -0.290  0.00  0.00    +0.041 A 
ATOM     13  C   UNL     1       2.503   1.053  -0.082  0.00  0.00    +0.175 A 
ATOM     14  O   UNL     1       2.700  -0.273   0.003  0.00  0.00    -0.353 OA
ATOM     15  N   UNL     1       3.868  -0.592  -0.035  0.00  0.00    -0.078 NA
BRANCH  13  16
ATOM     16  C   UNL     1       1.212   1.762  -0.070  0.00  0.00    +0.021 A 
ATOM     17  C   UNL     1       0.176   1.351  -0.915  0.00  0.00    +0.013 A 
ATOM     18  C   UNL     1      -1.028   2.022  -0.902  0.00  0.00    +0.021 A 
ATOM     19  C   UNL     1      -1.216   3.096  -0.047  0.00  0.00    +0.041 A 
ATOM     20  C   UNL     1      -0.195   3.508   0.794  0.00  0.00    +0.021 A 
ATOM     21  C   UNL     1       1.016   2.849   0.787  0.00  0.00    +0.013 A 
ATOM     22 CL   UNL     1      -2.738   3.932  -0.033  0.00  0.00    -0.084 Cl
ENDBRANCH  13  16
ENDBRANCH   6   7
BRANCH   3  23
ATOM     23  C   UNL     1       8.676   6.931   0.077  0.00  0.00    +0.270 C 
ATOM     24  O   UNL     1       9.582   6.497   0.761  0.00  0.00    -0.268 OA
ATOM     25  N   UNL     1       8.703   8.211  -0.345  0.00  0.00    -0.280 N 
ATOM     26  H   UNL     1       7.944   8.581  -0.822  0.00  0.00    +0.155 HD
BRANCH  25  27
ATOM     27  C   UNL     1       9.827   9.008  -0.093  0.00  0.00    +0.034 A 
ATOM     28  C   UNL     1       9.674  10.365   0.159  0.00  0.00    +0.024 A 
ATOM     29  C   UNL     1      10.781  11.149   0.412  0.00  0.00    +0.017 A 
ATOM     30  C   UNL     1      12.050  10.583   0.403  0.00  0.00    +0.023 A 
ATOM     31  C   UNL     1      12.203   9.226   0.146  0.00  0.00    +0.017 A 
ATOM     32  C   UNL     1      11.095   8.441  -0.102  0.00  0.00    +0.024 A 
BRANCH  30  33
ATOM     33  S   UNL     1      13.464  11.585   0.720  0.00  0.00    -0.010 S 
BRANCH  33  34
ATOM     34  C   UNL     1      12.663  13.188   0.974  0.00  0.00    +0.138 C 
ATOM     35  N   UNL     1      12.160  14.194   1.133  0.00  0.00    -0.183 NA
ENDBRANCH  33  34
ENDBRANCH  30  33
ENDBRANCH  25  27
ENDBRANCH   3  23
TORSDOF 6
