REMARK  Name = ZINC35543781
REMARK  6 active torsions:
REMARK  status: ('A' for Active; 'I' for Inactive)
REMARK    1  A    between atoms: C_1  and  C_2
REMARK    2  A    between atoms: C_2  and  C_4
REMARK    3  A    between atoms: C_2  and  N_10
REMARK    4  A    between atoms: C_11  and  C_13
REMARK    5  A    between atoms: C_18  and  N_36
REMARK    6  A    between atoms: N_26  and  C_29
REMARK                            x       y       z     vdW  Elec       q    Type
REMARK                         _______ _______ _______ _____ _____    ______ ____
ROOT
ATOM      1  C   UNL     1       0.774  -1.112   3.556  0.00  0.00    +0.101 C 
ATOM      2  C   UNL     1       1.354  -2.497   3.272  0.00  0.00    +0.051 C 
ATOM      3  C   UNL     1       0.217  -3.458   3.038  0.00  0.00    -0.023 A 
ATOM      4  C   UNL     1       0.406  -4.550   2.210  0.00  0.00    +0.038 A 
ATOM      5  C   UNL     1      -0.634  -5.431   1.980  0.00  0.00    +0.127 A 
ATOM      6  C   UNL     1      -1.865  -5.223   2.577  0.00  0.00    +0.034 A 
ATOM      7  C   UNL     1      -2.055  -4.137   3.408  0.00  0.00    +0.025 A 
ATOM      8  C   UNL     1      -1.008  -3.251   3.644  0.00  0.00    +0.033 A 
ATOM      9  N   UNL     1      -1.227  -2.170   4.516  0.00  0.00    -0.323 N 
ATOM     10  C   UNL     1      -0.188  -1.184   4.746  0.00  0.00    +0.103 C 
ATOM     11  C   UNL     1      -0.730   0.212   5.007  0.00  0.00    +0.128 C 
ATOM     12  N   UNL     1      -2.006   0.204   5.696  0.00  0.00    -0.327 N 
ATOM     13  C   UNL     1      -3.062  -0.741   5.376  0.00  0.00    +0.124 C 
ATOM     14  C   UNL     1      -2.517  -2.137   5.202  0.00  0.00    +0.124 C 
ENDROOT
BRANCH  12  15
ATOM     15  C   UNL     1      -2.228   1.143   6.706  0.00  0.00    +0.031 A 
ATOM     16  C   UNL     1      -3.477   1.236   7.307  0.00  0.00    +0.023 A 
ATOM     17  C   UNL     1      -3.694   2.164   8.306  0.00  0.00    +0.003 A 
ATOM     18  C   UNL     1      -2.670   3.001   8.710  0.00  0.00    +0.020 A 
ATOM     19  C   UNL     1      -1.424   2.911   8.114  0.00  0.00    +0.043 A 
ATOM     20  C   UNL     1      -1.199   1.980   7.117  0.00  0.00    +0.043 A 
ATOM     21 CL   UNL     1      -0.141   3.964   8.623  0.00  0.00    -0.083 Cl
ENDBRANCH  12  15
BRANCH   1  23
ATOM     22  N   UNL     1       0.679  -0.474   1.168  0.00  0.00    -0.308 N 
ATOM     23  C   UNL     1       0.031  -0.622   2.340  0.00  0.00    +0.219 C 
ATOM     24  O   UNL     1      -1.151  -0.360   2.417  0.00  0.00    -0.275 OA
ATOM     25  H   UNL     1       1.624  -0.683   1.107  0.00  0.00    +0.149 HD
BRANCH  22  27
ATOM     26  C   UNL     1      -0.078   1.532  -0.009  0.00  0.00    +0.033 C 
ATOM     27  C   UNL     1      -0.043   0.003  -0.014  0.00  0.00    +0.100 C 
BRANCH  27  28
ATOM     28  C   UNL     1       0.656  -0.480  -1.259  0.00  0.00    -0.027 A 
ATOM     29  C   UNL     1       2.037  -0.488  -1.316  0.00  0.00    +0.005 A 
ATOM     30  C   UNL     1       2.679  -0.930  -2.458  0.00  0.00    +0.000 A 
ATOM     31  C   UNL     1       1.939  -1.365  -3.542  0.00  0.00    +0.000 A 
ATOM     32  C   UNL     1       0.558  -1.357  -3.484  0.00  0.00    +0.000 A 
ATOM     33  C   UNL     1      -0.084  -0.919  -2.341  0.00  0.00    +0.005 A 
ENDBRANCH  27  28
ENDBRANCH  22  27
ENDBRANCH   1  23
BRANCH   5  34
ATOM     34  N   UNL     1      -0.431  -6.599   1.095  0.00  0.00    +0.056 N 
ATOM     35  O   UNL     1       0.644  -6.782   0.573  0.00  0.00    -0.126 OA
ATOM     36  O   UNL     1      -1.340  -7.371   0.894  0.00  0.00    -0.126 OA
ENDBRANCH   5  34
TORSDOF 5
