REMARK  Name = ZINC22748438
REMARK  7 active torsions:
REMARK  status: ('A' for Active; 'I' for Inactive)
REMARK    1  A    between atoms: C_1  and  C_2
REMARK    2  A    between atoms: C_9  and  N_13
REMARK    3  A    between atoms: C_10  and  C_11
REMARK    4  A    between atoms: N_13  and  C_14
REMARK    5  A    between atoms: C_14  and  N_16
REMARK    6  A    between atoms: C_17  and  C_19
REMARK    7  A    between atoms: C_22  and  C_24
REMARK                            x       y       z     vdW  Elec       q    Type
REMARK                         _______ _______ _______ _____ _____    ______ ____
ROOT
ATOM      1  N   UNL     1      -1.156  -0.694   0.009  0.00  0.00    -0.261 N 
ATOM      2  C   UNL     1       0.002  -0.004   0.002  0.00  0.00    +0.285 C 
ATOM      3  O   UNL     1       1.064  -0.598  -0.011  0.00  0.00    -0.266 OA
ATOM      4  H   UNL     1      -2.116  -0.157   0.021  0.00  0.00    +0.157 HD
ENDROOT
BRANCH   2   5
ATOM      5  C   UNL     1      -0.018   1.460   0.010  0.00  0.00    +0.190 A 
ATOM      6  C   UNL     1       1.087   2.284   0.004  0.00  0.00    +0.055 A 
ATOM      7  C   UNL     1       0.610   3.598   0.015  0.00  0.00    +0.051 A 
ATOM      8  C   UNL     1      -0.755   3.530   0.027  0.00  0.00    +0.137 A 
ATOM      9  O   UNL     1      -1.121   2.237   0.019  0.00  0.00    -0.450 OA
BRANCH   8  10
ATOM     10  C   UNL     1      -1.674   4.685   0.042  0.00  0.00    +0.037 A 
ATOM     11  C   UNL     1      -2.727   4.755  -0.873  0.00  0.00    +0.033 A 
ATOM     12  C   UNL     1      -3.583   5.838  -0.854  0.00  0.00    +0.042 A 
ATOM     13  C   UNL     1      -3.399   6.854   0.070  0.00  0.00    +0.021 A 
ATOM     14  C   UNL     1      -2.359   6.791   0.979  0.00  0.00    +0.022 A 
ATOM     15  C   UNL     1      -1.498   5.711   0.975  0.00  0.00    +0.052 A 
ATOM     16 CL   UNL     1      -0.198   5.630   2.122  0.00  0.00    -0.083 Cl
ATOM     17 CL   UNL     1      -4.891   5.928  -1.991  0.00  0.00    -0.084 Cl
ENDBRANCH   8  10
ENDBRANCH   2   5
BRANCH   1  18
ATOM     18  C   UNL     1      -1.137  -2.041   0.002  0.00  0.00    +0.142 C 
ATOM     19  S   UNL     1       0.356  -2.877  -0.017  0.00  0.00    -0.018 S 
BRANCH  18  20
ATOM     20  N   UNL     1      -2.295  -2.731   0.009  0.00  0.00    -0.290 N 
ATOM     21  H   UNL     1      -3.255  -2.194   0.021  0.00  0.00    +0.154 HD
BRANCH  20  29
ATOM     22  C   UNL     1      -1.758 -10.535   0.058  0.00  0.00    +0.008 C 
ATOM     23  C   UNL     1      -2.241  -9.114   0.356  0.00  0.00    -0.009 C 
ATOM     24  C   UNL     1      -3.497  -8.816  -0.468  0.00  0.00    +0.008 C 
ATOM     25  C   UNL     1      -4.128  -7.503  -0.000  0.00  0.00    +0.037 C 
ATOM     26  C   UNL     1      -3.059  -6.417  -0.003  0.00  0.00    -0.018 A 
ATOM     27  C   UNL     1      -1.745  -6.734  -0.017  0.00  0.00    -0.004 A 
ATOM     28  S   UNL     1      -0.905  -5.176  -0.025  0.00  0.00    -0.077 S 
ATOM     29  C   UNL     1      -2.277  -4.118   0.002  0.00  0.00    +0.089 A 
ATOM     30  C   UNL     1      -3.352  -4.995   0.007  0.00  0.00    +0.084 A 
ATOM     31  C   UNL     1      -1.147  -8.107  -0.028  0.00  0.00    +0.046 C 
BRANCH  30  32
ATOM     32  C   UNL     1      -4.701  -4.515   0.022  0.00  0.00    +0.102 C 
ATOM     33  N   UNL     1      -5.771  -4.134   0.034  0.00  0.00    -0.191 NA
ENDBRANCH  30  32
ENDBRANCH  20  29
ENDBRANCH  18  20
ENDBRANCH   1  18
TORSDOF 6
