REMARK  Name = ZINC22510070
REMARK  16 active torsions:
REMARK  status: ('A' for Active; 'I' for Inactive)
REMARK    1  A    between atoms: C_1  and  C_2
REMARK    2  A    between atoms: C_2  and  O_3
REMARK    3  A    between atoms: O_3  and  C_4
REMARK    4  A    between atoms: C_7  and  C_10
REMARK    5  A    between atoms: C_10  and  C_12
REMARK    6  A    between atoms: C_10  and  N_13
REMARK    7  A    between atoms: C_14  and  C_16
REMARK    8  A    between atoms: C_16  and  N_17
REMARK    9  A    between atoms: N_17  and  C_18
REMARK   10  A    between atoms: N_17  and  S_27
REMARK   11  A    between atoms: C_23  and  O_24
REMARK   12  A    between atoms: O_24  and  C_25
REMARK   13  A    between atoms: C_25  and  C_26
REMARK   14  A    between atoms: S_27  and  C_30
REMARK   15  A    between atoms: C_33  and  S_36
REMARK   16  A    between atoms: S_36  and  C_37
REMARK                            x       y       z     vdW  Elec       q    Type
REMARK                         _______ _______ _______ _____ _____    ______ ____
ROOT
ATOM      1  N   UNL     1      -1.083   3.523   0.026  0.00  0.00    -0.191 N 
ENDROOT
BRANCH   1   2
ATOM      2  C   UNL     1      -0.855   4.188   1.236  0.00  0.00    +0.093 A 
ATOM      3  C   UNL     1       0.420   4.223   1.781  0.00  0.00    +0.028 A 
ATOM      4  C   UNL     1       0.644   4.884   2.974  0.00  0.00    +0.002 A 
ATOM      5  C   UNL     1      -0.402   5.504   3.631  0.00  0.00    +0.004 A 
ATOM      6  C   UNL     1      -1.677   5.470   3.097  0.00  0.00    +0.047 A 
ATOM      7  C   UNL     1      -1.909   4.813   1.900  0.00  0.00    +0.143 A 
BRANCH   7   8
ATOM      8  O   UNL     1      -3.162   4.778   1.373  0.00  0.00    -0.490 OA
BRANCH   8   9
ATOM      9  C   UNL     1      -4.194   5.440   2.108  0.00  0.00    +0.226 C 
ATOM     10  C   UNL     1      -5.523   5.293   1.366  0.00  0.00    +0.048 C 
ENDBRANCH   8   9
ENDBRANCH   7   8
ENDBRANCH   1   2
BRANCH   1  11
ATOM     11  S   UNL     1      -1.073   4.368  -1.398  0.00  0.00    +0.075 S 
ATOM     12  O   UNL     1      -0.291   5.533  -1.173  0.00  0.00    -0.150 OA
ATOM     13  O   UNL     1      -0.769   3.432  -2.423  0.00  0.00    -0.150 OA
BRANCH  11  14
ATOM     14  C   UNL     1      -2.722   4.917  -1.690  0.00  0.00    +0.109 A 
ATOM     15  C   UNL     1      -3.595   4.123  -2.410  0.00  0.00    +0.030 A 
ATOM     16  C   UNL     1      -4.890   4.548  -2.636  0.00  0.00    +0.016 A 
ATOM     17  C   UNL     1      -5.311   5.779  -2.148  0.00  0.00    +0.008 A 
ATOM     18  C   UNL     1      -4.428   6.576  -1.429  0.00  0.00    +0.016 A 
ATOM     19  C   UNL     1      -3.137   6.143  -1.203  0.00  0.00    +0.030 A 
BRANCH  17  20
ATOM     20  S   UNL     1      -6.960   6.328  -2.440  0.00  0.00    -0.129 S 
ATOM     21  C   UNL     1      -7.708   4.980  -3.396  0.00  0.00    +0.090 C 
ENDBRANCH  17  20
ENDBRANCH  11  14
ENDBRANCH   1  11
BRANCH   1  22
ATOM     22  C   UNL     1      -1.331   2.079   0.020  0.00  0.00    +0.227 C 
BRANCH  22  24
ATOM     23  N   UNL     1       0.002  -0.004   0.002  0.00  0.00    -0.307 N 
ATOM     24  C   UNL     1      -0.016   1.344   0.009  0.00  0.00    +0.233 C 
ATOM     25  O   UNL     1       1.026   1.964   0.003  0.00  0.00    -0.274 OA
ATOM     26  H   UNL     1      -0.943  -0.567   0.008  0.00  0.00    +0.149 HD
BRANCH  23  27
ATOM     27  C   UNL     1       1.281  -0.719  -0.014  0.00  0.00    +0.100 C 
ATOM     28  C   UNL     1       1.773  -0.851  -1.456  0.00  0.00    +0.033 C 
BRANCH  27  32
ATOM     29  C   UNL     1       0.757  -4.610   1.673  0.00  0.00    +0.121 A 
ATOM     30  C   UNL     1       1.899  -3.877   1.959  0.00  0.00    +0.046 A 
ATOM     31  C   UNL     1       2.066  -2.619   1.413  0.00  0.00    +0.009 A 
ATOM     32  C   UNL     1       1.096  -2.091   0.581  0.00  0.00    -0.027 A 
ATOM     33  C   UNL     1      -0.046  -2.818   0.299  0.00  0.00    +0.009 A 
ATOM     34  C   UNL     1      -0.215  -4.079   0.838  0.00  0.00    +0.046 A 
BRANCH  29  35
ATOM     35  O   UNL     1       0.590  -5.848   2.210  0.00  0.00    -0.492 OA
BRANCH  35  37
ATOM     36  C   UNL     1      -0.620  -7.909   2.565  0.00  0.00    +0.048 C 
ATOM     37  C   UNL     1      -0.610  -6.545   1.872  0.00  0.00    +0.225 C 
ENDBRANCH  35  37
ENDBRANCH  29  35
ENDBRANCH  27  32
ENDBRANCH  23  27
ENDBRANCH  22  24
ENDBRANCH   1  22
TORSDOF 12
