REMARK  Name = ZINC35664917
REMARK  11 active torsions:
REMARK  status: ('A' for Active; 'I' for Inactive)
REMARK    1  A    between atoms: C_1  and  C_2
REMARK    2  A    between atoms: C_2  and  O_3
REMARK    3  A    between atoms: O_3  and  C_4
REMARK    4  A    between atoms: C_4  and  C_6
REMARK    5  A    between atoms: C_7  and  C_24
REMARK    6  A    between atoms: N_8  and  C_21
REMARK    7  A    between atoms: C_12  and  C_14
REMARK    8  A    between atoms: C_18  and  C_20
REMARK    9  A    between atoms: C_21  and  C_22
REMARK   10  A    between atoms: C_24  and  N_25
REMARK   11  A    between atoms: C_32  and  C_34
REMARK                            x       y       z     vdW  Elec       q    Type
REMARK                         _______ _______ _______ _____ _____    ______ ____
ROOT
ATOM      1  C   UNL     1      -3.408  -2.891  -0.268  0.00  0.00    +0.080 C 
ATOM      2  C   UNL     1      -3.795  -3.985  -0.959  0.00  0.00    +0.041 C 
ATOM      3  N   UNL     1      -4.974  -4.003  -1.647  0.00  0.00    -0.254 N 
ATOM      4  C   UNL     1      -5.823  -2.969  -1.693  0.00  0.00    +0.307 C 
ATOM      5  O   UNL     1      -6.851  -3.080  -2.333  0.00  0.00    -0.252 OA
ATOM      6  N   UNL     1      -5.576  -1.809  -1.054  0.00  0.00    -0.288 N 
ATOM      7  C   UNL     1      -4.331  -1.688  -0.277  0.00  0.00    +0.144 C 
ATOM      8  H   UNL     1      -6.205  -1.072  -1.101  0.00  0.00    +0.151 HD
ENDROOT
BRANCH   7   9
ATOM      9  C   UNL     1      -3.559  -0.515  -0.824  0.00  0.00    -0.022 A 
ATOM     10  C   UNL     1      -3.394  -0.373  -2.189  0.00  0.00    +0.006 A 
ATOM     11  C   UNL     1      -2.686   0.704  -2.691  0.00  0.00    +0.001 A 
ATOM     12  C   UNL     1      -2.144   1.638  -1.827  0.00  0.00    +0.003 A 
ATOM     13  C   UNL     1      -2.310   1.496  -0.462  0.00  0.00    -0.050 A 
ATOM     14  C   UNL     1      -3.022   0.421   0.039  0.00  0.00    +0.009 A 
ATOM     15  C   UNL     1      -1.719   2.513   0.479  0.00  0.00    +0.044 C 
ENDBRANCH   7   9
BRANCH   1  16
ATOM     16  C   UNL     1      -2.187  -2.870   0.446  0.00  0.00    +0.339 C 
ATOM     17  O   UNL     1      -1.407  -3.798   0.343  0.00  0.00    -0.245 OA
BRANCH  16  18
ATOM     18  O   UNL     1      -1.887  -1.821   1.240  0.00  0.00    -0.462 OA
BRANCH  18  20
ATOM     19  C   UNL     1      -0.474  -0.601   2.775  0.00  0.00    +0.048 C 
ATOM     20  C   UNL     1      -0.637  -1.867   1.931  0.00  0.00    +0.229 C 
ENDBRANCH  18  20
ENDBRANCH  16  18
ENDBRANCH   1  16
BRANCH   3  21
ATOM     21  C   UNL     1      -5.331  -5.224  -2.375  0.00  0.00    +0.141 C 
BRANCH  21  22
ATOM     22  C   UNL     1      -6.063  -6.163  -1.452  0.00  0.00    -0.015 C 
ATOM     23  C   UNL     1      -7.242  -6.626  -1.789  0.00  0.00    +0.005 C 
ENDBRANCH  21  22
ENDBRANCH   3  21
BRANCH   2  24
ATOM     24  C   UNL     1      -2.909  -5.204  -0.972  0.00  0.00    +0.136 C 
BRANCH  24  25
ATOM     25  N   UNL     1      -2.053  -5.175  -2.165  0.00  0.00    -0.295 NA
ATOM     26  C   UNL     1      -1.545  -6.509  -2.478  0.00  0.00    +0.086 C 
ATOM     27  C   UNL     1      -1.458  -6.666  -3.980  0.00  0.00    +0.034 C 
ATOM     28  C   UNL     1      -0.053  -6.266  -4.461  0.00  0.00    +0.109 C 
ATOM     29  N   UNL     1       0.443  -5.078  -3.739  0.00  0.00    -0.300 N 
ATOM     30  C   UNL     1      -0.401  -3.939  -3.443  0.00  0.00    +0.123 C 
ATOM     31  C   UNL     1      -1.091  -4.142  -2.073  0.00  0.00    +0.103 C 
ATOM     32  C   UNL     1       1.730  -5.053  -3.340  0.00  0.00    +0.219 C 
ATOM     33  O   UNL     1       2.141  -4.124  -2.678  0.00  0.00    -0.275 OA
BRANCH  32  34
ATOM     34  C   UNL     1       2.659  -6.178  -3.717  0.00  0.00    +0.075 C 
ATOM     35  C   UNL     1       2.415  -7.394  -2.800  0.00  0.00    +0.013 C 
ATOM     36  C   UNL     1       3.828  -7.986  -2.571  0.00  0.00    +0.001 C 
ATOM     37  C   UNL     1       4.715  -6.721  -2.460  0.00  0.00    +0.001 C 
ATOM     38  C   UNL     1       4.121  -5.750  -3.501  0.00  0.00    +0.013 C 
ENDBRANCH  32  34
ENDBRANCH  24  25
ENDBRANCH   2  24
TORSDOF 9
