REMARK  Name = ZINC29515696
REMARK  9 active torsions:
REMARK  status: ('A' for Active; 'I' for Inactive)
REMARK    1  A    between atoms: C_1  and  C_2
REMARK    2  A    between atoms: C_4  and  N_19
REMARK    3  A    between atoms: C_6  and  C_7
REMARK    4  A    between atoms: C_11  and  C_18
REMARK    5  A    between atoms: C_14  and  C_17
REMARK    6  A    between atoms: C_20  and  C_22
REMARK    7  A    between atoms: C_22  and  C_23
REMARK    8  A    between atoms: C_22  and  C_24
REMARK    9  A    between atoms: C_22  and  C_25
REMARK                            x       y       z     vdW  Elec       q    Type
REMARK                         _______ _______ _______ _____ _____    ______ ____
ROOT
ATOM      1  C   UNL     1       1.471  -2.942   1.599  0.00  0.00    +0.045 C 
ATOM      2  C   UNL     1       0.637  -2.099   0.668  0.00  0.00    -0.029 A 
ATOM      3  C   UNL     1       0.909  -0.771   0.474  0.00  0.00    +0.035 A 
ATOM      4  C   UNL     1       0.112  -0.050  -0.389  0.00  0.00    +0.073 A 
ATOM      5  S   UNL     1      -1.038  -1.225  -0.936  0.00  0.00    -0.069 S 
ATOM      6  C   UNL     1      -0.437  -2.636  -0.026  0.00  0.00    +0.079 A 
ENDROOT
BRANCH   6   7
ATOM      7  C   UNL     1      -0.948  -4.006  -0.010  0.00  0.00    +0.254 C 
ATOM      8  O   UNL     1      -0.177  -4.944  -0.099  0.00  0.00    -0.269 OA
ATOM      9  N   UNL     1      -2.272  -4.229   0.103  0.00  0.00    -0.297 N 
ATOM     10  C   UNL     1      -2.794  -5.599   0.206  0.00  0.00    +0.111 C 
ATOM     11  C   UNL     1      -3.682  -5.691   1.457  0.00  0.00    +0.004 C 
ATOM     12  C   UNL     1      -4.763  -4.610   1.389  0.00  0.00    +0.009 C 
ATOM     13  C   UNL     1      -4.105  -3.228   1.365  0.00  0.00    +0.004 C 
ATOM     14  C   UNL     1      -3.222  -3.108   0.119  0.00  0.00    +0.111 C 
ATOM     15  C   UNL     1      -5.188  -2.148   1.330  0.00  0.00    +0.009 C 
ATOM     16  C   UNL     1      -2.828  -5.480   2.709  0.00  0.00    +0.009 C 
ENDBRANCH   6   7
BRANCH   4  17
ATOM     17  N   UNL     1       0.204   1.293  -0.732  0.00  0.00    -0.280 N 
ATOM     18  C   UNL     1      -0.671   1.827  -1.607  0.00  0.00    +0.223 C 
ATOM     19  O   UNL     1      -1.539   1.135  -2.094  0.00  0.00    -0.275 OA
ATOM     20  H   UNL     1       0.992   1.921  -0.289  0.00  0.00    +0.155 HD
BRANCH  18  21
ATOM     21  C   UNL     1      -0.571   3.284  -1.978  0.00  0.00    +0.039 C 
ATOM     22  C   UNL     1      -1.674   3.632  -2.980  0.00  0.00    +0.020 C 
ATOM     23  C   UNL     1      -0.732   4.143  -0.723  0.00  0.00    +0.020 C 
ATOM     24  C   UNL     1       0.796   3.556  -2.610  0.00  0.00    +0.020 C 
ENDBRANCH  18  21
ENDBRANCH   4  17
TORSDOF 3
