REMARK  Name = ZINC11917805
REMARK  6 active torsions:
REMARK  status: ('A' for Active; 'I' for Inactive)
REMARK    1  A    between atoms: C_6  and  N_7
REMARK    2  A    between atoms: C_8  and  C_10
REMARK    3  A    between atoms: C_10  and  C_11
REMARK    4  A    between atoms: C_11  and  S_12
REMARK    5  A    between atoms: S_12  and  C_13
REMARK    6  A    between atoms: C_13  and  C_14
REMARK                            x       y       z     vdW  Elec       q    Type
REMARK                         _______ _______ _______ _____ _____    ______ ____
ROOT
ATOM      1  C   UNL     1      -4.888   0.918   0.249  0.00  0.00    +0.107 C 
ENDROOT
BRANCH   1   3
ATOM      2  N   UNL     1      -2.428   1.039   0.021  0.00  0.00    -0.285 N 
ATOM      3  C   UNL     1      -3.601   1.693   0.132  0.00  0.00    +0.218 C 
ATOM      4  O   UNL     1      -3.621   2.906   0.137  0.00  0.00    -0.275 OA
ATOM      5  H   UNL     1      -2.418   0.072  -0.061  0.00  0.00    +0.155 HD
BRANCH   2  11
ATOM      6  C   UNL     1      -0.149   1.307  -0.733  0.00  0.00    +0.027 A 
ATOM      7  C   UNL     1       1.042   2.009  -0.729  0.00  0.00    +0.051 A 
ATOM      8  C   UNL     1       1.163   3.162   0.025  0.00  0.00    +0.167 A 
ATOM      9  C   UNL     1       0.083   3.617   0.782  0.00  0.00    +0.169 A 
ATOM     10  C   UNL     1      -1.107   2.914   0.778  0.00  0.00    +0.072 A 
ATOM     11  C   UNL     1      -1.224   1.754   0.023  0.00  0.00    +0.037 A 
ATOM     12  O   UNL     1       0.464   4.765   1.427  0.00  0.00    -0.447 OA
ATOM     13  C   UNL     1       1.578   5.237   0.656  0.00  0.00    +0.254 C 
ATOM     14  O   UNL     1       2.209   4.031   0.203  0.00  0.00    -0.448 OA
ATOM     15  C   UNL     1       2.532   6.077   1.513  0.00  0.00    +0.093 C 
ATOM     16  C   UNL     1       3.057   7.161   0.535  0.00  0.00    +0.008 C 
ATOM     17  C   UNL     1       1.812   7.475  -0.333  0.00  0.00    +0.008 C 
ATOM     18  C   UNL     1       1.120   6.105  -0.515  0.00  0.00    +0.093 C 
ENDBRANCH   2  11
ENDBRANCH   1   3
BRANCH   1  19
ATOM     19  C   UNL     1      -6.062   1.893   0.361  0.00  0.00    +0.079 C 
BRANCH  19  20
ATOM     20  S   UNL     1      -7.612   0.960   0.502  0.00  0.00    -0.153 S 
BRANCH  20  21
ATOM     21  C   UNL     1      -8.887   2.244   0.624  0.00  0.00    +0.143 C 
BRANCH  21  22
ATOM     22  C   UNL     1     -10.242   1.595   0.748  0.00  0.00    +0.121 A 
ATOM     23  N   UNL     1     -11.348   2.377   0.853  0.00  0.00    -0.310 N 
ATOM     24  H   UNL     1     -11.250   3.342   0.847  0.00  0.00    +0.170 HD
ATOM     25  C   UNL     1     -12.577   1.839   0.965  0.00  0.00    +0.260 A 
ATOM     26  O   UNL     1     -13.561   2.553   1.059  0.00  0.00    -0.267 OA
ATOM     27  C   UNL     1     -12.707   0.412   0.972  0.00  0.00    +0.075 A 
ATOM     28  C   UNL     1     -13.938  -0.385   1.085  0.00  0.00    -0.023 A 
ATOM     29  C   UNL     1     -13.799  -1.722   1.066  0.00  0.00    -0.004 A 
ATOM     30  S   UNL     1     -12.050  -2.000   0.903  0.00  0.00    -0.073 S 
ATOM     31  C   UNL     1     -11.513  -0.311   0.859  0.00  0.00    +0.116 A 
ATOM     32  N   UNL     1     -10.331   0.292   0.747  0.00  0.00    -0.226 NA
ATOM     33  C   UNL     1     -15.121  -2.432   1.182  0.00  0.00    +0.043 C 
ATOM     34  C   UNL     1     -16.172  -1.351   0.847  0.00  0.00    +0.010 C 
ATOM     35  C   UNL     1     -15.426  -0.058   1.231  0.00  0.00    +0.037 C 
ENDBRANCH  21  22
ENDBRANCH  20  21
ENDBRANCH  19  20
ENDBRANCH   1  19
TORSDOF 6
