REMARK  Name = ZINC62933418
REMARK  6 active torsions:
REMARK  status: ('A' for Active; 'I' for Inactive)
REMARK    1  A    between atoms: C_1  and  C_2
REMARK    2  A    between atoms: C_2  and  C_4
REMARK    3  A    between atoms: C_2  and  N_11
REMARK    4  A    between atoms: C_4  and  N_5
REMARK    5  A    between atoms: C_17  and  C_19
REMARK    6  A    between atoms: C_17  and  C_20
REMARK                            x       y       z     vdW  Elec       q    Type
REMARK                         _______ _______ _______ _____ _____    ______ ____
ROOT
ATOM      1  N   UNL     1       0.711  -0.489   1.189  0.00  0.00    -0.295 N 
ATOM      2  C   UNL     1       2.054  -0.600   1.174  0.00  0.00    +0.302 C 
ATOM      3  O   UNL     1       2.677  -0.297   0.175  0.00  0.00    -0.253 OA
ATOM      4  N   UNL     1       2.706  -1.046   2.266  0.00  0.00    -0.285 N 
ATOM      5  C   UNL     1       2.106  -1.462   3.554  0.00  0.00    +0.110 C 
ATOM      6  C   UNL     1       3.099  -0.904   4.605  0.00  0.00    +0.038 C 
ATOM      7  C   UNL     1       4.472  -1.115   3.926  0.00  0.00    +0.086 C 
ATOM      8  C   UNL     1       4.161  -1.227   2.419  0.00  0.00    +0.127 C 
ATOM      9  C   UNL     1       5.120  -2.407   4.427  0.00  0.00    +0.024 C 
ATOM     10  H   UNL     1       0.213  -0.731   1.986  0.00  0.00    +0.151 HD
ENDROOT
BRANCH   7  11
ATOM     11  C   UNL     1       5.375   0.062   4.192  0.00  0.00    +0.363 C 
ATOM     12  O   UNL     1       6.582  -0.096   4.248  0.00  0.00    -0.246 OA
ATOM     13  O   UNL     1       4.897   1.172   4.352  0.00  0.00    -0.246 OA
ENDBRANCH   7  11
BRANCH   1  15
ATOM     14  C   UNL     1      -0.019   1.526   0.010  0.00  0.00    +0.029 C 
ATOM     15  C   UNL     1       0.002  -0.004   0.002  0.00  0.00    +0.085 C 
BRANCH  15  16
ATOM     16  C   UNL     1      -1.433  -0.534   0.013  0.00  0.00    +0.106 C 
BRANCH  16  17
ATOM     17  N   UNL     1      -1.414  -1.998   0.126  0.00  0.00    -0.296 NA
ATOM     18  C   UNL     1      -0.831  -2.611  -1.077  0.00  0.00    +0.112 C 
ATOM     19  C   UNL     1      -0.776  -4.130  -0.892  0.00  0.00    +0.175 C 
ATOM     20  O   UNL     1      -2.091  -4.620  -0.618  0.00  0.00    -0.377 OA
ATOM     21  C   UNL     1      -2.688  -4.045   0.547  0.00  0.00    +0.175 C 
ATOM     22  C   UNL     1      -2.763  -2.525   0.377  0.00  0.00    +0.112 C 
ENDBRANCH  16  17
ENDBRANCH  15  16
ENDBRANCH   1  15
TORSDOF 4
