REMARK  Name = ZINC09510541
REMARK  10 active torsions:
REMARK  status: ('A' for Active; 'I' for Inactive)
REMARK    1  A    between atoms: C_1  and  C_2
REMARK    2  A    between atoms: C_2  and  C_4
REMARK    3  A    between atoms: C_2  and  S_16
REMARK    4  A    between atoms: S_16  and  C_17
REMARK    5  A    between atoms: C_17  and  C_18
REMARK    6  A    between atoms: N_31  and  C_32
REMARK    7  A    between atoms: C_32  and  C_33
REMARK    8  A    between atoms: C_33  and  C_34
REMARK    9  A    between atoms: C_34  and  C_35
REMARK   10  A    between atoms: C_34  and  C_36
REMARK                            x       y       z     vdW  Elec       q    Type
REMARK                         _______ _______ _______ _____ _____    ______ ____
ROOT
ATOM      1  C   UNL     1      -3.814  -0.539  -1.690  0.00  0.00    +0.149 A 
ATOM      2  N   UNL     1      -4.230  -1.626  -2.278  0.00  0.00    -0.131 NA
ATOM      3  N   UNL     1      -5.510  -1.712  -2.194  0.00  0.00    -0.110 NA
ATOM      4  C   UNL     1      -5.986  -0.674  -1.542  0.00  0.00    +0.239 A 
ATOM      5  N   UNL     1      -4.915   0.099  -1.197  0.00  0.00    -0.264 N 
ATOM      6  C   UNL     1      -5.087   1.280  -0.485  0.00  0.00    +0.063 A 
ATOM      7  C   UNL     1      -4.006   2.074  -0.134  0.00  0.00    +0.027 A 
ATOM      8  C   UNL     1      -4.211   3.241   0.574  0.00  0.00    +0.002 A 
ATOM      9  C   UNL     1      -5.491   3.629   0.939  0.00  0.00    +0.001 A 
ATOM     10  C   UNL     1      -6.578   2.852   0.599  0.00  0.00    +0.015 A 
ATOM     11  C   UNL     1      -6.384   1.672  -0.116  0.00  0.00    +0.063 A 
ATOM     12  C   UNL     1      -7.519   0.813  -0.500  0.00  0.00    +0.263 A 
ATOM     13  O   UNL     1      -8.657   1.120  -0.198  0.00  0.00    -0.267 OA
ATOM     14  N   UNL     1      -7.276  -0.315  -1.198  0.00  0.00    -0.277 N 
ENDROOT
BRANCH   1  15
ATOM     15  C   UNL     1      -2.384  -0.077  -1.571  0.00  0.00    +0.146 C 
BRANCH  15  16
ATOM     16  S   UNL     1      -2.029   1.132  -2.875  0.00  0.00    -0.142 S 
BRANCH  16  18
ATOM     17  C   UNL     1       0.595   0.360  -2.836  0.00  0.00    +0.027 C 
ATOM     18  C   UNL     1      -0.294   1.582  -2.596  0.00  0.00    +0.110 C 
BRANCH  18  19
ATOM     19  C   UNL     1       0.099   2.683  -3.546  0.00  0.00    +0.123 A 
ATOM     20  N   UNL     1       0.980   3.624  -3.114  0.00  0.00    -0.309 N 
ATOM     21  H   UNL     1       1.335   3.571  -2.213  0.00  0.00    +0.170 HD
ATOM     22  C   UNL     1       1.365   4.633  -3.930  0.00  0.00    +0.259 A 
ATOM     23  O   UNL     1       2.153   5.482  -3.556  0.00  0.00    -0.267 OA
ATOM     24  C   UNL     1       0.794   4.664  -5.284  0.00  0.00    +0.065 A 
ATOM     25  C   UNL     1       1.124   5.660  -6.201  0.00  0.00    +0.015 A 
ATOM     26  C   UNL     1       0.559   5.641  -7.457  0.00  0.00    +0.001 A 
ATOM     27  C   UNL     1      -0.334   4.640  -7.815  0.00  0.00    +0.002 A 
ATOM     28  C   UNL     1      -0.674   3.647  -6.924  0.00  0.00    +0.028 A 
ATOM     29  C   UNL     1      -0.114   3.644  -5.645  0.00  0.00    +0.078 A 
ATOM     30  N   UNL     1      -0.417   2.682  -4.738  0.00  0.00    -0.233 NA
ENDBRANCH  18  19
ENDBRANCH  16  18
ENDBRANCH  15  16
ENDBRANCH   1  15
BRANCH  14  31
ATOM     31  C   UNL     1      -8.393  -1.180  -1.585  0.00  0.00    +0.128 C 
BRANCH  31  32
ATOM     32  C   UNL     1      -8.652  -2.204  -0.478  0.00  0.00    +0.025 C 
BRANCH  32  33
ATOM     33  C   UNL     1      -9.819  -3.107  -0.882  0.00  0.00    -0.016 C 
ATOM     34  C   UNL     1      -9.425  -3.931  -2.110  0.00  0.00    +0.007 C 
ATOM     35  C   UNL     1     -10.159  -4.048   0.276  0.00  0.00    +0.007 C 
ENDBRANCH  32  33
ENDBRANCH  31  32
ENDBRANCH  14  31
TORSDOF 7
