REMARK  Name = ZINC37433302
REMARK  5 active torsions:
REMARK  status: ('A' for Active; 'I' for Inactive)
REMARK    1  A    between atoms: C_1  and  C_2
REMARK    2  A    between atoms: C_3  and  C_11
REMARK    3  A    between atoms: C_4  and  S_9
REMARK    4  A    between atoms: S_9  and  C_10
REMARK    5  A    between atoms: C_16  and  C_19
REMARK                            x       y       z     vdW  Elec       q    Type
REMARK                         _______ _______ _______ _____ _____    ______ ____
ROOT
ATOM      1  C   UNL     1       1.405   1.612  -2.489  0.00  0.00    +0.251 C 
ATOM      2  O   UNL     1       1.837   0.527  -2.831  0.00  0.00    -0.270 OA
ATOM      3  N   UNL     1       2.258   2.612  -2.192  0.00  0.00    -0.297 N 
ATOM      4  C   UNL     1       1.752   3.926  -1.772  0.00  0.00    +0.109 C 
ATOM      5  C   UNL     1       2.371   5.003  -2.669  0.00  0.00    +0.034 C 
ATOM      6  C   UNL     1       3.896   4.875  -2.634  0.00  0.00    +0.105 C 
ATOM      7  C   UNL     1       4.308   3.503  -3.172  0.00  0.00    +0.034 C 
ATOM      8  C   UNL     1       3.711   2.408  -2.274  0.00  0.00    +0.109 C 
ENDROOT
BRANCH   1  11
ATOM      9  C   UNL     1      -0.013   1.086   0.008  0.00  0.00    +0.066 C 
ATOM     10  C   UNL     1      -0.742   1.585  -1.213  0.00  0.00    +0.058 A 
ATOM     11  C   UNL     1      -0.047   1.832  -2.402  0.00  0.00    +0.090 A 
ATOM     12  C   UNL     1      -0.780   2.299  -3.515  0.00  0.00    +0.116 A 
ATOM     13  N   UNL     1      -2.090   2.483  -3.388  0.00  0.00    -0.184 NA
ATOM     14  C   UNL     1      -2.700   2.235  -2.241  0.00  0.00    +0.369 A 
ATOM     15  O   UNL     1      -4.035   2.435  -2.153  0.00  0.00    -0.243 OA
ATOM     16  N   UNL     1      -2.046   1.790  -1.177  0.00  0.00    -0.196 NA
BRANCH  12  17
ATOM     17  S   UNL     1       0.029   2.632  -5.045  0.00  0.00    -0.108 S 
ATOM     18  C   UNL     1      -1.308   3.194  -6.135  0.00  0.00    +0.091 C 
ENDBRANCH  12  17
ENDBRANCH   1  11
BRANCH   6  19
ATOM     19  C   UNL     1       4.510   5.954  -3.489  0.00  0.00    +0.359 C 
ATOM     20  O   UNL     1       5.518   6.528  -3.115  0.00  0.00    -0.246 OA
ATOM     21  O   UNL     1       3.998   6.253  -4.554  0.00  0.00    -0.246 OA
ENDBRANCH   6  19
TORSDOF 3
