REMARK  Name = ZINC09405373
REMARK  13 active torsions:
REMARK  status: ('A' for Active; 'I' for Inactive)
REMARK    1  A    between atoms: C_1  and  C_2
REMARK    2  A    between atoms: C_5  and  N_9
REMARK    3  A    between atoms: C_6  and  C_8
REMARK    4  A    between atoms: C_10  and  C_12
REMARK    5  A    between atoms: C_12  and  S_13
REMARK    6  A    between atoms: S_13  and  C_14
REMARK    7  A    between atoms: N_20  and  C_21
REMARK    8  A    between atoms: C_21  and  C_22
REMARK    9  A    between atoms: C_22  and  C_23
REMARK   10  A    between atoms: C_23  and  O_24
REMARK   11  A    between atoms: O_24  and  C_25
REMARK   12  A    between atoms: C_25  and  C_26
REMARK   13  A    between atoms: C_25  and  C_27
REMARK                            x       y       z     vdW  Elec       q    Type
REMARK                         _______ _______ _______ _____ _____    ______ ____
ROOT
ATOM      1  C   UNL     1      -0.016   1.361  -0.021  0.00  0.00    +0.174 A 
ATOM      2  N   UNL     1       1.073   2.092  -0.034  0.00  0.00    -0.202 NA
ATOM      3  C   UNL     1       2.298   1.537  -0.059  0.00  0.00    +0.186 A 
ATOM      4  C   UNL     1       2.416   0.128  -0.073  0.00  0.00    +0.172 A 
ATOM      5  C   UNL     1       1.179  -0.672  -0.059  0.00  0.00    +0.282 A 
ATOM      6  O   UNL     1       1.214  -1.889  -0.071  0.00  0.00    -0.265 OA
ATOM      7  N   UNL     1       0.003  -0.003  -0.034  0.00  0.00    -0.286 N 
ATOM      8  N   UNL     1       3.614  -0.440  -0.098  0.00  0.00    -0.245 NA
ATOM      9  C   UNL     1       4.694   0.317  -0.110  0.00  0.00    +0.131 A 
ATOM     10  C   UNL     1       4.584   1.703  -0.095  0.00  0.00    +0.133 A 
ATOM     11  N   UNL     1       3.402   2.285  -0.071  0.00  0.00    -0.233 NA
ENDROOT
BRANCH   1  12
ATOM     12  S   UNL     1      -1.576   2.179   0.004  0.00  0.00    -0.078 S 
BRANCH  12  13
ATOM     13  C   UNL     1      -1.027   3.904   0.013  0.00  0.00    +0.173 C 
BRANCH  13  15
ATOM     14  N   UNL     1      -2.060   6.151   0.045  0.00  0.00    -0.285 N 
ATOM     15  C   UNL     1      -2.228   4.814   0.035  0.00  0.00    +0.227 C 
ATOM     16  O   UNL     1      -3.345   4.342   0.045  0.00  0.00    -0.275 OA
ATOM     17  H   UNL     1      -1.169   6.528   0.118  0.00  0.00    +0.155 HD
BRANCH  14  22
ATOM     18  C   UNL     1      -6.565   9.577  -0.344  0.00  0.00    +0.044 C 
ATOM     19  C   UNL     1      -5.369   8.667  -0.240  0.00  0.00    -0.050 A 
ATOM     20  C   UNL     1      -5.433   7.382  -0.747  0.00  0.00    +0.005 A 
ATOM     21  C   UNL     1      -4.339   6.545  -0.654  0.00  0.00    +0.024 A 
ATOM     22  C   UNL     1      -3.171   6.996  -0.051  0.00  0.00    +0.036 A 
ATOM     23  C   UNL     1      -3.111   8.285   0.462  0.00  0.00    -0.029 A 
ATOM     24  C   UNL     1      -4.208   9.118   0.361  0.00  0.00    +0.008 A 
ATOM     25  C   UNL     1      -1.849   8.776   1.123  0.00  0.00    +0.045 C 
ENDBRANCH  14  22
ENDBRANCH  13  15
ENDBRANCH  12  13
ENDBRANCH   1  12
BRANCH   7  26
ATOM     26  C   UNL     1      -1.258  -0.749  -0.018  0.00  0.00    +0.129 C 
BRANCH  26  27
ATOM     27  C   UNL     1      -1.722  -0.996  -1.455  0.00  0.00    +0.050 C 
BRANCH  27  28
ATOM     28  C   UNL     1      -3.039  -1.774  -1.439  0.00  0.00    +0.162 C 
BRANCH  28  29
ATOM     29  O   UNL     1      -3.472  -2.005  -2.781  0.00  0.00    -0.377 OA
BRANCH  29  30
ATOM     30  C   UNL     1      -4.700  -2.729  -2.879  0.00  0.00    +0.112 C 
ATOM     31  C   UNL     1      -5.872  -1.746  -2.891  0.00  0.00    +0.037 C 
ATOM     32  C   UNL     1      -4.708  -3.547  -4.172  0.00  0.00    +0.037 C 
ENDBRANCH  29  30
ENDBRANCH  28  29
ENDBRANCH  27  28
ENDBRANCH  26  27
ENDBRANCH   7  26
TORSDOF 9
