REMARK  Name = ZINC20130126
REMARK  7 active torsions:
REMARK  status: ('A' for Active; 'I' for Inactive)
REMARK    1  A    between atoms: C_1  and  O_2
REMARK    2  A    between atoms: O_2  and  C_3
REMARK    3  A    between atoms: C_8  and  C_9
REMARK    4  A    between atoms: C_12  and  C_13
REMARK    5  A    between atoms: C_14  and  C_15
REMARK    6  A    between atoms: N_26  and  C_27
REMARK    7  A    between atoms: C_31  and  C_33
REMARK                            x       y       z     vdW  Elec       q    Type
REMARK                         _______ _______ _______ _____ _____    ______ ____
ROOT
ATOM      1  C   UNL     1       0.055  -2.828   0.021  0.00  0.00    +0.153 C 
ATOM      2  C   UNL     1      -1.407  -3.072   0.317  0.00  0.00    +0.076 C 
ATOM      3  C   UNL     1      -2.397  -2.114   0.472  0.00  0.00    +0.188 C 
ATOM      4  O   UNL     1      -2.118  -0.810   0.246  0.00  0.00    -0.287 OA
ATOM      5  C   UNL     1      -1.560  -4.462   0.401  0.00  0.00    +0.250 C 
ATOM      6  O   UNL     1      -2.602  -5.052   0.627  0.00  0.00    -0.282 OA
ATOM      7  C   UNL     1      -0.235  -5.092   0.167  0.00  0.00    +0.292 C 
ATOM      8  O   UNL     1      -0.022  -6.287   0.172  0.00  0.00    -0.266 OA
ATOM      9  N   UNL     1       0.694  -4.145  -0.053  0.00  0.00    -0.253 N 
ENDROOT
BRANCH   1  15
ATOM     10  C   UNL     1       0.890  -2.585   2.373  0.00  0.00    +0.125 A 
ATOM     11  C   UNL     1       1.467  -1.835   3.388  0.00  0.00    +0.046 A 
ATOM     12  C   UNL     1       1.822  -0.520   3.157  0.00  0.00    +0.004 A 
ATOM     13  C   UNL     1       1.603   0.048   1.915  0.00  0.00    +0.001 A 
ATOM     14  C   UNL     1       1.028  -0.697   0.903  0.00  0.00    +0.009 A 
ATOM     15  C   UNL     1       0.676  -2.014   1.127  0.00  0.00    +0.020 A 
BRANCH  10  17
ATOM     16  C   UNL     1       0.790  -4.401   3.905  0.00  0.00    +0.277 C 
ATOM     17  O   UNL     1       0.541  -3.879   2.598  0.00  0.00    -0.495 OA
ENDBRANCH  10  17
ENDBRANCH   1  15
BRANCH   9  18
ATOM     18  C   UNL     1       2.049  -4.378  -0.310  0.00  0.00    +0.038 A 
ATOM     19  C   UNL     1       2.912  -3.307  -0.515  0.00  0.00    +0.023 A 
ATOM     20  C   UNL     1       4.252  -3.531  -0.769  0.00  0.00    +0.003 A 
ATOM     21  C   UNL     1       4.743  -4.820  -0.821  0.00  0.00    +0.015 A 
ATOM     22  C   UNL     1       3.885  -5.903  -0.616  0.00  0.00    +0.065 A 
ATOM     23  C   UNL     1       2.532  -5.676  -0.354  0.00  0.00    +0.038 A 
BRANCH  22  24
ATOM     24  C   UNL     1       4.407  -7.282  -0.671  0.00  0.00    +0.387 C 
ATOM     25  O   UNL     1       5.593  -7.479  -0.897  0.00  0.00    -0.241 OA
ATOM     26  O   UNL     1       3.654  -8.229  -0.491  0.00  0.00    -0.241 OA
ENDBRANCH  22  24
ENDBRANCH   9  18
BRANCH   3  27
ATOM     27  C   UNL     1      -3.698  -2.499   0.867  0.00  0.00    +0.052 C 
ATOM     28  C   UNL     1      -4.665  -1.563   1.019  0.00  0.00    +0.011 C 
BRANCH  28  29
ATOM     29  C   UNL     1      -6.018  -1.964   1.430  0.00  0.00    -0.025 A 
ATOM     30  C   UNL     1      -6.309  -3.312   1.671  0.00  0.00    +0.008 A 
ATOM     31  C   UNL     1      -7.581  -3.679   2.057  0.00  0.00    +0.001 A 
ATOM     32  C   UNL     1      -8.568  -2.720   2.206  0.00  0.00    +0.000 A 
ATOM     33  C   UNL     1      -8.287  -1.385   1.969  0.00  0.00    +0.001 A 
ATOM     34  C   UNL     1      -7.020  -1.000   1.588  0.00  0.00    +0.008 A 
ENDBRANCH  28  29
ENDBRANCH   3  27
TORSDOF 6
