REMARK  Name = ZINC39409724
REMARK  5 active torsions:
REMARK  status: ('A' for Active; 'I' for Inactive)
REMARK    1  A    between atoms: C_1  and  C_2
REMARK    2  A    between atoms: C_12  and  S_14
REMARK    3  A    between atoms: S_14  and  C_15
REMARK    4  A    between atoms: C_18  and  C_28
REMARK    5  A    between atoms: N_20  and  C_21
REMARK                            x       y       z     vdW  Elec       q    Type
REMARK                         _______ _______ _______ _____ _____    ______ ____
ROOT
ATOM      1  C   UNL     1      -1.150  -1.064   3.859  0.00  0.00    +0.181 C 
ATOM      2  N   UNL     1      -0.170  -1.865   4.108  0.00  0.00    -0.162 NA
ATOM      3  N   UNL     1      -0.378  -2.578   5.296  0.00  0.00    -0.241 N 
ATOM      4  C   UNL     1      -1.677  -2.125   5.823  0.00  0.00    +0.219 C 
ATOM      5  N   UNL     1      -2.131  -1.128   4.839  0.00  0.00    -0.254 N 
ATOM      6  H   UNL     1       0.214  -3.236   5.691  0.00  0.00    +0.171 HD
ENDROOT
BRANCH   5   7
ATOM      7  C   UNL     1      -3.319  -0.392   4.882  0.00  0.00    +0.038 A 
ATOM      8  C   UNL     1      -3.537   0.518   5.909  0.00  0.00    +0.026 A 
ATOM      9  C   UNL     1      -4.711   1.244   5.949  0.00  0.00    +0.040 A 
ATOM     10  C   UNL     1      -5.671   1.066   4.967  0.00  0.00    +0.124 A 
ATOM     11  C   UNL     1      -5.456   0.159   3.942  0.00  0.00    +0.040 A 
ATOM     12  C   UNL     1      -4.281  -0.565   3.895  0.00  0.00    +0.026 A 
ATOM     13  F   UNL     1      -6.819   1.777   5.008  0.00  0.00    -0.205 F 
ENDBRANCH   5   7
BRANCH   4  14
ATOM     14  C   UNL     1      -2.644  -3.278   5.905  0.00  0.00    +0.030 A 
ATOM     15  C   UNL     1      -2.393  -4.588   6.143  0.00  0.00    +0.015 A 
ATOM     16  C   UNL     1      -3.450  -5.479   6.174  0.00  0.00    +0.008 A 
ATOM     17  C   UNL     1      -4.706  -5.016   5.965  0.00  0.00    +0.045 A 
ATOM     18  S   UNL     1      -4.420  -3.270   5.721  0.00  0.00    -0.098 S 
ENDBRANCH   4  14
BRANCH   1  19
ATOM     19  S   UNL     1      -1.231  -0.011   2.450  0.00  0.00    -0.071 S 
BRANCH  19  31
ATOM     20  C   UNL     1       0.364   2.087   0.580  0.00  0.00    +0.041 C 
ATOM     21  C   UNL     1       0.386   0.594   0.377  0.00  0.00    -0.042 C 
ATOM     22  C   UNL     1       0.485   0.051  -0.866  0.00  0.00    +0.000 A 
ATOM     23  C   UNL     1       0.573   0.906  -2.051  0.00  0.00    +0.059 A 
ATOM     24  C   UNL     1       0.670   0.332  -3.279  0.00  0.00    +0.167 A 
ATOM     25  C   UNL     1       0.688  -1.072  -3.430  0.00  0.00    +0.168 A 
ATOM     26  C   UNL     1       0.608  -1.920  -2.345  0.00  0.00    +0.073 A 
ATOM     27  C   UNL     1       0.506  -1.413  -1.044  0.00  0.00    +0.044 A 
ATOM     28  N   UNL     1       0.429  -2.252  -0.007  0.00  0.00    -0.284 N 
ATOM     29  C   UNL     1       0.330  -1.843   1.245  0.00  0.00    +0.235 C 
ATOM     30  O   UNL     1       0.263  -2.654   2.149  0.00  0.00    -0.274 OA
ATOM     31  C   UNL     1       0.305  -0.362   1.551  0.00  0.00    +0.166 C 
ATOM     32  O   UNL     1       0.792  -1.355  -4.761  0.00  0.00    -0.453 OA
ATOM     33  C   UNL     1       0.417  -0.146  -5.445  0.00  0.00    +0.466 C 
ATOM     34  O   UNL     1       0.761   0.900  -4.519  0.00  0.00    -0.453 OA
ATOM     35  H   UNL     1       0.446  -3.205  -0.182  0.00  0.00    +0.155 HD
ENDBRANCH  19  31
ENDBRANCH   1  19
TORSDOF 4
