REMARK  Name = ZINC06322058
REMARK  7 active torsions:
REMARK  status: ('A' for Active; 'I' for Inactive)
REMARK    1  A    between atoms: C_1  and  C_2
REMARK    2  A    between atoms: C_5  and  C_38
REMARK    3  A    between atoms: C_9  and  C_14
REMARK    4  A    between atoms: C_14  and  C_16
REMARK    5  A    between atoms: C_14  and  N_68
REMARK    6  A    between atoms: N_20  and  C_21
REMARK    7  A    between atoms: C_31  and  C_33
REMARK                            x       y       z     vdW  Elec       q    Type
REMARK                         _______ _______ _______ _____ _____    ______ ____
ROOT
ATOM      1  C   UNL     1      -4.461   1.520  -1.905  0.00  0.00    +0.039 C 
ENDROOT
BRANCH   1  10
ATOM      2  C   UNL     1       0.693   2.205  -1.612  0.00  0.00    +0.044 C 
ATOM      3  C   UNL     1       0.144   2.328  -0.213  0.00  0.00    -0.041 A 
ATOM      4  C   UNL     1       0.986   2.578   0.834  0.00  0.00    +0.004 A 
ATOM      5  C   UNL     1       0.491   2.694   2.125  0.00  0.00    +0.005 A 
ATOM      6  C   UNL     1      -0.858   2.560   2.376  0.00  0.00    -0.026 A 
ATOM      7  C   UNL     1      -1.734   2.306   1.326  0.00  0.00    +0.052 A 
ATOM      8  C   UNL     1      -1.228   2.194   0.017  0.00  0.00    +0.002 A 
ATOM      9  C   UNL     1      -2.158   1.921  -1.081  0.00  0.00    +0.018 A 
ATOM     10  C   UNL     1      -3.477   1.796  -0.797  0.00  0.00    +0.011 A 
ATOM     11  C   UNL     1      -3.933   1.922   0.533  0.00  0.00    +0.251 A 
ATOM     12  O   UNL     1      -5.124   1.805   0.766  0.00  0.00    -0.268 OA
ATOM     13  N   UNL     1      -3.087   2.168   1.548  0.00  0.00    -0.322 N 
ATOM     14  H   UNL     1      -3.434   2.249   2.451  0.00  0.00    +0.169 HD
ATOM     15  C   UNL     1      -1.382   2.690   3.784  0.00  0.00    +0.046 C 
ENDBRANCH   1  10
BRANCH   1  23
ATOM     16  C   UNL     1      -6.426   2.370  -3.036  0.00  0.00    -0.058 C 
ATOM     17  C   UNL     1      -7.546   3.412  -2.941  0.00  0.00    +0.089 C 
ATOM     18  N   UNL     1      -6.938   4.751  -2.922  0.00  0.00    -0.299 N 
ATOM     19  C   UNL     1      -5.862   5.013  -1.955  0.00  0.00    +0.089 C 
ATOM     20  C   UNL     1      -4.808   3.909  -2.089  0.00  0.00    -0.058 C 
ATOM     21  C   UNL     1      -7.357   5.713  -3.769  0.00  0.00    +0.282 C 
ATOM     22  O   UNL     1      -6.766   6.775  -3.824  0.00  0.00    -0.267 OA
ATOM     23  N   UNL     1      -5.472   2.597  -1.928  0.00  0.00    +0.391 N 
ATOM     24  H   UNL     1      -5.986   2.591  -1.040  0.00  0.00    -0.080 HD
BRANCH  21  25
ATOM     25  C   UNL     1      -8.526   5.479  -4.624  0.00  0.00    +0.189 A 
ATOM     26  C   UNL     1      -8.979   6.309  -5.608  0.00  0.00    +0.054 A 
ATOM     27  C   UNL     1     -10.112   5.696  -6.164  0.00  0.00    +0.042 A 
ATOM     28  C   UNL     1     -10.299   4.532  -5.503  0.00  0.00    +0.196 A 
ATOM     29  O   UNL     1      -9.338   4.402  -4.579  0.00  0.00    -0.458 OA
ENDBRANCH  21  25
ENDBRANCH   1  23
BRANCH   1  30
ATOM     30  C   UNL     1      -5.154   0.207  -1.646  0.00  0.00    +0.143 A 
ATOM     31  N   UNL     1      -6.090  -0.022  -0.757  0.00  0.00    -0.115 NA
ATOM     32  N   UNL     1      -6.427  -1.262  -0.844  0.00  0.00    -0.023 NA
ATOM     33  N   UNL     1      -5.726  -1.833  -1.760  0.00  0.00    -0.044 NA
ATOM     34  N   UNL     1      -4.929  -0.960  -2.278  0.00  0.00    -0.227 N 
BRANCH  34  35
ATOM     35  C   UNL     1      -3.961  -1.194  -3.353  0.00  0.00    +0.111 C 
ATOM     36  C   UNL     1      -4.683  -1.731  -4.606  0.00  0.00    +0.027 C 
ATOM     37  C   UNL     1      -3.693  -2.764  -5.200  0.00  0.00    +0.002 C 
ATOM     38  C   UNL     1      -3.097  -3.434  -3.937  0.00  0.00    +0.002 C 
ATOM     39  C   UNL     1      -2.953  -2.276  -2.927  0.00  0.00    +0.027 C 
ENDBRANCH  34  35
ENDBRANCH   1  30
TORSDOF 5
