REMARK  Name = ZINC09494774
REMARK  9 active torsions:
REMARK  status: ('A' for Active; 'I' for Inactive)
REMARK    1  A    between atoms: C_1  and  O_2
REMARK    2  A    between atoms: O_2  and  C_3
REMARK    3  A    between atoms: C_6  and  C_9
REMARK    4  A    between atoms: C_9  and  C_11
REMARK    5  A    between atoms: C_9  and  N_66
REMARK    6  A    between atoms: C_11  and  N_12
REMARK    7  A    between atoms: C_13  and  C_15
REMARK    8  A    between atoms: N_18  and  C_21
REMARK    9  A    between atoms: C_24  and  C_26
REMARK                            x       y       z     vdW  Elec       q    Type
REMARK                         _______ _______ _______ _____ _____    ______ ____
ROOT
ATOM      1  N   UNL     1      -4.786   6.462   8.074  0.00  0.00    -0.316 N 
ATOM      2  C   UNL     1      -5.059   5.327   7.400  0.00  0.00    +0.216 C 
ATOM      3  O   UNL     1      -5.813   4.505   7.876  0.00  0.00    -0.276 OA
ATOM      4  H   UNL     1      -4.183   7.119   7.693  0.00  0.00    +0.149 HD
ENDROOT
BRANCH   2   5
ATOM      5  C   UNL     1      -4.428   5.080   6.054  0.00  0.00    +0.078 C 
ATOM      6  C   UNL     1      -4.900   3.730   5.508  0.00  0.00    +0.031 C 
ATOM      7  C   UNL     1      -4.209   3.456   4.170  0.00  0.00    +0.107 C 
ATOM      8  N   UNL     1      -2.753   3.444   4.363  0.00  0.00    -0.317 N 
ATOM      9  C   UNL     1      -2.271   4.745   4.842  0.00  0.00    +0.107 C 
ATOM     10  C   UNL     1      -2.904   5.057   6.200  0.00  0.00    +0.031 C 
BRANCH   8  11
ATOM     11  C   UNL     1      -2.099   3.069   3.195  0.00  0.00    +0.099 A 
ATOM     12  C   UNL     1      -0.710   2.998   3.176  0.00  0.00    +0.042 A 
ATOM     13  C   UNL     1      -0.072   2.623   2.007  0.00  0.00    +0.017 A 
ATOM     14  C   UNL     1      -0.848   2.332   0.893  0.00  0.00    +0.071 A 
ATOM     15  C   UNL     1      -2.221   2.429   0.981  0.00  0.00    +0.096 A 
ATOM     16  N   UNL     1      -2.882   2.788   2.114  0.00  0.00    -0.349 N 
ATOM     17  H   UNL     1      -3.907   2.844   2.153  0.00  0.00    +0.167 HD
BRANCH  14  18
ATOM     18  C   UNL     1      -0.195   1.920  -0.402  0.00  0.00    +0.419 C 
ATOM     19  F   UNL     1      -0.053   0.528  -0.430  0.00  0.00    -0.166 F 
ATOM     20  F   UNL     1       1.065   2.519  -0.501  0.00  0.00    -0.166 F 
ATOM     21  F   UNL     1      -0.992   2.330  -1.476  0.00  0.00    -0.166 F 
ENDBRANCH  14  18
ENDBRANCH   8  11
ENDBRANCH   2   5
BRANCH   1  22
ATOM     22  C   UNL     1      -5.400   6.702   9.382  0.00  0.00    +0.093 C 
BRANCH  22  23
ATOM     23  C   UNL     1      -4.838   7.994   9.979  0.00  0.00    -0.020 C 
BRANCH  23  27
ATOM     24  C   UNL     1      -6.032  11.315   7.569  0.00  0.00    +0.120 A 
ATOM     25  C   UNL     1      -4.759  10.781   7.435  0.00  0.00    +0.046 A 
ATOM     26  C   UNL     1      -4.375   9.708   8.215  0.00  0.00    +0.005 A 
ATOM     27  C   UNL     1      -5.259   9.165   9.129  0.00  0.00    -0.059 A 
ATOM     28  C   UNL     1      -6.531   9.691   9.261  0.00  0.00    +0.005 A 
ATOM     29  C   UNL     1      -6.918  10.768   8.487  0.00  0.00    +0.046 A 
BRANCH  24  31
ATOM     30  C   UNL     1      -7.739  12.867   6.993  0.00  0.00    +0.277 C 
ATOM     31  O   UNL     1      -6.413  12.370   6.802  0.00  0.00    -0.495 OA
ENDBRANCH  24  31
ENDBRANCH  23  27
BRANCH  23  36
ATOM     32  C   UNL     1      -4.982   7.017  12.205  0.00  0.00    -0.078 C 
ATOM     33  C   UNL     1      -5.121   7.587  13.639  0.00  0.00    -0.020 C 
ATOM     34  C   UNL     1      -4.610   9.038  13.485  0.00  0.00    -0.020 C 
ATOM     35  C   UNL     1      -4.762   9.361  11.986  0.00  0.00    -0.078 C 
ATOM     36  N   UNL     1      -5.352   8.171  11.371  0.00  0.00    +0.385 N 
ATOM     37  H   UNL     1      -6.374   8.266  11.343  0.00  0.00    -0.081 HD
ENDBRANCH  23  36
ENDBRANCH  22  23
ENDBRANCH   1  22
TORSDOF 8
