REMARK  Name = ZINC20561218
REMARK  11 active torsions:
REMARK  status: ('A' for Active; 'I' for Inactive)
REMARK    1  A    between atoms: C_1  and  C_2
REMARK    2  A    between atoms: C_2  and  C_3
REMARK    3  A    between atoms: C_3  and  O_4
REMARK    4  A    between atoms: O_4  and  C_5
REMARK    5  A    between atoms: C_5  and  C_7
REMARK    6  A    between atoms: C_8  and  C_34
REMARK    7  A    between atoms: C_12  and  C_14
REMARK    8  A    between atoms: C_24  and  C_30
REMARK    9  A    between atoms: C_26  and  C_29
REMARK   10  A    between atoms: C_30  and  O_32
REMARK   11  A    between atoms: O_32  and  C_33
REMARK                            x       y       z     vdW  Elec       q    Type
REMARK                         _______ _______ _______ _____ _____    ______ ____
ROOT
ATOM      1  C   UNL     1       1.398  -3.937  -2.385  0.00  0.00    +0.065 C 
ATOM      2  C   UNL     1       1.897  -4.521  -3.488  0.00  0.00    +0.016 C 
ATOM      3  N   UNL     1       1.967  -5.883  -3.578  0.00  0.00    -0.321 N 
ATOM      4  C   UNL     1       1.911  -6.662  -2.453  0.00  0.00    +0.016 C 
ATOM      5  C   UNL     1       1.403  -6.168  -1.303  0.00  0.00    +0.025 C 
ATOM      6  C   UNL     1       0.887  -4.753  -1.234  0.00  0.00    +0.092 C 
ATOM      7  C   UNL     1       1.339  -6.957  -0.141  0.00  0.00    +0.176 C 
ATOM      8  O   UNL     1       0.891  -6.478   0.881  0.00  0.00    -0.291 OA
ATOM      9  C   UNL     1       1.815  -8.384  -0.141  0.00  0.00    +0.171 C 
ATOM     10  C   UNL     1       1.656  -8.962  -1.552  0.00  0.00    +0.013 C 
ATOM     11  C   UNL     1       2.430  -8.076  -2.529  0.00  0.00    +0.055 C 
ATOM     12  C   UNL     1       0.175  -8.979  -1.936  0.00  0.00    +0.009 C 
ATOM     13  C   UNL     1       2.387  -3.669  -4.630  0.00  0.00    +0.061 C 
ATOM     14  H   UNL     1       2.070  -6.365  -4.561  0.00  0.00    +0.152 HD
ENDROOT
BRANCH   6  15
ATOM     15  C   UNL     1      -0.619  -4.774  -1.272  0.00  0.00    -0.034 A 
ATOM     16  C   UNL     1      -1.344  -4.274  -0.206  0.00  0.00    +0.006 A 
ATOM     17  C   UNL     1      -2.725  -4.293  -0.239  0.00  0.00    +0.022 A 
ATOM     18  C   UNL     1      -3.384  -4.812  -1.340  0.00  0.00    +0.059 A 
ATOM     19  C   UNL     1      -2.658  -5.312  -2.408  0.00  0.00    +0.060 A 
ATOM     20  C   UNL     1      -1.275  -5.287  -2.375  0.00  0.00    +0.026 A 
ATOM     21 CL   UNL     1      -3.482  -5.963  -3.789  0.00  0.00    -0.082 Cl
ATOM     22 CL   UNL     1      -5.119  -4.836  -1.383  0.00  0.00    -0.082 Cl
ENDBRANCH   6  15
BRANCH   1  23
ATOM     23  C   UNL     1       1.348  -2.525  -2.310  0.00  0.00    +0.338 C 
ATOM     24  O   UNL     1       1.849  -1.851  -3.191  0.00  0.00    -0.245 OA
BRANCH  23  25
ATOM     25  O   UNL     1       0.744  -1.926  -1.262  0.00  0.00    -0.461 OA
BRANCH  25  26
ATOM     26  C   UNL     1       0.731  -0.497  -1.252  0.00  0.00    +0.232 C 
BRANCH  26  28
ATOM     27  C   UNL     1      -0.005   1.527   0.015  0.00  0.00    +0.007 C 
ATOM     28  C   UNL     1       0.009  -0.003   0.003  0.00  0.00    +0.038 C 
ENDBRANCH  26  28
ENDBRANCH  25  26
ENDBRANCH  23  25
ENDBRANCH   1  23
BRANCH   9  29
ATOM     29  C   UNL     1       0.992  -9.191   0.830  0.00  0.00    +0.318 C 
ATOM     30  O   UNL     1       0.344 -10.132   0.437  0.00  0.00    -0.250 OA
BRANCH  29  31
ATOM     31  O   UNL     1       0.979  -8.863   2.132  0.00  0.00    -0.467 OA
ATOM     32  C   UNL     1       0.164  -9.684   3.010  0.00  0.00    +0.280 C 
ENDBRANCH  29  31
ENDBRANCH   9  29
TORSDOF 7
