REMARK  Name = ZINC02411306
REMARK  7 active torsions:
REMARK  status: ('A' for Active; 'I' for Inactive)
REMARK    1  A    between atoms: C_1  and  C_2
REMARK    2  A    between atoms: C_2  and  C_34
REMARK    3  A    between atoms: C_7  and  C_33
REMARK    4  A    between atoms: C_10  and  N_11
REMARK    5  A    between atoms: C_10  and  N_62
REMARK    6  A    between atoms: N_19  and  N_20
REMARK    7  A    between atoms: C_21  and  C_23
REMARK                            x       y       z     vdW  Elec       q    Type
REMARK                         _______ _______ _______ _____ _____    ______ ____
ROOT
ATOM      1  N   UNL     1       7.488   1.686  -0.058  0.00  0.00    -0.282 N 
ATOM      2  C   UNL     1       8.201   2.880  -0.058  0.00  0.00    +0.044 A 
ATOM      3  C   UNL     1       9.567   3.140  -0.069  0.00  0.00    +0.024 A 
ATOM      4  C   UNL     1      10.024   4.443  -0.065  0.00  0.00    +0.002 A 
ATOM      5  C   UNL     1       9.133   5.503  -0.051  0.00  0.00    +0.001 A 
ATOM      6  C   UNL     1       7.774   5.264  -0.040  0.00  0.00    +0.012 A 
ATOM      7  C   UNL     1       7.303   3.956  -0.050  0.00  0.00    +0.028 A 
ATOM      8  C   UNL     1       5.944   3.366  -0.035  0.00  0.00    +0.153 C 
ATOM      9  N   UNL     1       4.798   4.003  -0.021  0.00  0.00    -0.174 NA
ATOM     10  C   UNL     1       6.162   1.906  -0.045  0.00  0.00    +0.270 C 
ATOM     11  O   UNL     1       5.295   1.052  -0.043  0.00  0.00    -0.268 OA
ENDROOT
BRANCH   9  12
ATOM     12  N   UNL     1       3.596   3.282  -0.014  0.00  0.00    -0.202 N 
ATOM     13  C   UNL     1       2.418   3.936   0.001  0.00  0.00    +0.265 C 
ATOM     14  O   UNL     1       2.398   5.151   0.007  0.00  0.00    -0.268 OA
ATOM     15  H   UNL     1       3.613   2.312  -0.019  0.00  0.00    +0.178 HD
BRANCH  13  16
ATOM     16  C   UNL     1       1.153   3.176   0.008  0.00  0.00    +0.057 A 
ATOM     17  C   UNL     1       1.173   1.779   0.000  0.00  0.00    +0.016 A 
ATOM     18  C   UNL     1      -0.013   1.076   0.008  0.00  0.00    +0.021 A 
ATOM     19  C   UNL     1      -1.223   1.750   0.017  0.00  0.00    +0.042 A 
ATOM     20  C   UNL     1      -1.251   3.135   0.031  0.00  0.00    +0.040 A 
ATOM     21  C   UNL     1      -0.071   3.852   0.023  0.00  0.00    +0.054 A 
ATOM     22 CL   UNL     1      -0.108   5.587   0.033  0.00  0.00    -0.083 Cl
ATOM     23 CL   UNL     1      -2.711   0.856   0.020  0.00  0.00    -0.083 Cl
ENDBRANCH  13  16
ENDBRANCH   9  12
BRANCH   1  24
ATOM     24  C   UNL     1       8.104   0.357  -0.072  0.00  0.00    +0.039 C 
BRANCH  24  35
ATOM     25  C   UNL     1      11.113  -1.380   0.390  0.00  0.00    +0.011 C 
ATOM     26  C   UNL     1      10.573  -2.153  -0.830  0.00  0.00    -0.036 C 
ATOM     27  C   UNL     1       9.074  -2.305  -0.695  0.00  0.00    -0.009 C 
ATOM     28  C   UNL     1       8.216  -1.524  -1.676  0.00  0.00    -0.065 C 
ATOM     29  C   UNL     1       8.856  -1.691  -3.084  0.00  0.00    -0.011 C 
ATOM     30  C   UNL     1      10.082  -0.753  -2.920  0.00  0.00    -0.048 C 
ATOM     31  C   UNL     1      11.116  -1.514  -2.091  0.00  0.00    +0.011 C 
ATOM     32  C   UNL     1       9.538   0.414  -2.060  0.00  0.00    -0.070 C 
ATOM     33  C   UNL     1      10.637  -0.273  -4.269  0.00  0.00    +0.009 C 
ATOM     34  C   UNL     1      11.187  -3.574  -0.739  0.00  0.00    +0.011 C 
ATOM     35  N   UNL     1       8.268  -0.056  -1.508  0.00  0.00    +0.393 N 
ATOM     36  H   UNL     1       7.500   0.363  -2.046  0.00  0.00    -0.079 HD
ENDBRANCH  24  35
ENDBRANCH   1  24
TORSDOF 4
