REMARK  Name = ZINC09109804
REMARK  8 active torsions:
REMARK  status: ('A' for Active; 'I' for Inactive)
REMARK    1  A    between atoms: C_1  and  C_2
REMARK    2  A    between atoms: C_13  and  C_36
REMARK    3  A    between atoms: C_15  and  C_27
REMARK    4  A    between atoms: C_27  and  C_29
REMARK    5  A    between atoms: C_36  and  C_38
REMARK    6  A    between atoms: C_38  and  C_39
REMARK    7  A    between atoms: C_38  and  C_40
REMARK    8  A    between atoms: C_38  and  C_41
REMARK                            x       y       z     vdW  Elec       q    Type
REMARK                         _______ _______ _______ _____ _____    ______ ____
ROOT
ATOM      1  C   UNL     1      -3.150   6.168  -0.083  0.00  0.00    +0.044 C 
ATOM      2  C   UNL     1      -1.926   5.380   0.310  0.00  0.00    -0.050 A 
ATOM      3  C   UNL     1      -0.879   6.014   0.956  0.00  0.00    +0.005 A 
ATOM      4  C   UNL     1       0.252   5.306   1.323  0.00  0.00    +0.024 A 
ATOM      5  C   UNL     1       0.339   3.956   1.043  0.00  0.00    +0.038 A 
ATOM      6  C   UNL     1      -0.730   3.307   0.388  0.00  0.00    -0.004 A 
ATOM      7  C   UNL     1      -1.858   4.030   0.024  0.00  0.00    +0.013 A 
ATOM      8  C   UNL     1      -0.616   1.856   0.107  0.00  0.00    +0.007 C 
ATOM      9  C   UNL     1       0.621   1.334   0.024  0.00  0.00    -0.003 C 
ATOM     10  C   UNL     1       1.758   2.290   0.219  0.00  0.00    +0.117 C 
ATOM     11  N   UNL     1       1.425   3.179   1.366  0.00  0.00    -0.311 N 
ATOM     12  C   UNL     1       2.698   3.834   1.688  0.00  0.00    +0.153 C 
ATOM     13  C   UNL     1       3.736   2.681   1.578  0.00  0.00    +0.109 C 
ATOM     14  C   UNL     1       3.078   1.656   0.633  0.00  0.00    +0.108 C 
ATOM     15  C   UNL     1       2.901   0.331   1.294  0.00  0.00    -0.008 A 
ATOM     16  C   UNL     1       2.199  -0.051   2.416  0.00  0.00    +0.006 A 
ATOM     17  C   UNL     1       2.244  -1.397   2.762  0.00  0.00    +0.000 A 
ATOM     18  C   UNL     1       2.959  -2.308   2.013  0.00  0.00    +0.002 A 
ATOM     19  C   UNL     1       3.668  -1.933   0.882  0.00  0.00    +0.023 A 
ATOM     20  C   UNL     1       3.632  -0.584   0.524  0.00  0.00    +0.038 A 
ATOM     21  N   UNL     1       4.239   0.058  -0.541  0.00  0.00    -0.284 N 
ATOM     22  C   UNL     1       3.966   1.382  -0.555  0.00  0.00    +0.231 C 
ATOM     23  O   UNL     1       4.359   2.193  -1.367  0.00  0.00    -0.274 OA
ATOM     24  H   UNL     1       4.793  -0.388  -1.200  0.00  0.00    +0.155 HD
ENDROOT
BRANCH  13  25
ATOM     25  C   UNL     1       5.025   3.190   0.986  0.00  0.00    +0.171 C 
ATOM     26  O   UNL     1       5.001   3.949   0.041  0.00  0.00    -0.292 OA
BRANCH  25  27
ATOM     27  C   UNL     1       6.314   2.764   1.554  0.00  0.00    +0.036 A 
ATOM     28  C   UNL     1       6.349   1.823   2.589  0.00  0.00    +0.013 A 
ATOM     29  C   UNL     1       7.561   1.427   3.113  0.00  0.00    +0.001 A 
ATOM     30  C   UNL     1       8.740   1.963   2.626  0.00  0.00    +0.001 A 
ATOM     31  C   UNL     1       8.715   2.898   1.606  0.00  0.00    +0.021 A 
ATOM     32  C   UNL     1       7.510   3.303   1.066  0.00  0.00    +0.051 A 
ATOM     33 CL   UNL     1       7.479   4.475  -0.213  0.00  0.00    -0.083 Cl
ENDBRANCH  25  27
ENDBRANCH  13  25
BRANCH  12  34
ATOM     34  C   UNL     1       3.003   4.921   0.690  0.00  0.00    +0.160 C 
ATOM     35  O   UNL     1       2.793   4.738  -0.485  0.00  0.00    -0.295 OA
BRANCH  34  36
ATOM     36  C   UNL     1       3.571   6.237   1.158  0.00  0.00    +0.022 C 
ATOM     37  C   UNL     1       3.760   7.167  -0.042  0.00  0.00    +0.018 C 
ATOM     38  C   UNL     1       2.607   6.881   2.157  0.00  0.00    +0.018 C 
ATOM     39  C   UNL     1       4.922   5.997   1.835  0.00  0.00    +0.018 C 
ENDBRANCH  34  36
ENDBRANCH  12  34
TORSDOF 4
