REMARK  Name = ZINC62495224
REMARK  5 active torsions:
REMARK  status: ('A' for Active; 'I' for Inactive)
REMARK    1  A    between atoms: C_1  and  C_2
REMARK    2  A    between atoms: C_4  and  C_22
REMARK    3  A    between atoms: C_6  and  C_8
REMARK    4  A    between atoms: C_8  and  C_9
REMARK    5  A    between atoms: C_16  and  N_21
REMARK                            x       y       z     vdW  Elec       q    Type
REMARK                         _______ _______ _______ _____ _____    ______ ____
ROOT
ATOM      1  C   UNL     1       1.502  -3.083   2.922  0.00  0.00    +0.263 C 
ATOM      2  C   UNL     1       1.520  -3.950   4.155  0.00  0.00    +0.258 C 
ATOM      3  O   UNL     1       1.619  -5.154   4.052  0.00  0.00    -0.271 OA
ATOM      4  N   UNL     1       1.426  -3.381   5.375  0.00  0.00    -0.279 N 
ATOM      5  C   UNL     1       1.439  -1.983   5.481  0.00  0.00    +0.077 A 
ATOM      6  C   UNL     1       1.117  -1.365   6.678  0.00  0.00    +0.049 A 
ATOM      7  C   UNL     1       1.122   0.020   6.763  0.00  0.00    +0.027 A 
ATOM      8  C   UNL     1       1.448   0.784   5.650  0.00  0.00    +0.026 A 
ATOM      9  C   UNL     1       1.774   0.167   4.456  0.00  0.00    +0.049 A 
ATOM     10  C   UNL     1       1.776  -1.214   4.369  0.00  0.00    +0.143 A 
ATOM     11  O   UNL     1       2.126  -1.829   3.207  0.00  0.00    -0.477 OA
ATOM     12  H   UNL     1       1.350  -3.932   6.169  0.00  0.00    +0.155 HD
ENDROOT
BRANCH   7  13
ATOM     13  N   UNL     1       0.799   0.648   7.971  0.00  0.00    -0.358 N 
ATOM     14  H   UNL     1       0.571   0.115   8.749  0.00  0.00    +0.142 HD
ATOM     15  H   UNL     1       0.802   1.616   8.031  0.00  0.00    +0.142 HD
ENDBRANCH   7  13
BRANCH   1  16
ATOM     16  C   UNL     1       0.054  -2.844   2.489  0.00  0.00    +0.089 C 
BRANCH  16  22
ATOM     17  C   UNL     1      -0.018   1.503   0.010  0.00  0.00    +0.044 C 
ATOM     18  C   UNL     1       0.002  -0.004   0.002  0.00  0.00    -0.050 A 
ATOM     19  C   UNL     1       0.006  -0.689  -1.199  0.00  0.00    +0.006 A 
ATOM     20  C   UNL     1       0.025  -2.071  -1.206  0.00  0.00    -0.050 A 
ATOM     21  C   UNL     1       0.040  -2.768  -0.013  0.00  0.00    +0.007 A 
ATOM     22  C   UNL     1       0.037  -2.084   1.188  0.00  0.00    -0.043 A 
ATOM     23  C   UNL     1       0.023  -0.702   1.195  0.00  0.00    +0.007 A 
ATOM     24  C   UNL     1       0.027  -2.817  -2.516  0.00  0.00    +0.044 C 
ENDBRANCH  16  22
ENDBRANCH   1  16
TORSDOF 3
