REMARK  Name = ZINC50670229
REMARK  4 active torsions:
REMARK  status: ('A' for Active; 'I' for Inactive)
REMARK    1  A    between atoms: C_1  and  C_2
REMARK    2  A    between atoms: N_11  and  S_12
REMARK    3  A    between atoms: S_12  and  C_15
REMARK    4  A    between atoms: C_20  and  N_21
REMARK                            x       y       z     vdW  Elec       q    Type
REMARK                         _______ _______ _______ _____ _____    ______ ____
ROOT
ATOM      1  S   UNL     1      -0.072  -1.179   2.325  0.00  0.00    +0.065 S 
ATOM      2  O   UNL     1       0.732  -1.103   3.494  0.00  0.00    -0.153 OA
ATOM      3  O   UNL     1      -1.355  -0.573   2.242  0.00  0.00    -0.153 OA
ENDROOT
BRANCH   1  13
ATOM      4  C   UNL     1       0.162   1.398  -0.251  0.00  0.00    +0.031 C 
ATOM      5  C   UNL     1       0.187  -0.129  -0.165  0.00  0.00    +0.107 C 
ATOM      6  C   UNL     1       1.005  -0.699  -1.323  0.00  0.00    -0.019 A 
ATOM      7  C   UNL     1       0.549  -0.724  -2.640  0.00  0.00    +0.013 A 
ATOM      8  C   UNL     1       1.330  -1.240  -3.617  0.00  0.00    +0.046 A 
ATOM      9  S   UNL     1       2.785  -1.730  -2.704  0.00  0.00    -0.101 S 
ATOM     10  C   UNL     1       2.244  -1.214  -1.095  0.00  0.00    -0.004 A 
ATOM     11  C   UNL     1       2.968  -1.321   0.207  0.00  0.00    +0.060 C 
ATOM     12  C   UNL     1       2.287  -0.397   1.227  0.00  0.00    +0.115 C 
ATOM     13  N   UNL     1       0.830  -0.547   1.088  0.00  0.00    -0.169 NA
ENDBRANCH   1  13
BRANCH   1  14
ATOM     14  C   UNL     1      -0.301  -2.892   1.980  0.00  0.00    +0.146 A 
ATOM     15  C   UNL     1      -1.558  -3.384   1.675  0.00  0.00    +0.048 A 
ATOM     16  C   UNL     1      -1.692  -4.740   1.410  0.00  0.00    +0.038 A 
ATOM     17  C   UNL     1      -0.575  -5.553   1.459  0.00  0.00    +0.128 A 
ATOM     18  N   UNL     1       0.611  -5.055   1.754  0.00  0.00    -0.238 NA
ATOM     19  C   UNL     1       0.780  -3.766   2.006  0.00  0.00    +0.143 A 
ATOM     20 BR   UNL     1      -3.385  -5.468   0.987  0.00  0.00    -0.049 Br
BRANCH  19  21
ATOM     21  N   UNL     1       2.049  -3.284   2.306  0.00  0.00    -0.342 N 
ATOM     22  H   UNL     1       2.162  -2.367   2.600  0.00  0.00    +0.144 HD
ATOM     23  H   UNL     1       2.821  -3.865   2.221  0.00  0.00    +0.144 HD
ENDBRANCH  19  21
ENDBRANCH   1  14
TORSDOF 3
