REMARK  Name = ZINC09456219
REMARK  11 active torsions:
REMARK  status: ('A' for Active; 'I' for Inactive)
REMARK    1  A    between atoms: C_1  and  C_2
REMARK    2  A    between atoms: C_2  and  O_3
REMARK    3  A    between atoms: O_3  and  C_4
REMARK    4  A    between atoms: C_7  and  C_13
REMARK    5  A    between atoms: C_9  and  O_10
REMARK    6  A    between atoms: O_10  and  C_11
REMARK    7  A    between atoms: C_11  and  C_12
REMARK    8  A    between atoms: C_15  and  C_16
REMARK    9  A    between atoms: C_16  and  C_17
REMARK   10  A    between atoms: N_32  and  C_33
REMARK   11  A    between atoms: C_33  and  C_34
REMARK                            x       y       z     vdW  Elec       q    Type
REMARK                         _______ _______ _______ _____ _____    ______ ____
ROOT
ATOM      1  C   UNL     1      -1.850  -6.339  -0.111  0.00  0.00    +0.145 C 
ATOM      2  C   UNL     1      -1.703  -6.935  -1.491  0.00  0.00    +0.076 C 
ATOM      3  C   UNL     1      -0.656  -7.792  -1.437  0.00  0.00    +0.249 C 
ATOM      4  O   UNL     1      -0.195  -8.532  -2.472  0.00  0.00    -0.282 OA
ATOM      5  C   UNL     1      -0.097  -7.789  -0.070  0.00  0.00    +0.288 C 
ATOM      6  O   UNL     1       0.850  -8.456   0.298  0.00  0.00    -0.266 OA
ATOM      7  N   UNL     1      -0.792  -6.941   0.710  0.00  0.00    -0.279 N 
ENDROOT
BRANCH   1  11
ATOM      8  C   UNL     1      -1.336  -2.096  -0.282  0.00  0.00    +0.162 A 
ATOM      9  C   UNL     1      -0.230  -2.930  -0.231  0.00  0.00    +0.050 A 
ATOM     10  C   UNL     1      -0.399  -4.301  -0.175  0.00  0.00    +0.009 A 
ATOM     11  C   UNL     1      -1.671  -4.843  -0.171  0.00  0.00    -0.019 A 
ATOM     12  C   UNL     1      -2.778  -4.018  -0.223  0.00  0.00    +0.055 A 
ATOM     13  C   UNL     1      -2.616  -2.643  -0.272  0.00  0.00    +0.162 A 
BRANCH   8  14
ATOM     14  O   UNL     1      -1.171  -0.748  -0.336  0.00  0.00    -0.489 OA
BRANCH  14  16
ATOM     15  C   UNL     1       0.156   1.271  -0.406  0.00  0.00    +0.048 C 
ATOM     16  C   UNL     1       0.171  -0.258  -0.343  0.00  0.00    +0.226 C 
ENDBRANCH  14  16
ENDBRANCH   8  14
BRANCH  13  17
ATOM     17  O   UNL     1      -3.704  -1.829  -0.317  0.00  0.00    -0.489 OA
BRANCH  17  18
ATOM     18  C   UNL     1      -4.985  -2.452  -0.200  0.00  0.00    +0.226 C 
ATOM     19  C   UNL     1      -6.082  -1.401  -0.385  0.00  0.00    +0.048 C 
ENDBRANCH  17  18
ENDBRANCH  13  17
ENDBRANCH   1  11
BRANCH   2  20
ATOM     20  C   UNL     1      -2.534  -6.643  -2.663  0.00  0.00    +0.195 C 
ATOM     21  O   UNL     1      -2.054  -6.065  -3.621  0.00  0.00    -0.287 OA
BRANCH  20  22
ATOM     22  C   UNL     1      -3.953  -7.050  -2.682  0.00  0.00    +0.026 A 
ATOM     23  C   UNL     1      -4.529  -7.636  -1.551  0.00  0.00    +0.015 A 
ATOM     24  C   UNL     1      -5.852  -8.015  -1.572  0.00  0.00    +0.050 A 
ATOM     25  C   UNL     1      -6.621  -7.817  -2.714  0.00  0.00    +0.162 A 
ATOM     26  C   UNL     1      -6.053  -7.231  -3.844  0.00  0.00    +0.163 A 
ATOM     27  C   UNL     1      -4.726  -6.845  -3.828  0.00  0.00    +0.061 A 
ATOM     28  O   UNL     1      -6.794  -7.022  -4.966  0.00  0.00    -0.485 OA
ATOM     29  C   UNL     1      -8.020  -7.754  -5.073  0.00  0.00    +0.270 C 
ATOM     30  C   UNL     1      -8.761  -7.648  -3.733  0.00  0.00    +0.270 C 
ATOM     31  O   UNL     1      -7.924  -8.202  -2.713  0.00  0.00    -0.485 OA
ENDBRANCH  20  22
ENDBRANCH   2  20
BRANCH   7  32
ATOM     32  C   UNL     1      -0.538  -6.666   2.126  0.00  0.00    +0.144 C 
BRANCH  32  33
ATOM     33  C   UNL     1      -1.333  -7.626   2.974  0.00  0.00    -0.030 A 
ATOM     34  C   UNL     1      -2.615  -7.298   3.373  0.00  0.00    +0.005 A 
ATOM     35  C   UNL     1      -3.344  -8.179   4.150  0.00  0.00    +0.000 A 
ATOM     36  C   UNL     1      -2.790  -9.388   4.529  0.00  0.00    +0.000 A 
ATOM     37  C   UNL     1      -1.508  -9.716   4.129  0.00  0.00    +0.000 A 
ATOM     38  C   UNL     1      -0.781  -8.837   3.348  0.00  0.00    +0.005 A 
ENDBRANCH  32  33
ENDBRANCH   7  32
TORSDOF 9
