REMARK  Name = ZINC13675044
REMARK  7 active torsions:
REMARK  status: ('A' for Active; 'I' for Inactive)
REMARK    1  A    between atoms: C_1  and  C_2
REMARK    2  A    between atoms: C_5  and  S_8
REMARK    3  A    between atoms: S_8  and  N_11
REMARK    4  A    between atoms: N_11  and  C_12
REMARK    5  A    between atoms: N_11  and  C_26
REMARK    6  A    between atoms: C_12  and  C_13
REMARK    7  A    between atoms: C_23  and  C_25
REMARK                            x       y       z     vdW  Elec       q    Type
REMARK                         _______ _______ _______ _____ _____    ______ ____
ROOT
ATOM      1  N   UNL     1      -3.146   0.590   1.602  0.00  0.00    -0.194 N 
ENDROOT
BRANCH   1   2
ATOM      2  C   UNL     1      -2.790  -0.606   2.230  0.00  0.00    +0.052 A 
ATOM      3  C   UNL     1      -2.149  -0.582   3.462  0.00  0.00    +0.025 A 
ATOM      4  C   UNL     1      -1.803  -1.766   4.082  0.00  0.00    +0.002 A 
ATOM      5  C   UNL     1      -2.085  -2.975   3.473  0.00  0.00    +0.000 A 
ATOM      6  C   UNL     1      -2.719  -3.003   2.245  0.00  0.00    +0.002 A 
ATOM      7  C   UNL     1      -3.072  -1.822   1.621  0.00  0.00    +0.025 A 
ENDBRANCH   1   2
BRANCH   1   8
ATOM      8  S   UNL     1      -2.531   0.956   0.109  0.00  0.00    +0.075 S 
ATOM      9  O   UNL     1      -3.503   1.761  -0.544  0.00  0.00    -0.150 OA
ATOM     10  O   UNL     1      -2.055  -0.264  -0.445  0.00  0.00    -0.150 OA
BRANCH   8  15
ATOM     11  C   UNL     1       2.307   4.458   0.967  0.00  0.00    +0.044 C 
ATOM     12  C   UNL     1       1.098   3.583   0.756  0.00  0.00    -0.050 A 
ATOM     13  C   UNL     1       1.240   2.209   0.705  0.00  0.00    +0.005 A 
ATOM     14  C   UNL     1       0.131   1.406   0.511  0.00  0.00    +0.029 A 
ATOM     15  C   UNL     1      -1.119   1.978   0.363  0.00  0.00    +0.109 A 
ATOM     16  C   UNL     1      -1.261   3.352   0.420  0.00  0.00    +0.029 A 
ATOM     17  C   UNL     1      -0.152   4.154   0.614  0.00  0.00    +0.005 A 
ENDBRANCH   8  15
ENDBRANCH   1   8
BRANCH   1  18
ATOM     18  C   UNL     1      -4.063   1.520   2.265  0.00  0.00    +0.227 C 
BRANCH  18  19
ATOM     19  C   UNL     1      -5.486   1.115   1.977  0.00  0.00    +0.239 C 
ATOM     20  O   UNL     1      -5.711   0.143   1.287  0.00  0.00    -0.273 OA
ATOM     21  N   UNL     1      -6.507   1.831   2.487  0.00  0.00    -0.267 N 
ATOM     22  C   UNL     1      -6.367   2.961   3.299  0.00  0.00    +0.040 A 
ATOM     23  C   UNL     1      -5.204   3.594   3.741  0.00  0.00    +0.024 A 
ATOM     24  C   UNL     1      -5.284   4.716   4.539  0.00  0.00    +0.002 A 
ATOM     25  C   UNL     1      -6.517   5.225   4.902  0.00  0.00    +0.000 A 
ATOM     26  C   UNL     1      -7.673   4.607   4.463  0.00  0.00    +0.005 A 
ATOM     27  C   UNL     1      -7.598   3.483   3.663  0.00  0.00    -0.024 A 
ATOM     28  C   UNL     1      -8.684   2.625   3.054  0.00  0.00    +0.059 C 
ATOM     29  C   UNL     1      -7.927   1.535   2.278  0.00  0.00    +0.083 C 
ATOM     30  C   UNL     1      -8.271   1.608   0.789  0.00  0.00    +0.029 C 
ENDBRANCH  18  19
ENDBRANCH   1  18
TORSDOF 5
