REMARK  Name = ZINC21579680
REMARK  8 active torsions:
REMARK  status: ('A' for Active; 'I' for Inactive)
REMARK    1  A    between atoms: C_1  and  C_2
REMARK    2  A    between atoms: C_7  and  N_8
REMARK    3  A    between atoms: C_9  and  C_11
REMARK    4  A    between atoms: C_11  and  N_12
REMARK    5  A    between atoms: N_12  and  C_13
REMARK    6  A    between atoms: N_12  and  C_14
REMARK    7  A    between atoms: C_14  and  C_15
REMARK    8  A    between atoms: N_20  and  C_23
REMARK                            x       y       z     vdW  Elec       q    Type
REMARK                         _______ _______ _______ _____ _____    ______ ____
ROOT
ATOM      1  N   UNL     1       2.410   1.041  -0.032  0.00  0.00    +0.389 N 
ATOM      2  C   UNL     1       2.478   0.277   1.221  0.00  0.00    -0.095 C 
ATOM      3  H   UNL     1       2.245   0.329  -0.854  0.00  0.00    -0.081 HD
ENDROOT
BRANCH   1   4
ATOM      4  C   UNL     1       1.280   1.980  -0.015  0.00  0.00    +0.019 C 
BRANCH   4   6
ATOM      5  N   UNL     1      -1.191   1.867   0.018  0.00  0.00    -0.287 N 
ATOM      6  C   UNL     1      -0.014   1.209   0.005  0.00  0.00    +0.201 C 
ATOM      7  O   UNL     1       0.003  -0.004   0.005  0.00  0.00    -0.278 OA
ATOM      8  H   UNL     1      -1.207   2.963   0.109  0.00  0.00    +0.155 HD
BRANCH   5  15
ATOM      9  C   UNL     1      -3.546   3.040   1.100  0.00  0.00    +0.046 C 
ATOM     10  C   UNL     1      -3.564   1.691   0.428  0.00  0.00    -0.028 A 
ATOM     11  C   UNL     1      -4.749   0.989   0.320  0.00  0.00    +0.020 A 
ATOM     12  C   UNL     1      -4.765  -0.252  -0.291  0.00  0.00    +0.018 A 
ATOM     13  C   UNL     1      -3.597  -0.791  -0.800  0.00  0.00    +0.017 A 
ATOM     14  C   UNL     1      -2.411  -0.091  -0.699  0.00  0.00    +0.024 A 
ATOM     15  C   UNL     1      -2.391   1.155  -0.086  0.00  0.00    +0.036 A 
ATOM     16 BR   UNL     1      -6.387  -1.214  -0.431  0.00  0.00    -0.050 Br
ENDBRANCH   5  15
ENDBRANCH   4   6
ENDBRANCH   1   4
BRANCH   1  17
ATOM     17  C   UNL     1       3.674   1.743  -0.290  0.00  0.00    +0.019 C 
BRANCH  17  18
ATOM     18  C   UNL     1       4.765   0.736  -0.543  0.00  0.00    +0.199 C 
ATOM     19  O   UNL     1       4.515  -0.451  -0.513  0.00  0.00    -0.278 OA
ATOM     20  N   UNL     1       6.020   1.153  -0.805  0.00  0.00    -0.300 N 
ATOM     21  C   UNL     1       6.345   2.586  -0.853  0.00  0.00    +0.126 C 
ATOM     22  C   UNL     1       7.559   2.837   0.056  0.00  0.00    +0.124 C 
ATOM     23  N   UNL     1       8.652   1.939  -0.339  0.00  0.00    -0.325 N 
ATOM     24  C   UNL     1       8.283   0.531  -0.145  0.00  0.00    +0.124 C 
ATOM     25  C   UNL     1       7.100   0.186  -1.056  0.00  0.00    +0.126 C 
BRANCH  23  26
ATOM     26  C   UNL     1       9.829   2.249   0.351  0.00  0.00    +0.065 A 
ATOM     27  C   UNL     1      11.005   1.570   0.061  0.00  0.00    +0.026 A 
ATOM     28  C   UNL     1      12.166   1.881   0.742  0.00  0.00    +0.002 A 
ATOM     29  C   UNL     1      12.157   2.860   1.718  0.00  0.00    +0.003 A 
ATOM     30  C   UNL     1      10.987   3.535   2.014  0.00  0.00    +0.040 A 
ATOM     31  C   UNL     1       9.822   3.233   1.334  0.00  0.00    +0.144 A 
ATOM     32  F   UNL     1       8.678   3.892   1.624  0.00  0.00    -0.204 F 
ENDBRANCH  23  26
ENDBRANCH  17  18
ENDBRANCH   1  17
TORSDOF 6
