REMARK  Name = ZINC45795310
REMARK  6 active torsions:
REMARK  status: ('A' for Active; 'I' for Inactive)
REMARK    1  A    between atoms: C_3  and  C_27
REMARK    2  A    between atoms: C_6  and  C_7
REMARK    3  A    between atoms: C_9  and  C_12
REMARK    4  A    between atoms: C_12  and  S_13
REMARK    5  A    between atoms: S_13  and  C_14
REMARK    6  A    between atoms: C_17  and  C_20
REMARK                            x       y       z     vdW  Elec       q    Type
REMARK                         _______ _______ _______ _____ _____    ______ ____
ROOT
ATOM      1  C   UNL     1      -1.272  -0.766   0.011  0.00  0.00    +0.202 A 
ATOM      2  N   UNL     1      -1.384  -2.107   0.010  0.00  0.00    -0.191 NA
ATOM      3  C   UNL     1      -2.640  -2.449   0.019  0.00  0.00    +0.238 A 
ATOM      4  O   UNL     1      -3.384  -1.335   0.025  0.00  0.00    -0.337 OA
ATOM      5  N   UNL     1      -2.474  -0.246   0.026  0.00  0.00    -0.056 NA
ENDROOT
BRANCH   1  11
ATOM      6  C   UNL     1      -0.017   1.389   0.010  0.00  0.00    +0.012 A 
ATOM      7  C   UNL     1       1.170   2.093   0.002  0.00  0.00    +0.013 A 
ATOM      8  C   UNL     1       2.377   1.418  -0.013  0.00  0.00    +0.055 A 
ATOM      9  C   UNL     1       2.402   0.035  -0.021  0.00  0.00    +0.013 A 
ATOM     10  C   UNL     1       1.221  -0.679  -0.014  0.00  0.00    +0.012 A 
ATOM     11  C   UNL     1       0.002  -0.004   0.002  0.00  0.00    +0.022 A 
BRANCH   8  12
ATOM     12  C   UNL     1       3.671   2.192  -0.023  0.00  0.00    +0.417 C 
ATOM     13  F   UNL     1       4.084   2.424   1.293  0.00  0.00    -0.166 F 
ATOM     14  F   UNL     1       4.651   1.454  -0.696  0.00  0.00    -0.166 F 
ATOM     15  F   UNL     1       3.478   3.414  -0.674  0.00  0.00    -0.166 F 
ENDBRANCH   8  12
ENDBRANCH   1  11
BRANCH   3  16
ATOM     16  C   UNL     1      -3.168  -3.860   0.021  0.00  0.00    +0.176 C 
BRANCH  16  17
ATOM     17  S   UNL     1      -3.368  -4.429   1.732  0.00  0.00    -0.077 S 
BRANCH  17  18
ATOM     18  C   UNL     1      -3.984  -6.071   1.567  0.00  0.00    +0.185 A 
ATOM     19  N   UNL     1      -4.226  -6.695   0.435  0.00  0.00    -0.201 NA
ATOM     20  H   UNL     1      -4.204  -6.729   3.530  0.00  0.00    +0.191 HD
ATOM     21  C   UNL     1      -4.686  -7.929   0.690  0.00  0.00    +0.182 A 
ATOM     22  N   UNL     1      -4.741  -8.102   1.991  0.00  0.00    -0.152 NA
ATOM     23  N   UNL     1      -4.285  -6.912   2.581  0.00  0.00    -0.253 N 
BRANCH  21  24
ATOM     24  C   UNL     1      -5.070  -8.934  -0.332  0.00  0.00    +0.021 A 
ATOM     25  C   UNL     1      -4.961  -8.631  -1.687  0.00  0.00    +0.013 A 
ATOM     26  C   UNL     1      -5.319  -9.569  -2.633  0.00  0.00    +0.021 A 
ATOM     27  C   UNL     1      -5.787 -10.811  -2.237  0.00  0.00    +0.041 A 
ATOM     28  C   UNL     1      -5.898 -11.117  -0.891  0.00  0.00    +0.021 A 
ATOM     29  C   UNL     1      -5.536 -10.187   0.062  0.00  0.00    +0.013 A 
ATOM     30 CL   UNL     1      -6.237 -11.987  -3.432  0.00  0.00    -0.084 Cl
ENDBRANCH  21  24
ENDBRANCH  17  18
ENDBRANCH  16  17
ENDBRANCH   3  16
TORSDOF 6
