REMARK  Name = ZINC02925261
REMARK  12 active torsions:
REMARK  status: ('A' for Active; 'I' for Inactive)
REMARK    1  A    between atoms: C_1  and  C_2
REMARK    2  A    between atoms: C_2  and  C_3
REMARK    3  A    between atoms: C_3  and  O_4
REMARK    4  A    between atoms: O_4  and  C_5
REMARK    5  A    between atoms: C_5  and  C_7
REMARK    6  A    between atoms: C_8  and  C_37
REMARK    7  A    between atoms: C_12  and  C_14
REMARK    8  A    between atoms: C_16  and  O_22
REMARK    9  A    between atoms: C_19  and  O_20
REMARK   10  A    between atoms: O_20  and  C_21
REMARK   11  A    between atoms: O_22  and  C_23
REMARK   12  A    between atoms: C_27  and  C_30
REMARK                            x       y       z     vdW  Elec       q    Type
REMARK                         _______ _______ _______ _____ _____    ______ ____
ROOT
ATOM      1  C   UNL     1      -6.846  -1.075   1.373  0.00  0.00    +0.065 C 
ATOM      2  C   UNL     1      -6.179  -0.712   2.482  0.00  0.00    +0.016 C 
ATOM      3  N   UNL     1      -5.224   0.264   2.428  0.00  0.00    -0.321 N 
ATOM      4  C   UNL     1      -4.647   0.611   1.236  0.00  0.00    +0.016 C 
ATOM      5  C   UNL     1      -5.247   0.298   0.068  0.00  0.00    +0.024 C 
ATOM      6  C   UNL     1      -6.572  -0.421   0.051  0.00  0.00    +0.096 C 
ATOM      7  C   UNL     1      -4.657   0.635  -1.164  0.00  0.00    +0.162 C 
ATOM      8  O   UNL     1      -5.229   0.348  -2.197  0.00  0.00    -0.292 OA
ATOM      9  C   UNL     1      -3.331   1.342  -1.225  0.00  0.00    +0.088 C 
ATOM     10  C   UNL     1      -2.514   0.979   0.019  0.00  0.00    +0.032 C 
ATOM     11  C   UNL     1      -3.329   1.346   1.260  0.00  0.00    +0.059 C 
ATOM     12  C   UNL     1      -6.486  -1.387   3.794  0.00  0.00    +0.061 C 
ATOM     13  H   UNL     1      -4.912   0.780   3.348  0.00  0.00    +0.152 HD
ENDROOT
BRANCH  10  14
ATOM     14  C   UNL     1      -1.219   1.750   0.017  0.00  0.00    -0.043 A 
ATOM     15  C   UNL     1      -0.013   1.076   0.008  0.00  0.00    +0.005 A 
ATOM     16  C   UNL     1       1.175   1.783   0.000  0.00  0.00    +0.020 A 
ATOM     17  C   UNL     1       1.156   3.166   0.008  0.00  0.00    +0.041 A 
ATOM     18  C   UNL     1      -0.052   3.841   0.023  0.00  0.00    +0.020 A 
ATOM     19  C   UNL     1      -1.239   3.133   0.031  0.00  0.00    +0.005 A 
ATOM     20 CL   UNL     1       2.647   4.055  -0.002  0.00  0.00    -0.084 Cl
ENDBRANCH  10  14
BRANCH   6  21
ATOM     21  C   UNL     1      -7.668   0.569  -0.249  0.00  0.00    +0.010 A 
ATOM     22  C   UNL     1      -7.877   1.644   0.593  0.00  0.00    +0.053 A 
ATOM     23  C   UNL     1      -8.886   2.555   0.318  0.00  0.00    +0.121 A 
ATOM     24  C   UNL     1      -9.684   2.387  -0.804  0.00  0.00    +0.049 A 
ATOM     25  C   UNL     1      -9.475   1.313  -1.646  0.00  0.00    +0.049 A 
ATOM     26  C   UNL     1      -8.463   0.404  -1.373  0.00  0.00    +0.124 A 
BRANCH  26  27
ATOM     27  O   UNL     1      -8.254  -0.651  -2.205  0.00  0.00    -0.495 OA
ATOM     28  C   UNL     1      -9.110  -0.759  -3.344  0.00  0.00    +0.277 C 
ENDBRANCH  26  27
BRANCH  23  29
ATOM     29  O   UNL     1      -9.091   3.613   1.147  0.00  0.00    -0.495 OA
ATOM     30  C   UNL     1     -10.147   4.512   0.801  0.00  0.00    +0.277 C 
ENDBRANCH  23  29
ENDBRANCH   6  21
BRANCH   1  31
ATOM     31  C   UNL     1      -7.825  -2.093   1.454  0.00  0.00    +0.338 C 
ATOM     32  O   UNL     1      -8.056  -2.631   2.521  0.00  0.00    -0.245 OA
BRANCH  31  33
ATOM     33  O   UNL     1      -8.502  -2.467   0.349  0.00  0.00    -0.461 OA
BRANCH  33  34
ATOM     34  C   UNL     1      -9.477  -3.501   0.504  0.00  0.00    +0.232 C 
BRANCH  34  36
ATOM     35  C   UNL     1     -11.179  -4.894  -0.681  0.00  0.00    +0.007 C 
ATOM     36  C   UNL     1     -10.136  -3.787  -0.847  0.00  0.00    +0.038 C 
ENDBRANCH  34  36
ENDBRANCH  33  34
ENDBRANCH  31  33
ENDBRANCH   1  31
TORSDOF 8
