REMARK  Name = ZINC54493869
REMARK  6 active torsions:
REMARK  status: ('A' for Active; 'I' for Inactive)
REMARK    1  A    between atoms: C_1  and  C_2
REMARK    2  A    between atoms: C_5  and  N_16
REMARK    3  A    between atoms: C_6  and  C_8
REMARK    4  A    between atoms: C_10  and  C_13
REMARK    5  A    between atoms: C_13  and  S_14
REMARK    6  A    between atoms: S_14  and  C_15
REMARK                            x       y       z     vdW  Elec       q    Type
REMARK                         _______ _______ _______ _____ _____    ______ ____
ROOT
ATOM      1  C   UNL     1      -0.158   1.497   0.025  0.00  0.00    +0.044 C 
ATOM      2  C   UNL     1      -0.064  -0.007   0.009  0.00  0.00    -0.050 A 
ATOM      3  C   UNL     1      -0.229  -0.695  -1.182  0.00  0.00    +0.005 A 
ATOM      4  C   UNL     1      -0.145  -2.072  -1.210  0.00  0.00    +0.024 A 
ATOM      5  C   UNL     1       0.106  -2.778  -0.041  0.00  0.00    +0.037 A 
ATOM      6  C   UNL     1       0.274  -2.084   1.167  0.00  0.00    +0.060 A 
ATOM      7  C   UNL     1       0.192  -0.690   1.178  0.00  0.00    +0.018 A 
ENDROOT
BRANCH   6   8
ATOM      8  C   UNL     1       0.542  -2.822   2.416  0.00  0.00    +0.260 A 
ATOM      9  N   UNL     1      -0.057  -2.631   3.571  0.00  0.00    -0.191 NA
ATOM     10  C   UNL     1       0.431  -3.473   4.483  0.00  0.00    +0.182 A 
ATOM     11  N   UNL     1       1.348  -4.216   3.931  0.00  0.00    -0.060 NA
ATOM     12  O   UNL     1       1.437  -3.814   2.572  0.00  0.00    -0.333 OA
BRANCH  10  13
ATOM     13  C   UNL     1      -0.006  -3.552   5.923  0.00  0.00    +0.148 C 
BRANCH  13  14
ATOM     14  S   UNL     1      -1.373  -4.735   6.075  0.00  0.00    -0.156 S 
ATOM     15  C   UNL     1      -1.777  -4.713   7.844  0.00  0.00    +0.084 C 
ENDBRANCH  13  14
ENDBRANCH  10  13
ENDBRANCH   6   8
BRANCH   5  16
ATOM     16  N   UNL     1       0.190  -4.167  -0.067  0.00  0.00    -0.357 N 
ATOM     17  H   UNL     1       0.165  -4.638  -0.914  0.00  0.00    +0.142 HD
ATOM     18  H   UNL     1       0.274  -4.663   0.762  0.00  0.00    +0.142 HD
ENDBRANCH   5  16
TORSDOF 4
