REMARK  Name = ZINC40814938
REMARK  11 active torsions:
REMARK  status: ('A' for Active; 'I' for Inactive)
REMARK    1  A    between atoms: C_1  and  C_2
REMARK    2  A    between atoms: C_2  and  O_3
REMARK    3  A    between atoms: O_3  and  C_4
REMARK    4  A    between atoms: C_4  and  C_6
REMARK    5  A    between atoms: C_11  and  N_12
REMARK    6  A    between atoms: C_13  and  C_15
REMARK    7  A    between atoms: C_16  and  C_38
REMARK    8  A    between atoms: N_24  and  N_25
REMARK    9  A    between atoms: N_25  and  C_26
REMARK   10  A    between atoms: C_29  and  N_35
REMARK   11  A    between atoms: C_31  and  N_32
REMARK                            x       y       z     vdW  Elec       q    Type
REMARK                         _______ _______ _______ _____ _____    ______ ____
ROOT
ATOM      1  C   UNL     1      -0.524  -7.016   1.310  0.00  0.00    +0.193 A 
ATOM      2  C   UNL     1      -0.551  -8.292   0.818  0.00  0.00    +0.009 A 
ATOM      3  C   UNL     1       0.775  -8.742   0.825  0.00  0.00    +0.042 A 
ATOM      4  C   UNL     1       1.554  -7.724   1.322  0.00  0.00    +0.115 A 
ATOM      5  O   UNL     1       0.757  -6.694   1.601  0.00  0.00    -0.454 OA
ATOM      6  C   UNL     1       3.048  -7.840   1.487  0.00  0.00    +0.075 C 
ATOM      7  C   UNL     1       3.442  -9.319   1.527  0.00  0.00    +0.014 C 
ATOM      8  C   UNL     1       2.875 -10.063   0.313  0.00  0.00    +0.058 C 
ATOM      9  C   UNL     1       1.357 -10.037   0.405  0.00  0.00    +0.070 C 
ATOM     10  N   UNL     1       0.625 -11.074   0.135  0.00  0.00    -0.186 NA
ATOM     11  C   UNL     1      -1.764  -9.059   0.360  0.00  0.00    +0.048 C 
ENDROOT
BRANCH   1  13
ATOM     12  N   UNL     1      -1.528  -4.897   1.978  0.00  0.00    -0.278 N 
ATOM     13  C   UNL     1      -1.688  -6.141   1.486  0.00  0.00    +0.284 C 
ATOM     14  O   UNL     1      -2.799  -6.539   1.188  0.00  0.00    -0.266 OA
ATOM     15  H   UNL     1      -0.636  -4.550   2.138  0.00  0.00    +0.155 HD
BRANCH  12  21
ATOM     16  C   UNL     1      -2.661  -3.296   3.400  0.00  0.00    +0.080 A 
ATOM     17  C   UNL     1      -3.783  -2.507   3.665  0.00  0.00    +0.017 A 
ATOM     18  C   UNL     1      -4.862  -2.535   2.808  0.00  0.00    +0.001 A 
ATOM     19  C   UNL     1      -4.841  -3.345   1.683  0.00  0.00    +0.002 A 
ATOM     20  C   UNL     1      -3.740  -4.130   1.408  0.00  0.00    +0.024 A 
ATOM     21  C   UNL     1      -2.641  -4.110   2.257  0.00  0.00    +0.048 A 
BRANCH  16  22
ATOM     22  C   UNL     1      -1.504  -3.271   4.312  0.00  0.00    +0.341 C 
ATOM     23  O   UNL     1      -0.574  -4.032   4.136  0.00  0.00    -0.245 OA
BRANCH  22  24
ATOM     24  O   UNL     1      -1.478  -2.402   5.342  0.00  0.00    -0.461 OA
BRANCH  24  26
ATOM     25  C   UNL     1      -0.474  -1.384   7.291  0.00  0.00    +0.048 C 
ATOM     26  C   UNL     1      -0.325  -2.432   6.187  0.00  0.00    +0.229 C 
ENDBRANCH  24  26
ENDBRANCH  22  24
ENDBRANCH  16  22
ENDBRANCH  12  21
ENDBRANCH   1  13
BRANCH  10  27
ATOM     27  N   UNL     1       1.230 -12.274  -0.259  0.00  0.00    -0.235 N 
ATOM     28  H   UNL     1       2.196 -12.331  -0.329  0.00  0.00    +0.174 HD
BRANCH  27  29
ATOM     29  C   UNL     1       0.444 -13.389  -0.549  0.00  0.00    +0.079 A 
ATOM     30  C   UNL     1      -0.931 -13.345  -0.345  0.00  0.00    +0.029 A 
ATOM     31  C   UNL     1      -1.706 -14.450  -0.635  0.00  0.00    +0.035 A 
ATOM     32  C   UNL     1      -1.117 -15.601  -1.127  0.00  0.00    +0.128 A 
ATOM     33  C   UNL     1       0.250 -15.649  -1.331  0.00  0.00    +0.067 A 
ATOM     34  C   UNL     1       1.031 -14.546  -1.049  0.00  0.00    +0.151 A 
BRANCH  34  35
ATOM     35  N   UNL     1       2.493 -14.596  -1.273  0.00  0.00    +0.058 N 
ATOM     36  O   UNL     1       3.073 -13.626  -1.703  0.00  0.00    -0.126 OA
ATOM     37  O   UNL     1       3.108 -15.607  -1.026  0.00  0.00    -0.126 OA
ENDBRANCH  34  35
BRANCH  32  38
ATOM     38  N   UNL     1      -1.951 -16.783  -1.435  0.00  0.00    +0.056 N 
ATOM     39  O   UNL     1      -3.146 -16.743  -1.257  0.00  0.00    -0.126 OA
ATOM     40  O   UNL     1      -1.438 -17.790  -1.865  0.00  0.00    -0.126 OA
ENDBRANCH  32  38
ENDBRANCH  27  29
ENDBRANCH  10  27
TORSDOF 9
