REMARK  Name = ZINC06240116
REMARK  14 active torsions:
REMARK  status: ('A' for Active; 'I' for Inactive)
REMARK    1  A    between atoms: C_1  and  O_2
REMARK    2  A    between atoms: O_2  and  C_3
REMARK    3  A    between atoms: C_6  and  C_11
REMARK    4  A    between atoms: C_8  and  O_9
REMARK    5  A    between atoms: O_9  and  C_10
REMARK    6  A    between atoms: C_11  and  C_12
REMARK    7  A    between atoms: C_12  and  N_13
REMARK    8  A    between atoms: N_13  and  C_14
REMARK    9  A    between atoms: C_14  and  N_16
REMARK   10  A    between atoms: N_16  and  C_17
REMARK   11  A    between atoms: N_16  and  C_20
REMARK   12  A    between atoms: C_17  and  C_18
REMARK   13  A    between atoms: C_18  and  O_19
REMARK   14  A    between atoms: C_20  and  C_21
REMARK                            x       y       z     vdW  Elec       q    Type
REMARK                         _______ _______ _______ _____ _____    ______ ____
ROOT
ATOM      1  N   UNL     1      -0.996   1.765  -3.548  0.00  0.00    -0.306 N 
ENDROOT
BRANCH   1   2
ATOM      2  C   UNL     1      -0.429   1.336  -2.403  0.00  0.00    +0.133 C 
ATOM      3  S   UNL     1       0.951   0.325  -2.457  0.00  0.00    -0.019 S 
BRANCH   2   4
ATOM      4  N   UNL     1      -0.948   1.704  -1.215  0.00  0.00    -0.326 N 
ATOM      5  H   UNL     1      -1.730   2.277  -1.184  0.00  0.00    +0.148 HD
BRANCH   4   6
ATOM      6  C   UNL     1      -0.332   1.238   0.030  0.00  0.00    +0.108 C 
BRANCH   6   7
ATOM      7  C   UNL     1      -1.109   1.795   1.224  0.00  0.00    +0.054 C 
BRANCH   7  11
ATOM      8  C   UNL     1       0.686   0.431   4.857  0.00  0.00    +0.161 A 
ATOM      9  C   UNL     1      -0.315  -0.313   4.254  0.00  0.00    +0.049 A 
ATOM     10  C   UNL     1      -0.897   0.134   3.083  0.00  0.00    +0.007 A 
ATOM     11  C   UNL     1      -0.475   1.316   2.505  0.00  0.00    -0.042 A 
ATOM     12  C   UNL     1       0.523   2.063   3.101  0.00  0.00    +0.053 A 
ATOM     13  C   UNL     1       1.107   1.624   4.278  0.00  0.00    +0.162 A 
BRANCH   8  15
ATOM     14  C   UNL     1       0.775  -1.238   6.550  0.00  0.00    +0.277 C 
ATOM     15  O   UNL     1       1.257  -0.005   6.013  0.00  0.00    -0.491 OA
ENDBRANCH   8  15
BRANCH  13  16
ATOM     16  O   UNL     1       2.090   2.357   4.866  0.00  0.00    -0.491 OA
ATOM     17  C   UNL     1       2.472   3.571   4.215  0.00  0.00    +0.277 C 
ENDBRANCH  13  16
ENDBRANCH   7  11
ENDBRANCH   6   7
ENDBRANCH   4   6
ENDBRANCH   2   4
ENDBRANCH   1   2
BRANCH   1  18
ATOM     18  C   UNL     1      -2.240   2.537  -3.505  0.00  0.00    +0.135 C 
BRANCH  18  19
ATOM     19  C   UNL     1      -1.912   4.028  -3.409  0.00  0.00    +0.174 C 
BRANCH  19  20
ATOM     20  O   UNL     1      -1.248   4.447  -4.603  0.00  0.00    -0.393 OA
ATOM     21  H   UNL     1      -1.010   5.384  -4.613  0.00  0.00    +0.209 HD
ENDBRANCH  19  20
ENDBRANCH  18  19
ENDBRANCH   1  18
BRANCH   1  22
ATOM     22  C   UNL     1      -0.368   1.458  -4.835  0.00  0.00    +0.147 C 
BRANCH  22  23
ATOM     23  C   UNL     1      -0.991   0.214  -5.415  0.00  0.00    +0.035 A 
ATOM     24  C   UNL     1      -0.412  -0.995  -5.199  0.00  0.00    +0.020 A 
ATOM     25  C   UNL     1      -1.044  -2.184  -5.770  0.00  0.00    +0.003 A 
ATOM     26  C   UNL     1      -0.494  -3.457  -5.577  0.00  0.00    +0.059 A 
ATOM     27  C   UNL     1      -1.109  -4.559  -6.132  0.00  0.00    +0.163 A 
ATOM     28  C   UNL     1      -2.278  -4.410  -6.885  0.00  0.00    +0.164 A 
ATOM     29  C   UNL     1      -2.828  -3.154  -7.081  0.00  0.00    +0.075 A 
ATOM     30  C   UNL     1      -2.220  -2.034  -6.530  0.00  0.00    +0.053 A 
ATOM     31  N   UNL     1      -2.755  -0.775  -6.716  0.00  0.00    -0.322 N 
ATOM     32  H   UNL     1      -3.565  -0.672  -7.240  0.00  0.00    +0.169 HD
ATOM     33  C   UNL     1      -2.169   0.311  -6.183  0.00  0.00    +0.254 A 
ATOM     34  O   UNL     1      -2.669   1.407  -6.368  0.00  0.00    -0.268 OA
ATOM     35  O   UNL     1      -2.893  -5.493  -7.432  0.00  0.00    -0.485 OA
ATOM     36  C   UNL     1      -2.117  -6.691  -7.534  0.00  0.00    +0.270 C 
ATOM     37  C   UNL     1      -1.405  -6.919  -6.194  0.00  0.00    +0.270 C 
ATOM     38  O   UNL     1      -0.561  -5.791  -5.938  0.00  0.00    -0.485 OA
ENDBRANCH  22  23
ENDBRANCH   1  22
TORSDOF 12
