REMARK  Name = ZINC64581709
REMARK  11 active torsions:
REMARK  status: ('A' for Active; 'I' for Inactive)
REMARK    1  A    between atoms: C_1  and  C_2
REMARK    2  A    between atoms: C_2  and  C_3
REMARK    3  A    between atoms: C_2  and  C_4
REMARK    4  A    between atoms: C_4  and  N_5
REMARK    5  A    between atoms: C_11  and  C_31
REMARK    6  A    between atoms: N_17  and  C_20
REMARK    7  A    between atoms: C_20  and  C_21
REMARK    8  A    between atoms: C_21  and  C_23
REMARK    9  A    between atoms: N_33  and  C_34
REMARK   10  A    between atoms: C_34  and  C_35
REMARK   11  A    between atoms: C_34  and  C_36
REMARK                            x       y       z     vdW  Elec       q    Type
REMARK                         _______ _______ _______ _____ _____    ______ ____
ROOT
ATOM      1  N   UNL     1       2.125  -0.091  -1.209  0.00  0.00    -0.276 N 
ATOM      2  C   UNL     1       2.489   1.097  -1.730  0.00  0.00    +0.263 A 
ATOM      3  O   UNL     1       1.661   1.830  -2.236  0.00  0.00    -0.267 OA
ATOM      4  C   UNL     1       3.910   1.497  -1.676  0.00  0.00    +0.064 A 
ATOM      5  C   UNL     1       4.334   2.717  -2.201  0.00  0.00    +0.016 A 
ATOM      6  C   UNL     1       5.665   3.065  -2.136  0.00  0.00    +0.014 A 
ATOM      7  C   UNL     1       6.591   2.199  -1.547  0.00  0.00    +0.039 A 
ATOM      8  C   UNL     1       6.173   0.978  -1.021  0.00  0.00    +0.040 A 
ATOM      9  C   UNL     1       4.835   0.625  -1.084  0.00  0.00    +0.067 A 
ATOM     10  N   UNL     1       4.392  -0.592  -0.563  0.00  0.00    -0.229 N 
ATOM     11  C   UNL     1       3.060  -0.934  -0.624  0.00  0.00    +0.240 A 
ATOM     12  N   UNL     1       2.910  -2.105  -0.067  0.00  0.00    -0.129 NA
ATOM     13  N   UNL     1       4.165  -2.543   0.374  0.00  0.00    -0.203 N 
ATOM     14  C   UNL     1       5.062  -1.592   0.047  0.00  0.00    +0.353 A 
ATOM     15  O   UNL     1       6.259  -1.623   0.273  0.00  0.00    -0.244 OA
ENDROOT
BRANCH   7  16
ATOM     16  C   UNL     1       8.020   2.580  -1.483  0.00  0.00    +0.244 C 
ATOM     17  O   UNL     1       8.826   1.829  -0.971  0.00  0.00    -0.270 OA
ATOM     18  N   UNL     1       8.426   3.760  -1.991  0.00  0.00    -0.309 N 
ATOM     19  H   UNL     1       7.783   4.360  -2.400  0.00  0.00    +0.149 HD
BRANCH  18  20
ATOM     20  C   UNL     1       9.841   4.137  -1.927  0.00  0.00    +0.067 C 
ATOM     21  C   UNL     1      10.584   3.534  -3.121  0.00  0.00    +0.027 C 
ATOM     22  C   UNL     1       9.964   5.662  -1.967  0.00  0.00    +0.027 C 
ENDBRANCH  18  20
ENDBRANCH   7  16
BRANCH   1  23
ATOM     23  C   UNL     1       0.718  -0.497  -1.257  0.00  0.00    +0.131 C 
BRANCH  23  25
ATOM     24  C   UNL     1      -0.019   1.526   0.010  0.00  0.00    +0.009 C 
ATOM     25  C   UNL     1       0.002  -0.004   0.002  0.00  0.00    +0.003 C 
ATOM     26  C   UNL     1      -1.433  -0.534   0.013  0.00  0.00    +0.009 C 
ENDBRANCH  23  25
ENDBRANCH   1  23
BRANCH  13  27
ATOM     27  C   UNL     1       4.451  -3.808   1.055  0.00  0.00    +0.228 C 
BRANCH  27  28
ATOM     28  C   UNL     1       4.325  -3.616   2.545  0.00  0.00    +0.187 C 
ATOM     29  O   UNL     1       4.026  -2.530   2.993  0.00  0.00    -0.290 OA
BRANCH  28  30
ATOM     30  C   UNL     1       4.566  -4.745   3.453  0.00  0.00    +0.055 A 
ATOM     31  C   UNL     1       4.918  -5.999   2.939  0.00  0.00    +0.017 A 
ATOM     32  C   UNL     1       5.142  -7.053   3.796  0.00  0.00    +0.039 A 
ATOM     33  C   UNL     1       5.020  -6.876   5.168  0.00  0.00    +0.126 A 
ATOM     34  C   UNL     1       4.673  -5.639   5.686  0.00  0.00    +0.077 A 
ATOM     35  C   UNL     1       4.450  -4.571   4.839  0.00  0.00    +0.137 A 
ATOM     36  F   UNL     1       4.116  -3.363   5.345  0.00  0.00    -0.205 F 
ATOM     37  F   UNL     1       5.242  -7.916   6.001  0.00  0.00    -0.205 F 
ENDBRANCH  28  30
ENDBRANCH  27  28
ENDBRANCH  13  27
TORSDOF 7
