REMARK  Name = ZINC13643020
REMARK  5 active torsions:
REMARK  status: ('A' for Active; 'I' for Inactive)
REMARK    1  A    between atoms: C_6  and  C_11
REMARK    2  A    between atoms: C_14  and  C_16
REMARK    3  A    between atoms: C_14  and  O_20
REMARK    4  A    between atoms: C_23  and  C_31
REMARK    5  A    between atoms: C_25  and  C_27
REMARK                            x       y       z     vdW  Elec       q    Type
REMARK                         _______ _______ _______ _____ _____    ______ ____
ROOT
ATOM      1  C   UNL     1      -3.069  -0.260   6.117  0.00  0.00    +0.071 C 
ATOM      2  N   UNL     1      -2.797   0.781   5.407  0.00  0.00    -0.178 NA
ATOM      3  N   UNL     1      -2.142   0.497   4.210  0.00  0.00    -0.150 N 
ATOM      4  C   UNL     1      -1.939  -0.957   4.112  0.00  0.00    +0.257 C 
ATOM      5  C   UNL     1      -2.567  -1.499   5.411  0.00  0.00    +0.124 C 
ATOM      6  C   UNL     1      -1.742   1.432   3.269  0.00  0.00    +0.242 A 
ATOM      7  N   UNL     1      -1.992   2.713   3.488  0.00  0.00    -0.210 NA
ATOM      8  C   UNL     1      -1.619   3.637   2.601  0.00  0.00    +0.112 A 
ATOM      9  C   UNL     1      -0.955   3.230   1.437  0.00  0.00    +0.064 A 
ATOM     10  C   UNL     1      -0.722   1.881   1.250  0.00  0.00    +0.149 A 
ATOM     11  N   UNL     1      -1.121   1.020   2.174  0.00  0.00    -0.209 NA
ENDROOT
BRANCH   1  17
ATOM     12  C   UNL     1      -6.116   0.942  11.661  0.00  0.00    +0.001 A 
ATOM     13  C   UNL     1      -5.892   2.146  10.996  0.00  0.00    +0.001 A 
ATOM     14  C   UNL     1      -5.259   2.173   9.791  0.00  0.00    +0.008 A 
ATOM     15  C   UNL     1      -4.825   0.970   9.206  0.00  0.00    -0.017 A 
ATOM     16  C   UNL     1      -4.170   0.962   7.965  0.00  0.00    +0.018 A 
ATOM     17  C   UNL     1      -3.757  -0.243   7.420  0.00  0.00    -0.002 A 
ATOM     18  C   UNL     1      -3.996  -1.453   8.100  0.00  0.00    +0.010 A 
ATOM     19  C   UNL     1      -4.622  -1.463   9.303  0.00  0.00    +0.009 A 
ATOM     20  C   UNL     1      -5.054  -0.255   9.883  0.00  0.00    -0.018 A 
ATOM     21  C   UNL     1      -5.710  -0.242  11.125  0.00  0.00    +0.008 A 
ENDBRANCH   1  17
BRANCH   8  22
ATOM     22  C   UNL     1      -1.897   5.065   2.846  0.00  0.00    +0.153 A 
ATOM     23  C   UNL     1      -2.527   5.582   3.936  0.00  0.00    +0.051 A 
ATOM     24  C   UNL     1      -2.575   6.976   3.753  0.00  0.00    +0.042 A 
ATOM     25  C   UNL     1      -1.980   7.242   2.573  0.00  0.00    +0.196 A 
ATOM     26  O   UNL     1      -1.566   6.086   2.031  0.00  0.00    -0.461 OA
ENDBRANCH   8  22
BRANCH   4  27
ATOM     27  C   UNL     1      -2.663  -1.520   2.887  0.00  0.00    +0.438 C 
ATOM     28  F   UNL     1      -2.141  -0.938   1.728  0.00  0.00    -0.166 F 
ATOM     29  F   UNL     1      -2.482  -2.906   2.835  0.00  0.00    -0.166 F 
ATOM     30  F   UNL     1      -4.029  -1.232   2.980  0.00  0.00    -0.166 F 
ENDBRANCH   4  27
BRANCH  10  31
ATOM     31  C   UNL     1      -0.017   1.395   0.010  0.00  0.00    +0.434 C 
ATOM     32  F   UNL     1       0.002  -0.004   0.002  0.00  0.00    -0.164 F 
ATOM     33  F   UNL     1       1.296   1.879  -0.000  0.00  0.00    -0.164 F 
ATOM     34  F   UNL     1      -0.694   1.858  -1.124  0.00  0.00    -0.164 F 
ENDBRANCH  10  31
BRANCH   4  35
ATOM     35  O   UNL     1      -0.545  -1.268   4.060  0.00  0.00    -0.363 OA
ATOM     36  H   UNL     1      -0.086  -0.892   3.296  0.00  0.00    +0.212 HD
ENDBRANCH   4  35
TORSDOF 5
