REMARK  Name = ZINC42404026
REMARK  2 active torsions:
REMARK  status: ('A' for Active; 'I' for Inactive)
REMARK    1  A    between atoms: C_3  and  N_8
REMARK    2  A    between atoms: C_6  and  N_7
REMARK                            x       y       z     vdW  Elec       q    Type
REMARK                         _______ _______ _______ _____ _____    ______ ____
ROOT
ATOM      1  N   UNL     1       3.586   2.131  -0.022  0.00  0.00    -0.160 N 
ATOM      2  C   UNL     1       4.814   1.564  -0.043  0.00  0.00    +0.248 C 
ATOM      3  O   UNL     1       5.085   0.385   0.034  0.00  0.00    -0.273 OA
ATOM      4  C   UNL     1       5.773   2.721  -0.183  0.00  0.00    +0.123 C 
ATOM      5  C   UNL     1       6.775   2.774   0.973  0.00  0.00    +0.019 C 
ATOM      6  C   UNL     1       7.474   4.138   0.947  0.00  0.00    +0.001 C 
ATOM      7  C   UNL     1       6.487   5.269   1.230  0.00  0.00    +0.006 C 
ATOM      8  C   UNL     1       5.426   5.335   0.118  0.00  0.00    +0.053 C 
ATOM      9  C   UNL     1       4.867   3.939  -0.055  0.00  0.00    +0.049 C 
ATOM     10  N   UNL     1       3.675   3.523  -0.017  0.00  0.00    -0.181 NA
ENDROOT
BRANCH   1  13
ATOM     11  C   UNL     1      -0.017   1.385   0.010  0.00  0.00    +0.024 A 
ATOM     12  C   UNL     1       1.169   2.091   0.002  0.00  0.00    +0.027 A 
ATOM     13  C   UNL     1       2.381   1.413  -0.013  0.00  0.00    +0.060 A 
ATOM     14  C   UNL     1       2.400   0.025  -0.021  0.00  0.00    +0.027 A 
ATOM     15  C   UNL     1       1.214  -0.682  -0.014  0.00  0.00    +0.024 A 
ATOM     16  C   UNL     1       0.002  -0.004   0.002  0.00  0.00    +0.025 A 
BRANCH  16  17
ATOM     17  N   UNL     1      -1.200  -0.720   0.010  0.00  0.00    -0.358 N 
ATOM     18  H   UNL     1      -2.046  -0.246   0.021  0.00  0.00    +0.142 HD
ATOM     19  H   UNL     1      -1.186  -1.690   0.005  0.00  0.00    +0.142 HD
ENDBRANCH  16  17
ENDBRANCH   1  13
TORSDOF 2
