REMARK  Name = ZINC40916992
REMARK  11 active torsions:
REMARK  status: ('A' for Active; 'I' for Inactive)
REMARK    1  A    between atoms: C_1  and  C_2
REMARK    2  A    between atoms: C_3  and  C_31
REMARK    3  A    between atoms: C_4  and  C_12
REMARK    4  A    between atoms: C_17  and  O_18
REMARK    5  A    between atoms: O_18  and  C_19
REMARK    6  A    between atoms: C_19  and  C_20
REMARK    7  A    between atoms: C_23  and  C_26
REMARK    8  A    between atoms: C_26  and  C_27
REMARK    9  A    between atoms: C_26  and  C_28
REMARK   10  A    between atoms: C_26  and  C_29
REMARK   11  A    between atoms: C_31  and  C_33
REMARK                            x       y       z     vdW  Elec       q    Type
REMARK                         _______ _______ _______ _____ _____    ______ ____
ROOT
ATOM      1  C   UNL     1      -1.730  -2.632  -1.371  0.00  0.00    +0.024 A 
ATOM      2  C   UNL     1      -0.994  -2.331  -2.500  0.00  0.00    +0.025 A 
ATOM      3  C   UNL     1      -1.429  -2.751  -3.744  0.00  0.00    +0.018 A 
ATOM      4  C   UNL     1      -2.603  -3.474  -3.860  0.00  0.00    +0.019 A 
ATOM      5  C   UNL     1      -3.343  -3.777  -2.734  0.00  0.00    +0.047 A 
ATOM      6  C   UNL     1      -2.905  -3.362  -1.485  0.00  0.00    +0.127 A 
ATOM      7 BR   UNL     1      -0.419  -2.336  -5.288  0.00  0.00    -0.050 Br
ENDROOT
BRANCH   1  11
ATOM      8  C   UNL     1      -0.018   1.503   0.010  0.00  0.00    +0.061 C 
ATOM      9  C   UNL     1       0.002  -0.004   0.002  0.00  0.00    +0.016 C 
ATOM     10  C   UNL     1      -1.169  -0.671   0.004  0.00  0.00    +0.040 C 
ATOM     11  C   UNL     1      -1.256  -2.174  -0.016  0.00  0.00    +0.179 C 
ATOM     12  N   UNL     1       0.063  -2.741   0.255  0.00  0.00    -0.221 N 
ATOM     13  C   UNL     1       1.208  -2.014   0.249  0.00  0.00    +0.218 A 
ATOM     14  N   UNL     1       2.198  -2.820   0.521  0.00  0.00    -0.201 NA
ATOM     15  C   UNL     1       1.728  -4.058   0.708  0.00  0.00    +0.247 A 
ATOM     16  N   UNL     1       0.427  -4.052   0.556  0.00  0.00    -0.156 NA
ATOM     17  N   UNL     1       1.210  -0.650  -0.013  0.00  0.00    -0.287 N 
ATOM     18  H   UNL     1       2.034  -0.172  -0.196  0.00  0.00    +0.155 HD
BRANCH  10  19
ATOM     19  C   UNL     1      -2.360   0.068   0.026  0.00  0.00    +0.160 C 
ATOM     20  O   UNL     1      -2.322   1.282   0.043  0.00  0.00    -0.293 OA
ATOM     21  C   UNL     1      -3.689  -0.644   0.029  0.00  0.00    +0.091 C 
ENDBRANCH  10  19
ENDBRANCH   1  11
BRANCH   6  22
ATOM     22  O   UNL     1      -3.628  -3.664  -0.375  0.00  0.00    -0.487 OA
BRANCH  22  23
ATOM     23  C   UNL     1      -4.827  -4.418  -0.567  0.00  0.00    +0.264 C 
BRANCH  23  24
ATOM     24  C   UNL     1      -5.490  -4.655   0.765  0.00  0.00    -0.010 A 
ATOM     25  C   UNL     1      -5.171  -5.778   1.506  0.00  0.00    +0.007 A 
ATOM     26  C   UNL     1      -5.780  -5.996   2.728  0.00  0.00    +0.004 A 
ATOM     27  C   UNL     1      -6.707  -5.091   3.209  0.00  0.00    -0.042 A 
ATOM     28  C   UNL     1      -7.025  -3.968   2.469  0.00  0.00    +0.004 A 
ATOM     29  C   UNL     1      -6.414  -3.748   1.249  0.00  0.00    +0.007 A 
BRANCH  27  30
ATOM     30  C   UNL     1      -7.371  -5.329   4.541  0.00  0.00    -0.013 C 
ATOM     31  C   UNL     1      -6.306  -5.387   5.638  0.00  0.00    +0.015 C 
ATOM     32  C   UNL     1      -8.346  -4.187   4.836  0.00  0.00    +0.015 C 
ATOM     33  C   UNL     1      -8.134  -6.654   4.501  0.00  0.00    +0.015 C 
ENDBRANCH  27  30
ENDBRANCH  23  24
ENDBRANCH  22  23
ENDBRANCH   6  22
TORSDOF 6
