REMARK  Name = ZINC36112604
REMARK  12 active torsions:
REMARK  status: ('A' for Active; 'I' for Inactive)
REMARK    1  A    between atoms: C_1  and  C_2
REMARK    2  A    between atoms: C_2  and  N_3
REMARK    3  A    between atoms: N_3  and  C_4
REMARK    4  A    between atoms: N_3  and  S_6
REMARK    5  A    between atoms: C_4  and  C_5
REMARK    6  A    between atoms: S_6  and  C_9
REMARK    7  A    between atoms: C_12  and  O_28
REMARK    8  A    between atoms: C_13  and  N_15
REMARK    9  A    between atoms: C_16  and  C_18
REMARK   10  A    between atoms: C_18  and  C_19
REMARK   11  A    between atoms: C_24  and  N_25
REMARK   12  A    between atoms: O_28  and  C_29
REMARK                            x       y       z     vdW  Elec       q    Type
REMARK                         _______ _______ _______ _____ _____    ______ ____
ROOT
ATOM      1  C   UNL     1      -2.974   0.476   2.376  0.00  0.00    +0.107 A 
ATOM      2  C   UNL     1      -2.331   1.363   3.219  0.00  0.00    +0.032 A 
ATOM      3  C   UNL     1      -2.975   2.512   3.640  0.00  0.00    +0.050 A 
ATOM      4  C   UNL     1      -4.268   2.777   3.216  0.00  0.00    +0.150 A 
ATOM      5  C   UNL     1      -4.915   1.883   2.366  0.00  0.00    +0.078 A 
ATOM      6  C   UNL     1      -4.261   0.735   1.944  0.00  0.00    +0.055 A 
ENDROOT
BRANCH   5   7
ATOM      7  N   UNL     1      -6.222   2.145   1.935  0.00  0.00    -0.282 N 
ATOM      8  C   UNL     1      -7.079   1.126   1.722  0.00  0.00    +0.222 C 
ATOM      9  O   UNL     1      -6.755  -0.008   2.005  0.00  0.00    -0.275 OA
ATOM     10  H   UNL     1      -6.511   3.060   1.790  0.00  0.00    +0.155 HD
BRANCH   8  11
ATOM     11  C   UNL     1      -8.439   1.396   1.132  0.00  0.00    +0.133 C 
BRANCH  11  12
ATOM     12  C   UNL     1      -9.194   0.099   0.997  0.00  0.00    -0.008 A 
ATOM     13  C   UNL     1      -9.285  -0.523  -0.235  0.00  0.00    +0.006 A 
ATOM     14  C   UNL     1      -9.977  -1.713  -0.358  0.00  0.00    +0.000 A 
ATOM     15  C   UNL     1     -10.579  -2.281   0.749  0.00  0.00    +0.002 A 
ATOM     16  C   UNL     1     -10.488  -1.659   1.980  0.00  0.00    +0.033 A 
ATOM     17  C   UNL     1      -9.791  -0.472   2.105  0.00  0.00    +0.130 A 
BRANCH  17  18
ATOM     18  N   UNL     1      -9.689   0.191   3.424  0.00  0.00    +0.057 N 
ATOM     19  O   UNL     1     -10.139  -0.348   4.408  0.00  0.00    -0.126 OA
ATOM     20  O   UNL     1      -9.155   1.272   3.518  0.00  0.00    -0.126 OA
ENDBRANCH  17  18
ENDBRANCH  11  12
ENDBRANCH   8  11
ENDBRANCH   5   7
BRANCH   1  21
ATOM     21  S   UNL     1      -2.147  -0.987   1.845  0.00  0.00    +0.061 S 
ATOM     22  O   UNL     1      -3.158  -1.920   1.492  0.00  0.00    -0.153 OA
ATOM     23  O   UNL     1      -1.155  -1.271   2.822  0.00  0.00    -0.153 OA
BRANCH  21  24
ATOM     24  N   UNL     1      -1.340  -0.613   0.447  0.00  0.00    -0.177 NA
BRANCH  24  26
ATOM     25  C   UNL     1       0.029   1.413   0.480  0.00  0.00    +0.022 C 
ATOM     26  C   UNL     1       0.037  -0.117   0.507  0.00  0.00    +0.106 C 
ENDBRANCH  24  26
BRANCH  24  27
ATOM     27  C   UNL     1      -2.004  -0.778  -0.848  0.00  0.00    +0.106 C 
ATOM     28  C   UNL     1      -1.642  -2.144  -1.436  0.00  0.00    +0.022 C 
ENDBRANCH  24  27
ENDBRANCH  21  24
ENDBRANCH   1  21
BRANCH   4  29
ATOM     29  O   UNL     1      -4.902   3.906   3.629  0.00  0.00    -0.454 OA
BRANCH  29  30
ATOM     30  C   UNL     1      -4.270   4.699   4.534  0.00  0.00    +0.129 A 
ATOM     31  C   UNL     1      -3.226   5.518   4.130  0.00  0.00    +0.046 A 
ATOM     32  C   UNL     1      -2.585   6.323   5.052  0.00  0.00    +0.004 A 
ATOM     33  C   UNL     1      -2.983   6.312   6.376  0.00  0.00    +0.000 A 
ATOM     34  C   UNL     1      -4.024   5.496   6.781  0.00  0.00    +0.004 A 
ATOM     35  C   UNL     1      -4.672   4.694   5.862  0.00  0.00    +0.046 A 
ENDBRANCH  29  30
ENDBRANCH   4  29
TORSDOF 10
