REMARK  Name = ZINC35934929
REMARK  8 active torsions:
REMARK  status: ('A' for Active; 'I' for Inactive)
REMARK    1  A    between atoms: C_1  and  C_2
REMARK    2  A    between atoms: C_2  and  N_3
REMARK    3  A    between atoms: C_6  and  C_11
REMARK    4  A    between atoms: N_21  and  C_23
REMARK    5  A    between atoms: C_23  and  C_24
REMARK    6  A    between atoms: C_24  and  C_25
REMARK    7  A    between atoms: N_27  and  C_28
REMARK    8  A    between atoms: C_28  and  C_29
REMARK                            x       y       z     vdW  Elec       q    Type
REMARK                         _______ _______ _______ _____ _____    ______ ____
ROOT
ATOM      1  N   UNL     1       0.688  -0.476  -1.203  0.00  0.00    -0.257 N 
ATOM      2  C   UNL     1      -0.057  -0.690  -2.328  0.00  0.00    +0.042 C 
ATOM      3  C   UNL     1       0.512  -1.125  -3.471  0.00  0.00    +0.058 C 
ATOM      4  C   UNL     1       2.007  -1.367  -3.465  0.00  0.00    +0.143 C 
ATOM      5  N   UNL     1       2.720  -1.107  -2.203  0.00  0.00    -0.288 N 
ATOM      6  C   UNL     1       2.012  -0.670  -1.144  0.00  0.00    +0.307 C 
ATOM      7  O   UNL     1       2.592  -0.448  -0.099  0.00  0.00    -0.252 OA
ATOM      8  C   UNL     1      -0.463  -1.267  -4.480  0.00  0.00    +0.247 C 
ATOM      9  O   UNL     1      -0.229  -1.644  -5.614  0.00  0.00    -0.270 OA
ATOM     10  N   UNL     1      -1.684  -0.932  -4.027  0.00  0.00    -0.292 N 
ATOM     11  C   UNL     1      -1.533  -0.536  -2.619  0.00  0.00    +0.159 C 
ATOM     12  H   UNL     1       3.679  -1.244  -2.137  0.00  0.00    +0.151 HD
ENDROOT
BRANCH   4  13
ATOM     13  C   UNL     1       2.246  -2.806  -3.845  0.00  0.00    -0.004 A 
ATOM     14  C   UNL     1       2.397  -3.765  -2.860  0.00  0.00    +0.008 A 
ATOM     15  C   UNL     1       2.616  -5.084  -3.208  0.00  0.00    +0.020 A 
ATOM     16  C   UNL     1       2.683  -5.447  -4.542  0.00  0.00    +0.042 A 
ATOM     17  C   UNL     1       2.531  -4.489  -5.527  0.00  0.00    +0.040 A 
ATOM     18  C   UNL     1       2.307  -3.169  -5.179  0.00  0.00    +0.048 A 
ATOM     19 CL   UNL     1       2.110  -1.966  -6.415  0.00  0.00    -0.083 Cl
ATOM     20 CL   UNL     1       2.958  -7.105  -4.978  0.00  0.00    -0.083 Cl
ENDBRANCH   4  13
BRANCH   1  22
ATOM     21  C   UNL     1      -0.019   1.526   0.010  0.00  0.00    +0.025 C 
ATOM     22  C   UNL     1       0.002  -0.004   0.002  0.00  0.00    +0.111 C 
ENDBRANCH   1  22
BRANCH  10  23
ATOM     23  C   UNL     1      -2.932  -0.957  -4.793  0.00  0.00    +0.117 C 
BRANCH  23  24
ATOM     24  C   UNL     1      -3.590  -2.331  -4.653  0.00  0.00    +0.114 C 
BRANCH  24  25
ATOM     25  C   UNL     1      -4.874  -2.357  -5.441  0.00  0.00    +0.215 C 
ATOM     26  O   UNL     1      -5.228  -1.373  -6.056  0.00  0.00    -0.276 OA
ATOM     27  N   UNL     1      -5.629  -3.473  -5.464  0.00  0.00    -0.311 N 
ATOM     28  H   UNL     1      -5.346  -4.260  -4.973  0.00  0.00    +0.149 HD
BRANCH  27  29
ATOM     29  C   UNL     1      -6.877  -3.498  -6.230  0.00  0.00    +0.139 C 
BRANCH  29  30
ATOM     30  C   UNL     1      -7.525  -4.851  -6.092  0.00  0.00    -0.030 A 
ATOM     31  C   UNL     1      -7.219  -5.859  -6.987  0.00  0.00    +0.008 A 
ATOM     32  C   UNL     1      -7.812  -7.100  -6.861  0.00  0.00    +0.038 A 
ATOM     33  C   UNL     1      -8.714  -7.335  -5.836  0.00  0.00    +0.123 A 
ATOM     34  C   UNL     1      -9.020  -6.325  -4.940  0.00  0.00    +0.038 A 
ATOM     35  C   UNL     1      -8.421  -5.086  -5.065  0.00  0.00    +0.008 A 
ATOM     36  F   UNL     1      -9.295  -8.548  -5.712  0.00  0.00    -0.205 F 
ENDBRANCH  29  30
ENDBRANCH  27  29
ENDBRANCH  24  25
ENDBRANCH  23  24
ENDBRANCH  10  23
TORSDOF 7
