REMARK  Name = ZINC45772550
REMARK  17 active torsions:
REMARK  status: ('A' for Active; 'I' for Inactive)
REMARK    1  A    between atoms: C_1  and  C_2
REMARK    2  A    between atoms: C_2  and  C_3
REMARK    3  A    between atoms: C_3  and  C_4
REMARK    4  A    between atoms: C_4  and  N_5
REMARK    5  A    between atoms: C_6  and  C_34
REMARK    6  A    between atoms: C_7  and  C_33
REMARK    7  A    between atoms: C_9  and  S_10
REMARK    8  A    between atoms: S_10  and  C_11
REMARK    9  A    between atoms: C_11  and  C_12
REMARK   10  A    between atoms: N_14  and  C_15
REMARK   11  A    between atoms: C_17  and  O_30
REMARK   12  A    between atoms: C_18  and  N_24
REMARK   13  A    between atoms: C_20  and  O_21
REMARK   14  A    between atoms: O_21  and  C_22
REMARK   15  A    between atoms: C_22  and  C_23
REMARK   16  A    between atoms: O_30  and  C_31
REMARK   17  A    between atoms: C_31  and  C_32
REMARK                            x       y       z     vdW  Elec       q    Type
REMARK                         _______ _______ _______ _____ _____    ______ ____
ROOT
ATOM      1  C   UNL     1      -4.579  -2.572  -5.199  0.00  0.00    +0.228 C 
ATOM      2  O   UNL     1      -3.809  -1.726  -5.602  0.00  0.00    -0.275 OA
ATOM      3  N   UNL     1      -5.188  -3.399  -6.071  0.00  0.00    -0.282 N 
ATOM      4  H   UNL     1      -5.753  -4.117  -5.745  0.00  0.00    +0.155 HD
ENDROOT
BRANCH   3   5
ATOM      5  C   UNL     1      -5.005  -3.222  -7.451  0.00  0.00    +0.079 A 
ATOM      6  C   UNL     1      -3.783  -2.779  -7.938  0.00  0.00    +0.074 A 
ATOM      7  C   UNL     1      -3.603  -2.603  -9.299  0.00  0.00    +0.143 A 
ATOM      8  C   UNL     1      -4.647  -2.872 -10.181  0.00  0.00    +0.076 A 
ATOM      9  C   UNL     1      -5.868  -3.315  -9.695  0.00  0.00    +0.074 A 
ATOM     10  C   UNL     1      -6.047  -3.496  -8.333  0.00  0.00    +0.144 A 
BRANCH   8  11
ATOM     11  N   UNL     1      -4.464  -2.694 -11.559  0.00  0.00    -0.323 N 
ATOM     12  C   UNL     1      -3.978  -3.794 -12.407  0.00  0.00    +0.133 C 
ATOM     13  C   UNL     1      -4.920  -3.931 -13.608  0.00  0.00    +0.178 C 
ATOM     14  O   UNL     1      -5.064  -2.657 -14.241  0.00  0.00    -0.377 OA
ATOM     15  C   UNL     1      -5.658  -1.655 -13.412  0.00  0.00    +0.178 C 
ATOM     16  C   UNL     1      -4.759  -1.403 -12.202  0.00  0.00    +0.133 C 
ENDBRANCH   8  11
BRANCH  10  17
ATOM     17  O   UNL     1      -7.243  -3.936  -7.856  0.00  0.00    -0.490 OA
BRANCH  17  18
ATOM     18  C   UNL     1      -8.268  -4.197  -8.817  0.00  0.00    +0.226 C 
ATOM     19  C   UNL     1      -9.530  -4.679  -8.099  0.00  0.00    +0.048 C 
ENDBRANCH  17  18
ENDBRANCH  10  17
BRANCH   7  20
ATOM     20  O   UNL     1      -2.405  -2.168  -9.776  0.00  0.00    -0.490 OA
BRANCH  20  21
ATOM     21  C   UNL     1      -1.378  -1.912  -8.816  0.00  0.00    +0.226 C 
ATOM     22  C   UNL     1      -0.115  -1.434  -9.534  0.00  0.00    +0.048 C 
ENDBRANCH  20  21
ENDBRANCH   7  20
ENDBRANCH   3   5
BRANCH   1  23
ATOM     23  C   UNL     1      -4.854  -2.699  -3.723  0.00  0.00    +0.173 C 
BRANCH  23  24
ATOM     24  S   UNL     1      -3.892  -1.455  -2.819  0.00  0.00    -0.080 S 
BRANCH  24  29
ATOM     25  N   UNL     1      -3.839  -1.030  -0.066  0.00  0.00    -0.324 N 
ATOM     26  C   UNL     1      -4.429  -1.560   1.060  0.00  0.00    +0.037 A 
ATOM     27  C   UNL     1      -5.232  -2.556   0.650  0.00  0.00    +0.034 A 
ATOM     28  N   UNL     1      -5.147  -2.645  -0.688  0.00  0.00    -0.338 N 
ATOM     29  C   UNL     1      -4.317  -1.729  -1.132  0.00  0.00    +0.148 A 
ATOM     30  C   UNL     1      -6.083  -3.426   1.539  0.00  0.00    +0.065 C 
ATOM     31  C   UNL     1      -4.213  -1.109   2.482  0.00  0.00    +0.065 C 
ATOM     32  H   UNL     1      -5.626  -3.283  -1.240  0.00  0.00    +0.168 HD
BRANCH  25  33
ATOM     33  C   UNL     1      -2.884   0.080  -0.110  0.00  0.00    +0.124 C 
BRANCH  33  34
ATOM     34  C   UNL     1      -3.643   1.401  -0.249  0.00  0.00    +0.021 C 
BRANCH  34  36
ATOM     35  C   UNL     1      -3.405   3.881  -0.433  0.00  0.00    +0.004 C 
ATOM     36  C   UNL     1      -2.646   2.560  -0.294  0.00  0.00    -0.002 C 
ENDBRANCH  34  36
ENDBRANCH  33  34
ENDBRANCH  25  33
ENDBRANCH  24  29
ENDBRANCH  23  24
ENDBRANCH   1  23
TORSDOF 12
