REMARK  Name = ZINC63067352
REMARK  5 active torsions:
REMARK  status: ('A' for Active; 'I' for Inactive)
REMARK    1  A    between atoms: C_1  and  C_2
REMARK    2  A    between atoms: C_2  and  C_18
REMARK    3  A    between atoms: N_6  and  C_7
REMARK    4  A    between atoms: C_12  and  C_13
REMARK    5  A    between atoms: N_14  and  O_15
REMARK                            x       y       z     vdW  Elec       q    Type
REMARK                         _______ _______ _______ _____ _____    ______ ____
ROOT
ATOM      1  C   UNL     1       1.810   0.228   1.370  0.00  0.00    +0.042 A 
ATOM      2  C   UNL     1       1.887   1.301   2.247  0.00  0.00    +0.043 A 
ATOM      3  C   UNL     1       3.093   1.622   2.841  0.00  0.00    +0.043 A 
ATOM      4  C   UNL     1       4.230   0.878   2.567  0.00  0.00    +0.021 A 
ATOM      5  C   UNL     1       4.169  -0.190   1.698  0.00  0.00    +0.014 A 
ATOM      6  C   UNL     1       2.957  -0.530   1.096  0.00  0.00    +0.039 A 
ATOM      7 CL   UNL     1       3.184   2.966   3.937  0.00  0.00    -0.083 Cl
ENDROOT
BRANCH   1  13
ATOM      8  C   UNL     1      -0.179   2.015  -0.213  0.00  0.00    +0.031 C 
ATOM      9  C   UNL     1       0.049   0.521  -0.447  0.00  0.00    +0.029 C 
ATOM     10  C   UNL     1      -1.295  -0.174  -0.749  0.00  0.00    +0.027 C 
ATOM     11  C   UNL     1      -1.159  -1.531  -0.009  0.00  0.00    +0.021 C 
ATOM     12  C   UNL     1      -0.352  -1.120   1.248  0.00  0.00    +0.106 C 
ATOM     13  N   UNL     1       0.596  -0.098   0.769  0.00  0.00    -0.324 N 
ATOM     14  C   UNL     1       1.017   0.319  -1.614  0.00  0.00    +0.031 C 
ENDBRANCH   1  13
BRANCH   6  15
ATOM     15  C   UNL     1       2.884  -1.678   0.168  0.00  0.00    +0.164 C 
ATOM     16  N   UNL     1       1.734  -2.058  -0.309  0.00  0.00    -0.071 NA
ATOM     17  N   UNL     1       4.040  -2.350  -0.194  0.00  0.00    -0.340 N 
ATOM     18  H   UNL     1       4.897  -2.067   0.162  0.00  0.00    +0.144 HD
ATOM     19  H   UNL     1       3.992  -3.104  -0.802  0.00  0.00    +0.144 HD
BRANCH  16  20
ATOM     20  O   UNL     1       1.664  -3.159  -1.197  0.00  0.00    -0.408 OA
ATOM     21  H   UNL     1       0.769  -3.366  -1.498  0.00  0.00    +0.328 HD
ENDBRANCH  16  20
ENDBRANCH   6  15
TORSDOF 3
