REMARK  Name = ZINC12600073
REMARK  9 active torsions:
REMARK  status: ('A' for Active; 'I' for Inactive)
REMARK    1  A    between atoms: C_1  and  C_2
REMARK    2  A    between atoms: C_5  and  N_8
REMARK    3  A    between atoms: C_13  and  C_19
REMARK    4  A    between atoms: C_16  and  C_18
REMARK    5  A    between atoms: C_22  and  O_27
REMARK    6  A    between atoms: C_23  and  O_25
REMARK    7  A    between atoms: O_25  and  C_26
REMARK    8  A    between atoms: O_27  and  C_28
REMARK    9  A    between atoms: C_28  and  C_29
REMARK                            x       y       z     vdW  Elec       q    Type
REMARK                         _______ _______ _______ _____ _____    ______ ____
ROOT
ATOM      1  N   UNL     1       0.058  -4.168  -0.021  0.00  0.00    -0.206 N 
ATOM      2  C   UNL     1       0.166  -4.988   1.081  0.00  0.00    +0.126 C 
ATOM      3  N   UNL     1       0.274  -4.732   2.373  0.00  0.00    -0.345 N 
ATOM      4  C   UNL     1       0.371  -5.635   3.338  0.00  0.00    +0.025 C 
ATOM      5  C   UNL     1       0.370  -6.988   3.067  0.00  0.00    +0.026 C 
ATOM      6  C   UNL     1       0.249  -7.430   1.621  0.00  0.00    +0.089 C 
ATOM      7  C   UNL     1       0.143  -6.317   0.601  0.00  0.00    +0.022 C 
ATOM      8  C   UNL     1       0.025  -6.293  -0.738  0.00  0.00    +0.027 C 
ATOM      9  N   UNL     1      -0.035  -4.993  -1.151  0.00  0.00    -0.262 N 
ATOM     10  C   UNL     1      -0.035  -7.503  -1.635  0.00  0.00    +0.062 C 
ATOM     11  C   UNL     1       0.479  -7.941   4.070  0.00  0.00    +0.162 C 
ATOM     12  O   UNL     1       0.468  -9.122   3.780  0.00  0.00    -0.292 OA
ATOM     13  C   UNL     1       0.610  -7.530   5.514  0.00  0.00    +0.080 C 
ATOM     14  C   UNL     1       1.299  -6.164   5.581  0.00  0.00    +0.014 C 
ATOM     15  C   UNL     1       0.484  -5.157   4.768  0.00  0.00    +0.054 C 
ATOM     16  H   UNL     1      -0.125  -4.691  -2.068  0.00  0.00    +0.170 HD
ATOM     17  H   UNL     1       0.282  -3.799   2.639  0.00  0.00    +0.167 HD
ENDROOT
BRANCH   1  22
ATOM     18  C   UNL     1      -0.018   1.503   0.011  0.00  0.00    +0.044 C 
ATOM     19  C   UNL     1       0.002  -0.004   0.003  0.00  0.00    -0.050 A 
ATOM     20  C   UNL     1      -0.935  -0.702  -0.736  0.00  0.00    +0.005 A 
ATOM     21  C   UNL     1      -0.919  -2.083  -0.746  0.00  0.00    +0.025 A 
ATOM     22  C   UNL     1       0.040  -2.771  -0.013  0.00  0.00    +0.055 A 
ATOM     23  C   UNL     1       0.980  -2.066   0.728  0.00  0.00    +0.025 A 
ATOM     24  C   UNL     1       0.962  -0.685   0.729  0.00  0.00    +0.005 A 
ENDBRANCH   1  22
BRANCH   6  25
ATOM     25  C   UNL     1       1.457  -8.264   1.279  0.00  0.00    -0.032 A 
ATOM     26  C   UNL     1       2.723  -7.718   1.381  0.00  0.00    +0.008 A 
ATOM     27  C   UNL     1       3.834  -8.479   1.069  0.00  0.00    +0.050 A 
ATOM     28  C   UNL     1       3.681  -9.791   0.653  0.00  0.00    +0.162 A 
ATOM     29  C   UNL     1       2.406 -10.341   0.551  0.00  0.00    +0.162 A 
ATOM     30  C   UNL     1       1.297  -9.575   0.870  0.00  0.00    +0.054 A 
BRANCH  29  31
ATOM     31  O   UNL     1       2.251 -11.629   0.143  0.00  0.00    -0.491 OA
ATOM     32  C   UNL     1       0.913 -12.127   0.061  0.00  0.00    +0.277 C 
ENDBRANCH  29  31
BRANCH  28  33
ATOM     33  O   UNL     1       4.773 -10.541   0.345  0.00  0.00    -0.484 OA
BRANCH  33  34
ATOM     34  C   UNL     1       6.049  -9.911   0.473  0.00  0.00    +0.264 C 
BRANCH  34  35
ATOM     35  C   UNL     1       7.132 -10.887   0.092  0.00  0.00    -0.010 A 
ATOM     36  C   UNL     1       7.692 -11.707   1.054  0.00  0.00    +0.010 A 
ATOM     37  C   UNL     1       8.685 -12.603   0.706  0.00  0.00    +0.039 A 
ATOM     38  C   UNL     1       9.118 -12.680  -0.607  0.00  0.00    +0.123 A 
ATOM     39  C   UNL     1       8.556 -11.858  -1.570  0.00  0.00    +0.039 A 
ATOM     40  C   UNL     1       7.560 -10.966  -1.220  0.00  0.00    +0.010 A 
ATOM     41  F   UNL     1      10.089 -13.555  -0.949  0.00  0.00    -0.205 F 
ENDBRANCH  34  35
ENDBRANCH  33  34
ENDBRANCH  28  33
ENDBRANCH   6  25
TORSDOF 6
