REMARK  Name = ZINC20292527
REMARK  11 active torsions:
REMARK  status: ('A' for Active; 'I' for Inactive)
REMARK    1  A    between atoms: C_1  and  C_2
REMARK    2  A    between atoms: C_2  and  C_4
REMARK    3  A    between atoms: C_2  and  N_10
REMARK    4  A    between atoms: C_11  and  C_13
REMARK    5  A    between atoms: C_13  and  S_14
REMARK    6  A    between atoms: S_14  and  C_15
REMARK    7  A    between atoms: N_19  and  N_20
REMARK    8  A    between atoms: N_21  and  N_22
REMARK    9  A    between atoms: C_23  and  C_24
REMARK   10  A    between atoms: C_28  and  O_30
REMARK   11  A    between atoms: O_30  and  C_31
REMARK                            x       y       z     vdW  Elec       q    Type
REMARK                         _______ _______ _______ _____ _____    ______ ____
ROOT
ATOM      1  C   UNL     1       5.358  -1.401  -3.688  0.00  0.00    +0.210 A 
ATOM      2  N   UNL     1       4.653  -1.772  -4.730  0.00  0.00    -0.119 NA
ATOM      3  N   UNL     1       5.541  -2.220  -5.716  0.00  0.00    -0.109 NA
ATOM      4  C   UNL     1       6.760  -2.108  -5.245  0.00  0.00    +0.254 A 
ATOM      5  N   UNL     1       6.678  -1.594  -3.981  0.00  0.00    -0.211 N 
ATOM      6  N   UNL     1       7.927  -2.448  -5.913  0.00  0.00    -0.204 N 
ATOM      7  H   UNL     1       8.786  -2.330  -5.479  0.00  0.00    +0.177 HD
ENDROOT
BRANCH   5   8
ATOM      8  N   UNL     1       7.731  -1.323  -3.154  0.00  0.00    -0.294 N 
ATOM      9  H   UNL     1       7.960  -2.125  -2.586  0.00  0.00    +0.163 HD
ATOM     10  H   UNL     1       8.534  -1.012  -3.681  0.00  0.00    +0.163 HD
ENDBRANCH   5   8
BRANCH   6  11
ATOM     11  N   UNL     1       7.865  -2.962  -7.215  0.00  0.00    -0.188 NA
ATOM     12  C   UNL     1       8.957  -3.280  -7.840  0.00  0.00    +0.138 C 
BRANCH  12  13
ATOM     13  C   UNL     1       8.892  -3.822  -9.210  0.00  0.00    -0.002 A 
ATOM     14  C   UNL     1       7.655  -3.988  -9.840  0.00  0.00    +0.010 A 
ATOM     15  C   UNL     1       7.598  -4.494 -11.122  0.00  0.00    +0.004 A 
ATOM     16  C   UNL     1       8.761  -4.839 -11.787  0.00  0.00    +0.046 A 
ATOM     17  C   UNL     1       9.994  -4.678 -11.169  0.00  0.00    +0.129 A 
ATOM     18  C   UNL     1      10.065  -4.165  -9.885  0.00  0.00    +0.055 A 
BRANCH  17  19
ATOM     19  O   UNL     1      11.133  -5.019 -11.828  0.00  0.00    -0.456 OA
BRANCH  19  20
ATOM     20  C   UNL     1      11.847  -6.077 -11.362  0.00  0.00    +0.128 A 
ATOM     21  C   UNL     1      11.342  -6.855 -10.330  0.00  0.00    +0.046 A 
ATOM     22  C   UNL     1      12.069  -7.931  -9.858  0.00  0.00    +0.004 A 
ATOM     23  C   UNL     1      13.299  -8.232 -10.414  0.00  0.00    +0.000 A 
ATOM     24  C   UNL     1      13.805  -7.458 -11.442  0.00  0.00    +0.004 A 
ATOM     25  C   UNL     1      13.079  -6.385 -11.921  0.00  0.00    +0.046 A 
ENDBRANCH  19  20
ENDBRANCH  17  19
ENDBRANCH  12  13
ENDBRANCH   6  11
BRANCH   1  26
ATOM     26  S   UNL     1       4.715  -0.760  -2.178  0.00  0.00    -0.075 S 
BRANCH  26  27
ATOM     27  C   UNL     1       2.919  -0.758  -2.431  0.00  0.00    +0.173 C 
BRANCH  27  29
ATOM     28  N   UNL     1       0.894  -0.132  -1.156  0.00  0.00    -0.308 N 
ATOM     29  C   UNL     1       2.238  -0.226  -1.197  0.00  0.00    +0.224 C 
ATOM     30  O   UNL     1       2.899   0.119  -0.240  0.00  0.00    -0.275 OA
ATOM     31  H   UNL     1       0.365  -0.408  -1.921  0.00  0.00    +0.149 HD
BRANCH  28  33
ATOM     32  C   UNL     1       0.190   1.914  -0.016  0.00  0.00    +0.033 C 
ATOM     33  C   UNL     1       0.232   0.386   0.044  0.00  0.00    +0.100 C 
BRANCH  33  34
ATOM     34  C   UNL     1      -1.174  -0.153   0.115  0.00  0.00    -0.027 A 
ATOM     35  C   UNL     1      -1.932  -0.259  -1.036  0.00  0.00    +0.005 A 
ATOM     36  C   UNL     1      -3.221  -0.753  -0.972  0.00  0.00    +0.000 A 
ATOM     37  C   UNL     1      -3.752  -1.142   0.244  0.00  0.00    +0.000 A 
ATOM     38  C   UNL     1      -2.994  -1.036   1.395  0.00  0.00    +0.000 A 
ATOM     39  C   UNL     1      -1.703  -0.546   1.329  0.00  0.00    +0.005 A 
ENDBRANCH  33  34
ENDBRANCH  28  33
ENDBRANCH  27  29
ENDBRANCH  26  27
ENDBRANCH   1  26
TORSDOF 10
