REMARK  Name = ZINC40170469
REMARK  10 active torsions:
REMARK  status: ('A' for Active; 'I' for Inactive)
REMARK    1  A    between atoms: C_1  and  C_2
REMARK    2  A    between atoms: C_5  and  C_8
REMARK    3  A    between atoms: C_11  and  N_16
REMARK    4  A    between atoms: C_12  and  C_13
REMARK    5  A    between atoms: C_17  and  C_19
REMARK    6  A    between atoms: C_19  and  C_21
REMARK    7  A    between atoms: C_19  and  S_22
REMARK    8  A    between atoms: S_22  and  C_23
REMARK    9  A    between atoms: C_29  and  C_37
REMARK   10  A    between atoms: C_34  and  C_36
REMARK                            x       y       z     vdW  Elec       q    Type
REMARK                         _______ _______ _______ _____ _____    ______ ____
ROOT
ATOM      1  N   UNL     1       0.930  -7.402   0.624  0.00  0.00    -0.278 N 
ATOM      2  C   UNL     1       0.822  -8.732   0.429  0.00  0.00    +0.231 C 
ATOM      3  O   UNL     1       0.125  -9.159  -0.467  0.00  0.00    -0.274 OA
ATOM      4  H   UNL     1       1.488  -7.061   1.340  0.00  0.00    +0.155 HD
ENDROOT
BRANCH   1   8
ATOM      5  C   UNL     1      -0.575  -4.454  -1.135  0.00  0.00    +0.003 A 
ATOM      6  C   UNL     1      -1.238  -5.261  -2.005  0.00  0.00    +0.056 A 
ATOM      7  S   UNL     1      -0.766  -6.896  -1.486  0.00  0.00    -0.081 S 
ATOM      8  C   UNL     1       0.244  -6.523  -0.200  0.00  0.00    +0.085 A 
ATOM      9  C   UNL     1       0.242  -5.139  -0.150  0.00  0.00    +0.073 A 
BRANCH   5  14
ATOM     10  C   UNL     1      -0.960   1.286  -1.359  0.00  0.00    +0.044 C 
ATOM     11  C   UNL     1      -0.859  -0.216  -1.301  0.00  0.00    -0.050 A 
ATOM     12  C   UNL     1      -0.578  -0.933  -2.450  0.00  0.00    +0.004 A 
ATOM     13  C   UNL     1      -0.484  -2.309  -2.402  0.00  0.00    +0.009 A 
ATOM     14  C   UNL     1      -0.674  -2.976  -1.193  0.00  0.00    -0.017 A 
ATOM     15  C   UNL     1      -0.957  -2.248  -0.038  0.00  0.00    +0.009 A 
ATOM     16  C   UNL     1      -1.043  -0.872  -0.097  0.00  0.00    +0.004 A 
ENDBRANCH   5  14
BRANCH   9  17
ATOM     17  C   UNL     1       1.021  -4.404   0.850  0.00  0.00    +0.244 C 
ATOM     18  O   UNL     1       0.523  -4.128   1.926  0.00  0.00    -0.270 OA
ATOM     19  N   UNL     1       2.288  -4.034   0.579  0.00  0.00    -0.325 N 
ATOM     20  H   UNL     1       2.684  -4.255  -0.279  0.00  0.00    +0.145 HD
ATOM     21  H   UNL     1       2.803  -3.547   1.241  0.00  0.00    +0.145 HD
ENDBRANCH   9  17
ENDBRANCH   1   8
BRANCH   2  22
ATOM     22  C   UNL     1       1.568  -9.687   1.324  0.00  0.00    +0.137 C 
ATOM     23  C   UNL     1       0.744  -9.953   2.585  0.00  0.00    +0.029 C 
BRANCH  22  24
ATOM     24  S   UNL     1       1.847 -11.248   0.443  0.00  0.00    -0.073 S 
BRANCH  24  25
ATOM     25  C   UNL     1       2.844 -12.190   1.550  0.00  0.00    +0.197 A 
ATOM     26  N   UNL     1       3.271 -11.760   2.723  0.00  0.00    -0.122 NA
ATOM     27  N   UNL     1       3.875 -12.704   3.343  0.00  0.00    -0.129 NA
ATOM     28  C   UNL     1       3.828 -13.804   2.617  0.00  0.00    +0.162 A 
ATOM     29  N   UNL     1       3.337 -13.446   1.373  0.00  0.00    -0.270 N 
ATOM     30  C   UNL     1       3.467 -14.331   0.318  0.00  0.00    +0.061 A 
ATOM     31  C   UNL     1       3.522 -13.945  -1.012  0.00  0.00    -0.026 A 
ATOM     32  C   UNL     1       3.422 -14.889  -2.017  0.00  0.00    +0.005 A 
ATOM     33  C   UNL     1       3.373 -16.240  -1.717  0.00  0.00    +0.001 A 
ATOM     34  C   UNL     1       3.508 -16.654  -0.410  0.00  0.00    +0.010 A 
ATOM     35  C   UNL     1       3.639 -15.706   0.605  0.00  0.00    +0.002 A 
ATOM     36  C   UNL     1       4.037 -16.100   1.959  0.00  0.00    -0.038 A 
ATOM     37  C   UNL     1       4.164 -15.145   2.907  0.00  0.00    +0.052 A 
ATOM     38  C   UNL     1       4.307 -17.541   2.306  0.00  0.00    +0.044 C 
ATOM     39  C   UNL     1       3.779 -12.515  -1.414  0.00  0.00    +0.046 C 
ENDBRANCH  24  25
ENDBRANCH  22  24
ENDBRANCH   2  22
TORSDOF 6
