REMARK  Name = ZINC28160192
REMARK  7 active torsions:
REMARK  status: ('A' for Active; 'I' for Inactive)
REMARK    1  A    between atoms: C_1  and  C_2
REMARK    2  A    between atoms: C_5  and  C_8
REMARK    3  A    between atoms: C_11  and  C_33
REMARK    4  A    between atoms: C_18  and  C_21
REMARK    5  A    between atoms: C_21  and  C_22
REMARK    6  A    between atoms: N_24  and  C_25
REMARK    7  A    between atoms: C_28  and  C_32
REMARK                            x       y       z     vdW  Elec       q    Type
REMARK                         _______ _______ _______ _____ _____    ______ ____
ROOT
ATOM      1  C   UNL     1      -2.494   6.988   0.069  0.00  0.00    +0.136 C 
ATOM      2  C   UNL     1      -2.494   5.446   0.063  0.00  0.00    +0.087 C 
ATOM      3  C   UNL     1      -1.027   5.082   0.060  0.00  0.00    +0.075 C 
ATOM      4  N   UNL     1      -0.315   6.160   0.054  0.00  0.00    -0.181 NA
ATOM      5  N   UNL     1      -1.064   7.334   0.059  0.00  0.00    -0.195 N 
ATOM      6  C   UNL     1      -0.555   8.600   0.055  0.00  0.00    +0.170 C 
ATOM      7  N   UNL     1      -1.217   9.750   0.059  0.00  0.00    -0.157 NA
ATOM      8  C   UNL     1      -0.650  10.925   0.054  0.00  0.00    +0.252 C 
ATOM      9  O   UNL     1      -1.293  11.957   0.058  0.00  0.00    -0.272 OA
ATOM     10  C   UNL     1       0.873  10.915   0.043  0.00  0.00    +0.150 C 
ATOM     11  S   UNL     1       1.161   9.099   0.050  0.00  0.00    -0.078 S 
ENDROOT
BRANCH   1  16
ATOM     12  C   UNL     1      -5.110   9.019  -4.667  0.00  0.00    +0.044 C 
ATOM     13  C   UNL     1      -4.428   8.490  -3.432  0.00  0.00    -0.050 A 
ATOM     14  C   UNL     1      -5.080   8.524  -2.213  0.00  0.00    +0.004 A 
ATOM     15  C   UNL     1      -4.454   8.038  -1.081  0.00  0.00    +0.006 A 
ATOM     16  C   UNL     1      -3.176   7.517  -1.166  0.00  0.00    -0.025 A 
ATOM     17  C   UNL     1      -2.522   7.488  -2.384  0.00  0.00    +0.006 A 
ATOM     18  C   UNL     1      -3.150   7.969  -3.517  0.00  0.00    +0.004 A 
ENDBRANCH   1  16
BRANCH   3  19
ATOM     19  C   UNL     1      -0.494   3.716   0.057  0.00  0.00    +0.035 A 
ATOM     20  C   UNL     1       0.824   3.293   0.048  0.00  0.00    +0.017 A 
ATOM     21  C   UNL     1       1.077   1.941   0.047  0.00  0.00    +0.008 A 
ATOM     22  C   UNL     1       0.035   1.069   0.054  0.00  0.00    +0.046 A 
ATOM     23  S   UNL     1      -1.376   2.163   0.056  0.00  0.00    -0.095 S 
ENDBRANCH   3  19
BRANCH  10  24
ATOM     24  C   UNL     1       1.427  11.570  -1.223  0.00  0.00    +0.120 C 
BRANCH  24  25
ATOM     25  C   UNL     1       2.930  11.647  -1.133  0.00  0.00    +0.219 C 
ATOM     26  O   UNL     1       3.501  11.219  -0.152  0.00  0.00    -0.275 OA
ATOM     27  N   UNL     1       3.639  12.190  -2.142  0.00  0.00    -0.285 N 
ATOM     28  H   UNL     1       3.129  12.508  -3.063  0.00  0.00    +0.155 HD
BRANCH  27  29
ATOM     29  C   UNL     1       5.023  12.350  -2.018  0.00  0.00    +0.036 A 
ATOM     30  C   UNL     1       5.651  13.448  -2.591  0.00  0.00    +0.024 A 
ATOM     31  C   UNL     1       7.017  13.607  -2.463  0.00  0.00    +0.008 A 
ATOM     32  C   UNL     1       7.763  12.668  -1.774  0.00  0.00    -0.015 A 
ATOM     33  C   UNL     1       7.141  11.569  -1.206  0.00  0.00    +0.128 A 
ATOM     34  C   UNL     1       5.772  11.408  -1.326  0.00  0.00    +0.062 A 
ATOM     35  F   UNL     1       7.872  10.653  -0.533  0.00  0.00    -0.205 F 
ATOM     36  C   UNL     1       9.254  12.842  -1.642  0.00  0.00    +0.047 C 
ENDBRANCH  27  29
ENDBRANCH  24  25
ENDBRANCH  10  24
TORSDOF 5
