REMARK  Name = ZINC01762511
REMARK  16 active torsions:
REMARK  status: ('A' for Active; 'I' for Inactive)
REMARK    1  A    between atoms: C_1  and  C_2
REMARK    2  A    between atoms: C_2  and  C_3
REMARK    3  A    between atoms: C_3  and  C_4
REMARK    4  A    between atoms: C_4  and  C_5
REMARK    5  A    between atoms: C_5  and  C_6
REMARK    6  A    between atoms: C_6  and  C_7
REMARK    7  A    between atoms: C_7  and  N_8
REMARK    8  A    between atoms: C_22  and  C_40
REMARK    9  A    between atoms: C_23  and  C_34
REMARK   10  A    between atoms: C_24  and  C_26
REMARK   11  A    between atoms: C_29  and  O_32
REMARK   12  A    between atoms: O_32  and  C_33
REMARK   13  A    between atoms: C_34  and  O_36
REMARK   14  A    between atoms: O_36  and  C_37
REMARK   15  A    between atoms: C_37  and  C_38
REMARK   16  A    between atoms: C_37  and  C_39
REMARK                            x       y       z     vdW  Elec       q    Type
REMARK                         _______ _______ _______ _____ _____    ______ ____
ROOT
ATOM      1  N   UNL     1      -4.243  -6.117   0.010  0.00  0.00    -0.267 N 
ATOM      2  C   UNL     1      -4.238  -6.895  -1.143  0.00  0.00    +0.044 A 
ATOM      3  C   UNL     1      -4.248  -6.550  -2.490  0.00  0.00    +0.024 A 
ATOM      4  C   UNL     1      -4.240  -7.535  -3.457  0.00  0.00    +0.002 A 
ATOM      5  C   UNL     1      -4.221  -8.874  -3.102  0.00  0.00    +0.001 A 
ATOM      6  C   UNL     1      -4.210  -9.237  -1.771  0.00  0.00    +0.010 A 
ATOM      7  C   UNL     1      -4.218  -8.251  -0.787  0.00  0.00    +0.010 A 
ATOM      8  C   UNL     1      -4.210  -8.296   0.690  0.00  0.00    +0.065 C 
ATOM      9  C   UNL     1      -4.191  -9.417   1.497  0.00  0.00    +0.093 A 
ATOM     10  C   UNL     1      -4.189  -9.513   2.975  0.00  0.00    +0.269 A 
ATOM     11  O   UNL     1      -4.205  -8.516   3.670  0.00  0.00    -0.266 OA
ATOM     12  N   UNL     1      -4.168 -10.736   3.519  0.00  0.00    -0.275 N 
ATOM     13  C   UNL     1      -4.150 -11.832   2.686  0.00  0.00    +0.178 A 
ATOM     14  N   UNL     1      -4.128 -13.069   3.106  0.00  0.00    -0.228 NA
ATOM     15  C   UNL     1      -4.121 -13.438   4.382  0.00  0.00    +0.053 C 
ATOM     16  C   UNL     1      -4.136 -12.501   5.375  0.00  0.00    +0.085 C 
ATOM     17  C   UNL     1      -4.162 -11.043   4.978  0.00  0.00    +0.162 C 
ATOM     18  C   UNL     1      -4.096 -14.902   4.736  0.00  0.00    +0.066 C 
ATOM     19  S   UNL     1      -4.170 -11.143   1.042  0.00  0.00    -0.045 S 
ATOM     20  C   UNL     1      -4.221  -6.881   1.116  0.00  0.00    +0.253 C 
ATOM     21  O   UNL     1      -4.215  -6.478   2.264  0.00  0.00    -0.270 OA
ENDROOT
BRANCH  17  22
ATOM     22  C   UNL     1      -5.389 -10.418   5.588  0.00  0.00    -0.020 A 
ATOM     23  C   UNL     1      -6.595 -10.460   4.912  0.00  0.00    +0.009 A 
ATOM     24  C   UNL     1      -7.721  -9.887   5.470  0.00  0.00    +0.046 A 
ATOM     25  C   UNL     1      -7.642  -9.268   6.709  0.00  0.00    +0.120 A 
ATOM     26  C   UNL     1      -6.431  -9.227   7.386  0.00  0.00    +0.046 A 
ATOM     27  C   UNL     1      -5.309  -9.806   6.826  0.00  0.00    +0.009 A 
BRANCH  25  28
ATOM     28  O   UNL     1      -8.749  -8.703   7.260  0.00  0.00    -0.495 OA
ATOM     29  C   UNL     1      -8.593  -8.083   8.538  0.00  0.00    +0.277 C 
ENDBRANCH  25  28
ENDBRANCH  17  22
BRANCH  16  30
ATOM     30  C   UNL     1      -4.128 -12.883   6.730  0.00  0.00    +0.339 C 
ATOM     31  O   UNL     1      -4.108 -14.062   7.030  0.00  0.00    -0.245 OA
BRANCH  30  32
ATOM     32  O   UNL     1      -4.144 -11.940   7.696  0.00  0.00    -0.459 OA
BRANCH  32  33
ATOM     33  C   UNL     1      -4.134 -12.398   9.050  0.00  0.00    +0.171 C 
ATOM     34  C   UNL     1      -3.430 -11.367   9.933  0.00  0.00    +0.052 C 
ATOM     35  C   UNL     1      -5.573 -12.587   9.534  0.00  0.00    +0.052 C 
ENDBRANCH  32  33
ENDBRANCH  30  32
ENDBRANCH  16  30
BRANCH   1  36
ATOM     36  C   UNL     1      -4.263  -4.652   0.018  0.00  0.00    +0.114 C 
BRANCH  36  37
ATOM     37  C   UNL     1      -2.827  -4.123   0.007  0.00  0.00    +0.019 C 
BRANCH  37  38
ATOM     38  C   UNL     1      -2.848  -2.593   0.015  0.00  0.00    +0.002 C 
BRANCH  38  39
ATOM     39  C   UNL     1      -1.413  -2.063   0.004  0.00  0.00    +0.000 C 
BRANCH  39  40
ATOM     40  C   UNL     1      -1.433  -0.534   0.013  0.00  0.00    -0.000 C 
BRANCH  40  42
ATOM     41  C   UNL     1      -0.019   1.526   0.010  0.00  0.00    +0.004 C 
ATOM     42  C   UNL     1       0.002  -0.004   0.002  0.00  0.00    -0.003 C 
ENDBRANCH  40  42
ENDBRANCH  39  40
ENDBRANCH  38  39
ENDBRANCH  37  38
ENDBRANCH  36  37
ENDBRANCH   1  36
TORSDOF 11
