REMARK  Name = ZINC38741912
REMARK  5 active torsions:
REMARK  status: ('A' for Active; 'I' for Inactive)
REMARK    1  A    between atoms: C_1  and  C_2
REMARK    2  A    between atoms: C_2  and  C_34
REMARK    3  A    between atoms: C_8  and  N_22
REMARK    4  A    between atoms: N_11  and  C_12
REMARK    5  A    between atoms: N_22  and  C_23
REMARK                            x       y       z     vdW  Elec       q    Type
REMARK                         _______ _______ _______ _____ _____    ______ ____
ROOT
ATOM      1  C   UNL     1       0.355   1.092  -0.749  0.00  0.00    +0.011 C 
ATOM      2  C   UNL     1       0.189  -0.417  -0.554  0.00  0.00    -0.027 C 
ATOM      3  C   UNL     1      -1.290  -0.752  -0.379  0.00  0.00    +0.028 C 
ATOM      4  C   UNL     1      -1.508  -2.264  -0.320  0.00  0.00    +0.089 C 
ATOM      5  C   UNL     1      -0.683  -2.884   0.828  0.00  0.00    +0.110 C 
ATOM      6  C   UNL     1      -1.476  -2.484   2.083  0.00  0.00    +0.165 C 
ATOM      7  N   UNL     1      -2.854  -2.223   1.612  0.00  0.00    -0.231 NA
ATOM      8  N   UNL     1      -2.908  -2.480   0.155  0.00  0.00    -0.211 NA
ATOM      9  C   UNL     1       0.716  -2.353   0.851  0.00  0.00    +0.142 C 
ATOM     10  O   UNL     1       1.644  -3.107   1.018  0.00  0.00    -0.297 OA
ATOM     11  C   UNL     1       0.943  -0.859   0.708  0.00  0.00    +0.081 C 
ATOM     12  C   UNL     1       0.748  -1.156  -1.771  0.00  0.00    +0.011 C 
ATOM     13  H   UNL     1      -3.520  -2.800   2.104  0.00  0.00    +0.143 HD
ENDROOT
BRANCH   8  14
ATOM     14  C   UNL     1      -3.841  -1.572  -0.524  0.00  0.00    +0.199 C 
ATOM     15  N   UNL     1      -5.234  -1.896  -0.186  0.00  0.00    -0.364 N 
ATOM     16  C   UNL     1      -6.040  -2.265  -1.140  0.00  0.00    +0.045 A 
ATOM     17  C   UNL     1      -7.471  -2.634  -1.016  0.00  0.00    +0.026 A 
ATOM     18  C   UNL     1      -8.166  -2.994  -2.111  0.00  0.00    +0.002 A 
ATOM     19  C   UNL     1      -7.597  -3.041  -3.392  0.00  0.00    +0.001 A 
ATOM     20  C   UNL     1      -6.298  -2.720  -3.599  0.00  0.00    +0.011 A 
ATOM     21  C   UNL     1      -5.491  -2.332  -2.519  0.00  0.00    +0.008 A 
ATOM     22  P   UNL     1      -3.832  -1.855  -2.351  0.00  0.00    +0.001 P 
ATOM     23  H   UNL     1      -5.546  -1.837   0.731  0.00  0.00    +0.162 HD
ENDBRANCH   8  14
BRANCH   6  24
ATOM     24  N   UNL     1      -1.470  -3.579   3.057  0.00  0.00    -0.327 N 
ATOM     25  H   UNL     1      -1.616  -4.491   2.762  0.00  0.00    +0.148 HD
BRANCH  24  26
ATOM     26  C   UNL     1      -1.253  -3.308   4.411  0.00  0.00    +0.030 A 
ATOM     27  C   UNL     1      -1.204  -1.994   4.859  0.00  0.00    +0.024 A 
ATOM     28  C   UNL     1      -0.990  -1.729   6.197  0.00  0.00    +0.023 A 
ATOM     29  C   UNL     1      -0.824  -2.771   7.092  0.00  0.00    +0.059 A 
ATOM     30  C   UNL     1      -0.872  -4.082   6.649  0.00  0.00    +0.061 A 
ATOM     31  C   UNL     1      -1.093  -4.353   5.311  0.00  0.00    +0.044 A 
ATOM     32 CL   UNL     1      -0.661  -5.386   7.775  0.00  0.00    -0.082 Cl
ATOM     33 CL   UNL     1      -0.555  -2.434   8.774  0.00  0.00    -0.082 Cl
ENDBRANCH  24  26
ENDBRANCH   6  24
TORSDOF 3
