REMARK  Name = ZINC16887087
REMARK  7 active torsions:
REMARK  status: ('A' for Active; 'I' for Inactive)
REMARK    1  A    between atoms: C_4  and  C_7
REMARK    2  A    between atoms: C_8  and  C_9
REMARK    3  A    between atoms: N_11  and  C_12
REMARK    4  A    between atoms: C_12  and  C_23
REMARK    5  A    between atoms: C_13  and  C_14
REMARK    6  A    between atoms: N_25  and  C_26
REMARK    7  A    between atoms: C_26  and  C_27
REMARK                            x       y       z     vdW  Elec       q    Type
REMARK                         _______ _______ _______ _____ _____    ______ ____
ROOT
ATOM      1  C   UNL     1       2.399   1.260  -0.067  0.00  0.00    +0.097 C 
ATOM      2  C   UNL     1       2.474  -0.085  -0.208  0.00  0.00    +0.036 C 
ENDROOT
BRANCH   2   3
ATOM      3  C   UNL     1       1.257  -0.904  -0.109  0.00  0.00    -0.019 A 
ATOM      4  C   UNL     1       0.142  -0.422   0.586  0.00  0.00    +0.012 A 
ATOM      5  C   UNL     1      -0.999  -1.190   0.673  0.00  0.00    +0.050 A 
ATOM      6  C   UNL     1      -1.044  -2.445   0.082  0.00  0.00    +0.166 A 
ATOM      7  C   UNL     1       0.066  -2.935  -0.608  0.00  0.00    +0.167 A 
ATOM      8  C   UNL     1       1.212  -2.169  -0.704  0.00  0.00    +0.057 A 
ATOM      9  O   UNL     1      -0.233  -4.177  -1.088  0.00  0.00    -0.453 OA
ATOM     10  C   UNL     1      -1.668  -4.273  -1.039  0.00  0.00    +0.466 C 
ATOM     11  O   UNL     1      -2.034  -3.382   0.032  0.00  0.00    -0.453 OA
ENDBRANCH   2   3
BRANCH   1  14
ATOM     12  C   UNL     1       0.863   2.680   1.065  0.00  0.00    +0.241 C 
ATOM     13  O   UNL     1       1.654   2.784   1.984  0.00  0.00    -0.270 OA
ATOM     14  N   UNL     1       1.151   1.885   0.015  0.00  0.00    -0.278 N 
ATOM     15  H   UNL     1       0.492   1.748  -0.684  0.00  0.00    +0.155 HD
BRANCH  12  17
ATOM     16  C   UNL     1      -0.650   4.282   2.103  0.00  0.00    +0.013 C 
ATOM     17  C   UNL     1      -0.403   3.414   1.102  0.00  0.00    +0.068 C 
BRANCH  16  21
ATOM     18  C   UNL     1      -4.442   6.162   2.395  0.00  0.00    +0.000 A 
ATOM     19  C   UNL     1      -3.460   6.443   3.329  0.00  0.00    +0.001 A 
ATOM     20  C   UNL     1      -2.225   5.836   3.241  0.00  0.00    +0.008 A 
ATOM     21  C   UNL     1      -1.966   4.935   2.204  0.00  0.00    -0.025 A 
ATOM     22  C   UNL     1      -2.960   4.660   1.261  0.00  0.00    +0.008 A 
ATOM     23  C   UNL     1      -4.192   5.271   1.366  0.00  0.00    +0.001 A 
ENDBRANCH  16  21
ENDBRANCH  12  17
ENDBRANCH   1  14
BRANCH   1  24
ATOM     24  C   UNL     1       3.628   2.061   0.001  0.00  0.00    +0.259 C 
ATOM     25  O   UNL     1       3.561   3.269   0.128  0.00  0.00    -0.269 OA
ATOM     26  N   UNL     1       4.831   1.457  -0.078  0.00  0.00    -0.303 N 
ATOM     27  H   UNL     1       4.885   0.494  -0.180  0.00  0.00    +0.149 HD
BRANCH  26  28
ATOM     28  C   UNL     1       6.057   2.256  -0.011  0.00  0.00    +0.179 C 
BRANCH  28  29
ATOM     29  C   UNL     1       7.255   1.349  -0.121  0.00  0.00    +0.122 A 
ATOM     30  C   UNL     1       7.866   0.989  -1.264  0.00  0.00    +0.046 A 
ATOM     31  C   UNL     1       8.935   0.135  -0.906  0.00  0.00    +0.041 A 
ATOM     32  C   UNL     1       8.913   0.025   0.434  0.00  0.00    +0.195 A 
ATOM     33  O   UNL     1       7.897   0.767   0.905  0.00  0.00    -0.466 OA
ENDBRANCH  28  29
ENDBRANCH  26  28
ENDBRANCH   1  24
TORSDOF 7
