REMARK  Name = ZINC12747868
REMARK  7 active torsions:
REMARK  status: ('A' for Active; 'I' for Inactive)
REMARK    1  A    between atoms: C_1  and  C_2
REMARK    2  A    between atoms: C_2  and  C_4
REMARK    3  A    between atoms: C_2  and  N_14
REMARK    4  A    between atoms: C_7  and  S_10
REMARK    5  A    between atoms: S_10  and  N_13
REMARK    6  A    between atoms: C_15  and  C_17
REMARK    7  A    between atoms: N_20  and  C_22
REMARK                            x       y       z     vdW  Elec       q    Type
REMARK                         _______ _______ _______ _____ _____    ______ ____
ROOT
ATOM      1  N   UNL     1      -2.249   3.801   5.821  0.00  0.00    -0.303 N 
ATOM      2  C   UNL     1      -2.526   3.834   7.140  0.00  0.00    +0.265 C 
ATOM      3  O   UNL     1      -3.506   3.258   7.570  0.00  0.00    -0.268 OA
ATOM      4  H   UNL     1      -1.467   4.260   5.478  0.00  0.00    +0.150 HD
ENDROOT
BRANCH   2   5
ATOM      5  C   UNL     1      -1.637   4.569   8.062  0.00  0.00    +0.151 A 
ATOM      6  C   UNL     1      -1.799   4.698   9.461  0.00  0.00    +0.006 A 
ATOM      7  C   UNL     1      -0.757   5.446   9.885  0.00  0.00    +0.049 A 
ATOM      8  N   UNL     1      -0.017   5.755   8.786  0.00  0.00    -0.236 N 
ATOM      9  N   UNL     1      -0.546   5.235   7.737  0.00  0.00    -0.161 NA
ATOM     10  C   UNL     1      -0.830   5.642  11.382  0.00  0.00    +0.056 C 
ATOM     11  C   UNL     1      -2.287   5.283  11.762  0.00  0.00    +0.011 C 
ATOM     12  C   UNL     1      -2.682   4.315  10.624  0.00  0.00    +0.040 C 
BRANCH   8  13
ATOM     13  C   UNL     1       1.152   6.527   8.796  0.00  0.00    +0.066 A 
ATOM     14  C   UNL     1       1.275   7.591   9.681  0.00  0.00    +0.030 A 
ATOM     15  C   UNL     1       2.430   8.348   9.693  0.00  0.00    +0.040 A 
ATOM     16  C   UNL     1       3.461   8.053   8.817  0.00  0.00    +0.124 A 
ATOM     17  C   UNL     1       3.339   6.996   7.930  0.00  0.00    +0.040 A 
ATOM     18  C   UNL     1       2.187   6.234   7.918  0.00  0.00    +0.030 A 
ATOM     19  F   UNL     1       4.588   8.799   8.826  0.00  0.00    -0.205 F 
ENDBRANCH   8  13
ENDBRANCH   2   5
BRANCH   1  21
ATOM     20  C   UNL     1      -4.294   3.974   4.490  0.00  0.00    +0.033 C 
ATOM     21  C   UNL     1      -3.131   3.072   4.906  0.00  0.00    +0.100 C 
BRANCH  21  22
ATOM     22  C   UNL     1      -2.353   2.659   3.683  0.00  0.00    -0.027 A 
ATOM     23  C   UNL     1      -2.559   1.412   3.122  0.00  0.00    +0.007 A 
ATOM     24  C   UNL     1      -1.846   1.033   2.000  0.00  0.00    +0.029 A 
ATOM     25  C   UNL     1      -0.927   1.900   1.439  0.00  0.00    +0.105 A 
ATOM     26  C   UNL     1      -0.717   3.145   2.004  0.00  0.00    +0.029 A 
ATOM     27  C   UNL     1      -1.434   3.526   3.123  0.00  0.00    +0.007 A 
BRANCH  25  28
ATOM     28  S   UNL     1      -0.017   1.417   0.010  0.00  0.00    +0.056 S 
ATOM     29  O   UNL     1       0.002  -0.004   0.002  0.00  0.00    -0.153 OA
ATOM     30  O   UNL     1       1.172   2.195   0.003  0.00  0.00    -0.153 OA
BRANCH  28  31
ATOM     31  N   UNL     1      -0.897   1.885  -1.312  0.00  0.00    -0.204 NA
ATOM     32  H   UNL     1      -1.201   1.223  -1.952  0.00  0.00    +0.144 HD
ATOM     33  H   UNL     1      -1.110   2.822  -1.446  0.00  0.00    +0.144 HD
ENDBRANCH  28  31
ENDBRANCH  25  28
ENDBRANCH  21  22
ENDBRANCH   1  21
TORSDOF 6
