REMARK  Name = ZINC14732324
REMARK  7 active torsions:
REMARK  status: ('A' for Active; 'I' for Inactive)
REMARK    1  A    between atoms: C_1  and  N_2
REMARK    2  A    between atoms: C_5  and  C_7
REMARK    3  A    between atoms: C_20  and  N_66
REMARK    4  A    between atoms: C_24  and  C_25
REMARK    5  A    between atoms: C_24  and  N_66
REMARK    6  A    between atoms: C_25  and  C_26
REMARK    7  A    between atoms: C_28  and  C_31
REMARK                            x       y       z     vdW  Elec       q    Type
REMARK                         _______ _______ _______ _____ _____    ______ ____
ROOT
ATOM      1  C   UNL     1       1.089   1.339   2.937  0.00  0.00    +0.172 C 
ATOM      2  N   UNL     1      -0.256   1.719   2.497  0.00  0.00    -0.270 N 
ATOM      3  C   UNL     1      -0.708   1.624   1.236  0.00  0.00    +0.043 A 
ATOM      4  C   UNL     1      -1.991   2.066   1.236  0.00  0.00    +0.004 A 
ATOM      5  C   UNL     1      -2.274   2.431   2.563  0.00  0.00    +0.151 A 
ATOM      6  N   UNL     1      -1.178   2.192   3.263  0.00  0.00    -0.166 NA
ATOM      7  C   UNL     1      -2.874   2.124   0.020  0.00  0.00    +0.023 C 
ATOM      8  C   UNL     1      -2.248   1.247  -1.073  0.00  0.00    -0.067 C 
ATOM      9  C   UNL     1      -0.768   1.604  -1.229  0.00  0.00    -0.009 C 
ATOM     10  C   UNL     1       0.010   1.132   0.006  0.00  0.00    +0.054 C 
ENDROOT
BRANCH   5  11
ATOM     11  C   UNL     1      -3.547   2.975   3.076  0.00  0.00    +0.267 C 
ATOM     12  O   UNL     1      -4.447   3.248   2.304  0.00  0.00    -0.268 OA
ATOM     13  N   UNL     1      -3.713   3.169   4.399  0.00  0.00    -0.292 N 
ATOM     14  C   UNL     1      -4.997   3.633   4.951  0.00  0.00    +0.113 C 
ATOM     15  C   UNL     1      -5.554   2.523   5.841  0.00  0.00    +0.054 C 
ATOM     16  C   UNL     1      -4.493   1.998   6.772  0.00  0.00    -0.041 A 
ATOM     17  C   UNL     1      -4.912   1.309   7.903  0.00  0.00    +0.004 A 
ATOM     18  C   UNL     1      -3.992   0.796   8.794  0.00  0.00    +0.000 A 
ATOM     19  C   UNL     1      -2.640   0.966   8.560  0.00  0.00    +0.000 A 
ATOM     20  C   UNL     1      -2.221   1.653   7.440  0.00  0.00    +0.005 A 
ATOM     21  C   UNL     1      -3.146   2.174   6.545  0.00  0.00    -0.027 A 
ATOM     22  C   UNL     1      -2.623   2.921   5.349  0.00  0.00    +0.143 C 
ENDBRANCH   5  11
BRANCH   8  23
ATOM     23  N   UNL     1      -2.950   1.488  -2.348  0.00  0.00    +0.381 N 
ATOM     24  H   UNL     1      -2.539   2.307  -2.811  0.00  0.00    -0.086 HD
ATOM     25  H   UNL     1      -3.944   1.664  -2.159  0.00  0.00    -0.086 HD
BRANCH  23  26
ATOM     26  C   UNL     1      -2.823   0.314  -3.232  0.00  0.00    -0.075 C 
BRANCH  26  27
ATOM     27  C   UNL     1      -3.559   0.593  -4.544  0.00  0.00    +0.044 C 
BRANCH  27  28
ATOM     28  C   UNL     1      -3.434  -0.602  -5.454  0.00  0.00    +0.077 A 
ATOM     29  N   UNL     1      -4.221  -1.645  -5.552  0.00  0.00    -0.244 NA
ATOM     30  C   UNL     1      -3.971  -2.621  -6.410  0.00  0.00    +0.078 A 
ATOM     31  C   UNL     1      -2.858  -2.512  -7.199  0.00  0.00    +0.075 A 
ATOM     32  S   UNL     1      -2.213  -0.941  -6.641  0.00  0.00    -0.080 S 
BRANCH  30  33
ATOM     33  C   UNL     1      -4.869  -3.798  -6.514  0.00  0.00    +0.001 A 
ATOM     34  C   UNL     1      -6.048  -3.845  -5.773  0.00  0.00    +0.010 A 
ATOM     35  C   UNL     1      -6.882  -4.940  -5.877  0.00  0.00    +0.001 A 
ATOM     36  C   UNL     1      -6.544  -5.994  -6.706  0.00  0.00    +0.000 A 
ATOM     37  C   UNL     1      -5.372  -5.955  -7.439  0.00  0.00    +0.001 A 
ATOM     38  C   UNL     1      -4.533  -4.863  -7.348  0.00  0.00    +0.010 A 
ENDBRANCH  30  33
ENDBRANCH  27  28
ENDBRANCH  26  27
ENDBRANCH  23  26
ENDBRANCH   8  23
TORSDOF 6
