REMARK  Name = ZINC36029777
REMARK  15 active torsions:
REMARK  status: ('A' for Active; 'I' for Inactive)
REMARK    1  A    between atoms: C_1  and  C_2
REMARK    2  A    between atoms: C_2  and  C_3
REMARK    3  A    between atoms: C_2  and  C_4
REMARK    4  A    between atoms: C_4  and  C_5
REMARK    5  A    between atoms: N_9  and  C_24
REMARK    6  A    between atoms: N_19  and  C_20
REMARK    7  A    between atoms: C_20  and  C_21
REMARK    8  A    between atoms: C_20  and  C_22
REMARK    9  A    between atoms: C_20  and  C_23
REMARK   10  A    between atoms: C_24  and  C_25
REMARK   11  A    between atoms: C_25  and  C_26
REMARK   12  A    between atoms: C_29  and  O_34
REMARK   13  A    between atoms: C_30  and  O_32
REMARK   14  A    between atoms: O_32  and  C_33
REMARK   15  A    between atoms: O_34  and  C_35
REMARK                            x       y       z     vdW  Elec       q    Type
REMARK                         _______ _______ _______ _____ _____    ______ ____
ROOT
ATOM      1  C   UNL     1      -0.394  -0.026   2.564  0.00  0.00    +0.019 C 
ATOM      2  C   UNL     1       0.454  -0.544   3.705  0.00  0.00    +0.200 C 
ATOM      3  O   UNL     1       1.662  -0.463   3.785  0.00  0.00    -0.277 OA
ATOM      4  N   UNL     1      -0.359  -1.111   4.620  0.00  0.00    -0.313 N 
ATOM      5  C   UNL     1      -1.750  -1.007   4.169  0.00  0.00    +0.006 C 
ATOM      6  N   UNL     1      -1.701  -0.709   2.721  0.00  0.00    +0.401 N 
ATOM      7  C   UNL     1      -2.459   0.130   4.904  0.00  0.00    +0.025 C 
ATOM      8  C   UNL     1      -2.471  -0.167   6.407  0.00  0.00    +0.109 C 
ATOM      9  N   UNL     1      -3.058  -1.496   6.622  0.00  0.00    -0.286 N 
ATOM     10  C   UNL     1      -2.493  -2.644   5.901  0.00  0.00    +0.109 C 
ATOM     11  C   UNL     1      -2.481  -2.327   4.401  0.00  0.00    +0.025 C 
ATOM     12  C   UNL     1      -4.096  -1.659   7.466  0.00  0.00    +0.303 C 
ATOM     13  O   UNL     1      -4.510  -2.776   7.712  0.00  0.00    -0.253 OA
ATOM     14  N   UNL     1      -4.676  -0.585   8.037  0.00  0.00    -0.294 N 
ATOM     15  H   UNL     1      -2.457  -0.096   2.455  0.00  0.00    -0.082 HD
ATOM     16  H   UNL     1      -4.396   0.309   7.784  0.00  0.00    +0.151 HD
ATOM     17  H   UNL     1      -1.725  -1.561   2.181  0.00  0.00    -0.082 HD
ENDROOT
BRANCH  14  18
ATOM     18  C   UNL     1      -5.728  -0.766   9.040  0.00  0.00    +0.028 C 
ATOM     19  C   UNL     1      -5.173  -1.560  10.224  0.00  0.00    +0.031 C 
ATOM     20  C   UNL     1      -6.213   0.602   9.524  0.00  0.00    +0.031 C 
ATOM     21  C   UNL     1      -6.899  -1.531   8.418  0.00  0.00    +0.031 C 
ENDBRANCH  14  18
BRANCH   1  22
ATOM     22  C   UNL     1       0.241  -0.392   1.221  0.00  0.00    -0.004 C 
BRANCH  22  24
ATOM     23  C   UNL     1      -0.569   1.713   0.145  0.00  0.00    +0.007 C 
ATOM     24  C   UNL     1      -0.605   0.185   0.083  0.00  0.00    -0.018 C 
ATOM     25  C   UNL     1      -0.042  -0.285  -1.260  0.00  0.00    +0.007 C 
ENDBRANCH  22  24
ENDBRANCH   1  22
BRANCH   4  26
ATOM     26  C   UNL     1       0.079  -1.735   5.871  0.00  0.00    +0.110 C 
BRANCH  26  27
ATOM     27  C   UNL     1       0.409  -3.207   5.619  0.00  0.00    +0.054 C 
BRANCH  27  28
ATOM     28  C   UNL     1       0.929  -3.831   6.888  0.00  0.00    -0.042 A 
ATOM     29  C   UNL     1       2.283  -3.808   7.165  0.00  0.00    +0.007 A 
ATOM     30  C   UNL     1       2.764  -4.378   8.328  0.00  0.00    +0.049 A 
ATOM     31  C   UNL     1       1.889  -4.974   9.221  0.00  0.00    +0.161 A 
ATOM     32  C   UNL     1       0.525  -4.997   8.943  0.00  0.00    +0.162 A 
ATOM     33  C   UNL     1       0.049  -4.420   7.777  0.00  0.00    +0.053 A 
BRANCH  32  34
ATOM     34  O   UNL     1      -0.338  -5.582   9.816  0.00  0.00    -0.491 OA
ATOM     35  C   UNL     1      -1.724  -5.568   9.466  0.00  0.00    +0.277 C 
ENDBRANCH  32  34
BRANCH  31  36
ATOM     36  O   UNL     1       2.360  -5.537  10.366  0.00  0.00    -0.491 OA
ATOM     37  C   UNL     1       3.771  -5.476  10.585  0.00  0.00    +0.277 C 
ENDBRANCH  31  36
ENDBRANCH  27  28
ENDBRANCH  26  27
ENDBRANCH   4  26
TORSDOF 8
