REMARK  Name = ZINC20585365
REMARK  3 active torsions:
REMARK  status: ('A' for Active; 'I' for Inactive)
REMARK    1  A    between atoms: C_6  and  N_7
REMARK    2  A    between atoms: N_7  and  C_8
REMARK    3  A    between atoms: C_13  and  N_14
REMARK                            x       y       z     vdW  Elec       q    Type
REMARK                         _______ _______ _______ _____ _____    ______ ____
ROOT
ATOM      1  C   UNL     1      -2.418  -0.043   0.132  0.00  0.00    +0.056 A 
ATOM      2  C   UNL     1      -2.446   1.343   0.140  0.00  0.00    +0.074 A 
ATOM      3  C   UNL     1      -3.653   2.014   0.259  0.00  0.00    +0.164 A 
ATOM      4  C   UNL     1      -4.839   1.298   0.368  0.00  0.00    +0.164 A 
ATOM      5  C   UNL     1      -4.813  -0.090   0.362  0.00  0.00    +0.074 A 
ATOM      6  C   UNL     1      -3.607  -0.762   0.239  0.00  0.00    +0.050 A 
ATOM      7  O   UNL     1      -6.034   1.941   0.478  0.00  0.00    -0.485 OA
ATOM      8  C   UNL     1      -5.990   3.321   0.856  0.00  0.00    +0.270 C 
ATOM      9  C   UNL     1      -4.914   4.016   0.011  0.00  0.00    +0.270 C 
ATOM     10  O   UNL     1      -3.660   3.377   0.269  0.00  0.00    -0.485 OA
ENDROOT
BRANCH   6  11
ATOM     11  N   UNL     1      -3.584  -2.164   0.227  0.00  0.00    -0.356 N 
ATOM     12  H   UNL     1      -2.739  -2.635   0.144  0.00  0.00    +0.142 HD
ATOM     13  H   UNL     1      -4.412  -2.664   0.302  0.00  0.00    +0.142 HD
ENDBRANCH   6  11
BRANCH   1  14
ATOM     14  N   UNL     1      -1.196  -0.721   0.010  0.00  0.00    -0.313 N 
ATOM     15  H   UNL     1      -1.185  -1.684  -0.107  0.00  0.00    +0.152 HD
BRANCH  14  21
ATOM     16  C   UNL     1       0.175   1.010   0.985  0.00  0.00    +0.023 A 
ATOM     17  C   UNL     1       1.364   1.709   1.027  0.00  0.00    +0.006 A 
ATOM     18  C   UNL     1       2.388   1.400   0.148  0.00  0.00    -0.044 A 
ATOM     19  C   UNL     1       2.222   0.386  -0.778  0.00  0.00    -0.042 A 
ATOM     20  C   UNL     1       1.032  -0.319  -0.824  0.00  0.00    +0.027 A 
ATOM     21  C   UNL     1       0.004  -0.010   0.057  0.00  0.00    +0.032 A 
ATOM     22  C   UNL     1       3.476   0.246  -1.615  0.00  0.00    +0.036 C 
ATOM     23  C   UNL     1       4.254   1.561  -1.398  0.00  0.00    +0.009 C 
ATOM     24  C   UNL     1       3.765   2.010  -0.005  0.00  0.00    +0.036 C 
ENDBRANCH  14  21
ENDBRANCH   1  14
TORSDOF 3
