REMARK  Name = ZINC06763673
REMARK  6 active torsions:
REMARK  status: ('A' for Active; 'I' for Inactive)
REMARK    1  A    between atoms: C_1  and  C_2
REMARK    2  A    between atoms: C_5  and  C_13
REMARK    3  A    between atoms: C_6  and  C_7
REMARK    4  A    between atoms: C_6  and  C_8
REMARK    5  A    between atoms: C_10  and  O_12
REMARK    6  A    between atoms: N_15  and  N_16
REMARK                            x       y       z     vdW  Elec       q    Type
REMARK                         _______ _______ _______ _____ _____    ______ ____
ROOT
ATOM      1  C   UNL     1      -0.019   1.526   0.010  0.00  0.00    +0.014 C 
ATOM      2  C   UNL     1       0.002  -0.004   0.002  0.00  0.00    +0.000 C 
ATOM      3  C   UNL     1       0.744  -0.669  -1.197  0.00  0.00    +0.011 C 
ATOM      4  C   UNL     1       1.062  -2.103  -0.714  0.00  0.00    +0.017 C 
ATOM      5  C   UNL     1       0.481  -2.169   0.732  0.00  0.00    +0.056 C 
ATOM      6  C   UNL     1       0.727  -0.695   1.211  0.00  0.00    -0.013 C 
ATOM      7  C   UNL     1       0.031  -0.400   2.541  0.00  0.00    +0.012 C 
ATOM      8  C   UNL     1       2.216  -0.348   1.260  0.00  0.00    +0.012 C 
ATOM      9  C   UNL     1      -1.065  -2.153   0.533  0.00  0.00    +0.048 C 
ATOM     10  C   UNL     1      -1.389  -0.705   0.062  0.00  0.00    +0.122 C 
ENDROOT
BRANCH   5  11
ATOM     11  C   UNL     1       1.035  -3.257   1.615  0.00  0.00    +0.233 C 
ATOM     12  O   UNL     1       1.615  -2.969   2.641  0.00  0.00    -0.274 OA
ATOM     13  N   UNL     1       0.886  -4.550   1.265  0.00  0.00    -0.253 N 
ATOM     14  H   UNL     1       0.423  -4.780   0.445  0.00  0.00    +0.169 HD
BRANCH  13  15
ATOM     15  N   UNL     1       1.389  -5.536   2.066  0.00  0.00    -0.254 NA
ATOM     16  H   UNL     1       1.202  -6.448   1.677  0.00  0.00    +0.140 HD
ATOM     17  H   UNL     1       2.377  -5.406   2.223  0.00  0.00    +0.140 HD
ENDBRANCH  13  15
ENDBRANCH   5  11
BRANCH  10  18
ATOM     18  O   UNL     1      -1.986  -0.739  -1.236  0.00  0.00    -0.391 OA
ATOM     19  H   UNL     1      -2.855  -1.164  -1.258  0.00  0.00    +0.210 HD
ENDBRANCH  10  18
TORSDOF 3
