REMARK  Name = ZINC04089011
REMARK  2 active torsions:
REMARK  status: ('A' for Active; 'I' for Inactive)
REMARK    1  A    between atoms: C_1  and  N_50
REMARK    2  A    between atoms: C_3  and  C_26
REMARK                            x       y       z     vdW  Elec       q    Type
REMARK                         _______ _______ _______ _____ _____    ______ ____
ROOT
ATOM      1  C   UNL     1       2.431   1.524   2.269  0.00  0.00    -0.094 C 
ATOM      2  C   UNL     1       4.319   1.445   0.731  0.00  0.00    -0.068 C 
ATOM      3  C   UNL     1       4.533   0.894  -0.703  0.00  0.00    +0.026 C 
ATOM      4  C   UNL     1       3.093   0.796  -1.249  0.00  0.00    +0.076 C 
ATOM      5  C   UNL     1       2.194   0.740  -0.015  0.00  0.00    +0.057 C 
ATOM      6  C   UNL     1       1.322  -0.473  -0.014  0.00  0.00    -0.027 A 
ATOM      7  C   UNL     1       1.622  -1.818  -0.025  0.00  0.00    +0.004 A 
ATOM      8  C   UNL     1       0.551  -2.705  -0.018  0.00  0.00    +0.000 A 
ATOM      9  C   UNL     1      -0.754  -2.256  -0.001  0.00  0.00    +0.002 A 
ATOM     10  C   UNL     1      -1.064  -0.905   0.009  0.00  0.00    +0.023 A 
ATOM     11  C   UNL     1       0.002  -0.004   0.002  0.00  0.00    +0.036 A 
ATOM     12  N   UNL     1      -0.017   1.380   0.010  0.00  0.00    -0.286 N 
ATOM     13  C   UNL     1       1.228   1.903   0.001  0.00  0.00    +0.212 C 
ATOM     14  O   UNL     1       1.516   3.081   0.004  0.00  0.00    -0.277 OA
ATOM     15  C   UNL     1       2.772   2.022  -2.099  0.00  0.00    +0.243 C 
ATOM     16  O   UNL     1       3.559   1.993  -3.294  0.00  0.00    -0.490 OA
ATOM     17  C   UNL     1       3.437   0.904  -4.092  0.00  0.00    +0.131 A 
ATOM     18  C   UNL     1       3.614   1.013  -5.463  0.00  0.00    +0.046 A 
ATOM     19  C   UNL     1       3.493  -0.104  -6.265  0.00  0.00    +0.004 A 
ATOM     20  C   UNL     1       3.196  -1.341  -5.713  0.00  0.00    +0.001 A 
ATOM     21  C   UNL     1       3.015  -1.471  -4.353  0.00  0.00    +0.015 A 
ATOM     22  C   UNL     1       3.134  -0.348  -3.531  0.00  0.00    +0.060 A 
ATOM     23  C   UNL     1       2.944  -0.454  -2.076  0.00  0.00    +0.176 C 
ATOM     24  O   UNL     1       2.674  -1.517  -1.558  0.00  0.00    -0.291 OA
ATOM     25  H   UNL     1      -0.828   1.911   0.017  0.00  0.00    +0.155 HD
ATOM     26  N   UNL     1       3.080   0.777   1.148  0.00  0.00    +0.391 N 
ATOM     27  H   UNL     1       3.289  -0.179   1.456  0.00  0.00    -0.080 HD
ENDROOT
BRANCH   3  28
ATOM     28  C   UNL     1       5.351   1.854  -1.528  0.00  0.00    -0.008 A 
ATOM     29  C   UNL     1       6.538   1.648  -2.150  0.00  0.00    +0.011 A 
ATOM     30  C   UNL     1       7.111   2.685  -2.862  0.00  0.00    +0.008 A 
ATOM     31  C   UNL     1       6.474   3.881  -2.908  0.00  0.00    +0.045 A 
ATOM     32  S   UNL     1       5.015   3.560  -1.931  0.00  0.00    -0.101 S 
ENDBRANCH   3  28
TORSDOF 1
