REMARK  Name = ZINC10050368
REMARK  11 active torsions:
REMARK  status: ('A' for Active; 'I' for Inactive)
REMARK    1  A    between atoms: C_1  and  C_2
REMARK    2  A    between atoms: C_4  and  C_35
REMARK    3  A    between atoms: C_5  and  C_34
REMARK    4  A    between atoms: C_6  and  S_9
REMARK    5  A    between atoms: C_7  and  C_8
REMARK    6  A    between atoms: S_9  and  N_12
REMARK    7  A    between atoms: C_15  and  C_18
REMARK    8  A    between atoms: N_20  and  C_21
REMARK    9  A    between atoms: C_21  and  C_22
REMARK   10  A    between atoms: C_22  and  C_24
REMARK   11  A    between atoms: C_22  and  N_74
REMARK                            x       y       z     vdW  Elec       q    Type
REMARK                         _______ _______ _______ _____ _____    ______ ____
ROOT
ATOM      1  N   UNL     1      -3.808   1.128   0.715  0.00  0.00    -0.177 NA
ATOM      2  C   UNL     1      -4.427   0.172  -0.213  0.00  0.00    +0.110 C 
ATOM      3  C   UNL     1      -3.407  -0.920  -0.549  0.00  0.00    +0.030 C 
ATOM      4  C   UNL     1      -2.126  -0.272  -1.077  0.00  0.00    +0.077 C 
ATOM      5  C   UNL     1      -1.527   0.633   0.003  0.00  0.00    +0.030 C 
ATOM      6  C   UNL     1      -2.526   1.743   0.345  0.00  0.00    +0.110 C 
ENDROOT
BRANCH   4   7
ATOM      7  C   UNL     1      -1.132  -1.345  -1.440  0.00  0.00    +0.216 C 
ATOM      8  O   UNL     1      -1.421  -2.514  -1.291  0.00  0.00    -0.276 OA
ATOM      9  N   UNL     1       0.075  -1.007  -1.935  0.00  0.00    -0.316 N 
ATOM     10  H   UNL     1       0.305  -0.072  -2.054  0.00  0.00    +0.149 HD
BRANCH   9  11
ATOM     11  C   UNL     1       1.038  -2.050  -2.293  0.00  0.00    +0.093 C 
BRANCH  11  12
ATOM     12  C   UNL     1       2.317  -1.402  -2.826  0.00  0.00    -0.020 C 
BRANCH  12  13
ATOM     13  C   UNL     1       3.353  -2.468  -3.080  0.00  0.00    -0.059 A 
ATOM     14  C   UNL     1       4.165  -2.391  -4.195  0.00  0.00    +0.002 A 
ATOM     15  C   UNL     1       5.118  -3.366  -4.425  0.00  0.00    +0.000 A 
ATOM     16  C   UNL     1       5.251  -4.423  -3.545  0.00  0.00    +0.000 A 
ATOM     17  C   UNL     1       4.435  -4.503  -2.432  0.00  0.00    +0.000 A 
ATOM     18  C   UNL     1       3.486  -3.525  -2.199  0.00  0.00    +0.002 A 
ENDBRANCH  12  13
BRANCH  12  23
ATOM     19  C   UNL     1       3.273  -1.144  -0.602  0.00  0.00    -0.078 C 
ATOM     20  C   UNL     1       4.227  -0.119   0.062  0.00  0.00    -0.020 C 
ATOM     21  C   UNL     1       4.953   0.512  -1.148  0.00  0.00    -0.020 C 
ATOM     22  C   UNL     1       4.025   0.260  -2.351  0.00  0.00    -0.078 C 
ATOM     23  N   UNL     1       2.851  -0.435  -1.820  0.00  0.00    +0.385 N 
ATOM     24  H   UNL     1       2.119   0.247  -1.589  0.00  0.00    -0.081 HD
ENDBRANCH  12  23
ENDBRANCH  11  12
ENDBRANCH   9  11
ENDBRANCH   4   7
BRANCH   1  25
ATOM     25  S   UNL     1      -4.542   1.506   2.151  0.00  0.00    +0.061 S 
ATOM     26  O   UNL     1      -4.129   2.824   2.483  0.00  0.00    -0.153 OA
ATOM     27  O   UNL     1      -5.911   1.148   2.014  0.00  0.00    -0.153 OA
BRANCH  25  33
ATOM     28  C   UNL     1      -1.273   0.577   6.122  0.00  0.00    +0.044 C 
ATOM     29  C   UNL     1      -2.346   0.070   5.193  0.00  0.00    -0.045 A 
ATOM     30  C   UNL     1      -2.798  -1.232   5.306  0.00  0.00    +0.007 A 
ATOM     31  C   UNL     1      -3.783  -1.697   4.454  0.00  0.00    -0.045 A 
ATOM     32  C   UNL     1      -4.316  -0.861   3.491  0.00  0.00    -0.021 A 
ATOM     33  C   UNL     1      -3.864   0.441   3.379  0.00  0.00    +0.112 A 
ATOM     34  C   UNL     1      -2.875   0.904   4.227  0.00  0.00    -0.021 A 
ATOM     35  C   UNL     1      -2.378   2.321   4.101  0.00  0.00    +0.046 C 
ATOM     36  C   UNL     1      -5.389  -1.369   2.562  0.00  0.00    +0.046 C 
ATOM     37  C   UNL     1      -4.276  -3.116   4.577  0.00  0.00    +0.044 C 
ENDBRANCH  25  33
ENDBRANCH   1  25
TORSDOF 7
