REMARK  Name = ZINC36579377
REMARK  14 active torsions:
REMARK  status: ('A' for Active; 'I' for Inactive)
REMARK    1  A    between atoms: C_1  and  C_2
REMARK    2  A    between atoms: C_2  and  C_3
REMARK    3  A    between atoms: C_2  and  C_4
REMARK    4  A    between atoms: C_2  and  N_5
REMARK    5  A    between atoms: C_6  and  C_8
REMARK    6  A    between atoms: C_8  and  C_10
REMARK    7  A    between atoms: C_8  and  N_19
REMARK    8  A    between atoms: N_19  and  C_36
REMARK    9  A    between atoms: C_20  and  C_22
REMARK   10  A    between atoms: C_22  and  C_30
REMARK   11  A    between atoms: C_23  and  C_24
REMARK   12  A    between atoms: C_36  and  C_37
REMARK   13  A    between atoms: C_36  and  C_38
REMARK   14  A    between atoms: C_36  and  C_39
REMARK                            x       y       z     vdW  Elec       q    Type
REMARK                         _______ _______ _______ _____ _____    ______ ____
ROOT
ATOM      1  N   UNL     1       3.944  -0.399  -3.579  0.00  0.00    -0.277 N 
ATOM      2  C   UNL     1       4.745  -1.257  -4.241  0.00  0.00    +0.248 C 
ATOM      3  O   UNL     1       5.896  -1.416  -3.880  0.00  0.00    -0.270 OA
ENDROOT
BRANCH   1   4
ATOM      4  C   UNL     1       4.298   0.038  -2.226  0.00  0.00    +0.030 C 
ATOM      5  C   UNL     1       3.152   0.868  -1.642  0.00  0.00    +0.031 C 
ATOM      6  C   UNL     1       4.543  -1.186  -1.342  0.00  0.00    +0.031 C 
ATOM      7  C   UNL     1       5.567   0.890  -2.281  0.00  0.00    +0.031 C 
ENDBRANCH   1   4
BRANCH   2   8
ATOM      8  C   UNL     1       4.229  -2.001  -5.401  0.00  0.00    +0.045 C 
ATOM      9  C   UNL     1       5.090  -2.635  -6.240  0.00  0.00    +0.021 C 
BRANCH   9  10
ATOM     10  C   UNL     1       4.571  -3.444  -7.352  0.00  0.00    -0.024 A 
ATOM     11  C   UNL     1       5.263  -3.497  -8.567  0.00  0.00    +0.008 A 
ATOM     12  C   UNL     1       4.770  -4.258  -9.605  0.00  0.00    +0.001 A 
ATOM     13  C   UNL     1       3.592  -4.969  -9.447  0.00  0.00    +0.000 A 
ATOM     14  C   UNL     1       2.901  -4.922  -8.249  0.00  0.00    +0.001 A 
ATOM     15  C   UNL     1       3.384  -4.170  -7.199  0.00  0.00    +0.008 A 
ENDBRANCH   9  10
BRANCH   8  16
ATOM     16  C   UNL     1       2.771  -2.057  -5.654  0.00  0.00    -0.013 A 
ATOM     17  C   UNL     1       2.277  -1.876  -6.947  0.00  0.00    +0.008 A 
ATOM     18  C   UNL     1       0.918  -1.930  -7.176  0.00  0.00    +0.001 A 
ATOM     19  C   UNL     1       0.045  -2.163  -6.128  0.00  0.00    +0.000 A 
ATOM     20  C   UNL     1       0.528  -2.343  -4.845  0.00  0.00    +0.001 A 
ATOM     21  C   UNL     1       1.886  -2.297  -4.603  0.00  0.00    +0.008 A 
ENDBRANCH   8  16
ENDBRANCH   2   8
BRANCH   1  22
ATOM     22  C   UNL     1       2.719   0.096  -4.212  0.00  0.00    +0.193 C 
BRANCH  22  23
ATOM     23  C   UNL     1       2.927   1.517  -4.666  0.00  0.00    -0.014 A 
ATOM     24  C   UNL     1       3.626   2.402  -3.866  0.00  0.00    +0.010 A 
ATOM     25  C   UNL     1       3.820   3.707  -4.279  0.00  0.00    +0.050 A 
ATOM     26  C   UNL     1       3.313   4.132  -5.496  0.00  0.00    +0.166 A 
ATOM     27  C   UNL     1       2.609   3.241  -6.302  0.00  0.00    +0.167 A 
ATOM     28  C   UNL     1       2.423   1.933  -5.884  0.00  0.00    +0.055 A 
ATOM     29  O   UNL     1       2.217   3.893  -7.435  0.00  0.00    -0.453 OA
ATOM     30  C   UNL     1       2.335   5.296  -7.131  0.00  0.00    +0.466 C 
ATOM     31  O   UNL     1       3.363   5.342  -6.124  0.00  0.00    -0.453 OA
ENDBRANCH  22  23
BRANCH  22  33
ATOM     32  N   UNL     1       0.589   0.951  -3.289  0.00  0.00    -0.309 N 
ATOM     33  C   UNL     1       1.586   0.046  -3.219  0.00  0.00    +0.239 C 
ATOM     34  O   UNL     1       1.571  -0.807  -2.358  0.00  0.00    -0.273 OA
ATOM     35  H   UNL     1       0.601   1.633  -3.978  0.00  0.00    +0.149 HD
BRANCH  32  37
ATOM     36  C   UNL     1       0.041   1.072  -0.909  0.00  0.00    +0.031 C 
ATOM     37  C   UNL     1      -0.513   0.902  -2.325  0.00  0.00    +0.026 C 
ATOM     38  C   UNL     1      -1.228  -0.446  -2.434  0.00  0.00    +0.031 C 
ATOM     39  C   UNL     1      -1.502   2.031  -2.623  0.00  0.00    +0.031 C 
ENDBRANCH  32  37
ENDBRANCH  22  33
ENDBRANCH   1  22
TORSDOF 8
