REMARK  Name = ZINC35542154
REMARK  9 active torsions:
REMARK  status: ('A' for Active; 'I' for Inactive)
REMARK    1  A    between atoms: C_1  and  C_2
REMARK    2  A    between atoms: C_2  and  C_3
REMARK    3  A    between atoms: C_8  and  N_9
REMARK    4  A    between atoms: C_25  and  C_27
REMARK    5  A    between atoms: C_27  and  C_28
REMARK    6  A    between atoms: C_28  and  C_29
REMARK    7  A    between atoms: C_28  and  C_30
REMARK    8  A    between atoms: N_32  and  C_35
REMARK    9  A    between atoms: C_35  and  C_36
REMARK                            x       y       z     vdW  Elec       q    Type
REMARK                         _______ _______ _______ _____ _____    ______ ____
ROOT
ATOM      1  N   UNL     1       2.645  -2.517   0.673  0.00  0.00    -0.269 N 
ATOM      2  C   UNL     1       3.167  -1.281   0.797  0.00  0.00    +0.307 C 
ATOM      3  O   UNL     1       2.918  -0.430  -0.035  0.00  0.00    -0.252 OA
ATOM      4  N   UNL     1       3.965  -0.988   1.843  0.00  0.00    -0.282 N 
ATOM      5  C   UNL     1       4.378  -2.037   2.786  0.00  0.00    +0.128 C 
ATOM      6  C   UNL     1       5.910  -2.051   2.862  0.00  0.00    +0.125 C 
ATOM      7  N   UNL     1       6.382  -0.677   3.080  0.00  0.00    -0.312 N 
ATOM      8  C   UNL     1       5.969   0.372   2.138  0.00  0.00    +0.125 C 
ATOM      9  C   UNL     1       4.442   0.386   2.058  0.00  0.00    +0.128 C 
ATOM     10  C   UNL     1       7.201  -0.376   4.154  0.00  0.00    +0.133 A 
ATOM     11  C   UNL     1       8.608  -0.567   4.063  0.00  0.00    +0.051 A 
ATOM     12  C   UNL     1       9.396  -1.068   2.938  0.00  0.00    -0.022 A 
ATOM     13  C   UNL     1      10.731  -1.154   3.113  0.00  0.00    +0.010 A 
ATOM     14  S   UNL     1      11.018  -0.579   4.763  0.00  0.00    -0.072 S 
ATOM     15  C   UNL     1       9.340  -0.226   5.218  0.00  0.00    +0.114 A 
ATOM     16  N   UNL     1       8.744   0.237   6.300  0.00  0.00    -0.225 NA
ATOM     17  C   UNL     1       7.435   0.392   6.325  0.00  0.00    +0.133 A 
ATOM     18  N   UNL     1       6.686   0.098   5.277  0.00  0.00    -0.217 NA
ATOM     19  C   UNL     1      11.734  -1.637   2.111  0.00  0.00    +0.127 C 
ATOM     20  N   UNL     1      11.010  -2.338   1.034  0.00  0.00    -0.298 NA
ATOM     21  C   UNL     1       9.885  -1.524   0.553  0.00  0.00    +0.089 C 
ATOM     22  C   UNL     1       8.775  -1.485   1.607  0.00  0.00    +0.052 C 
ATOM     23  H   UNL     1       2.792  -3.177   1.369  0.00  0.00    +0.156 HD
ENDROOT
BRANCH   1  29
ATOM     24  C   UNL     1       1.888  -4.152  -0.935  0.00  0.00    -0.026 A 
ATOM     25  C   UNL     1       1.139  -4.478  -2.049  0.00  0.00    +0.005 A 
ATOM     26  C   UNL     1       0.397  -3.505  -2.692  0.00  0.00    +0.000 A 
ATOM     27  C   UNL     1       0.403  -2.203  -2.224  0.00  0.00    +0.002 A 
ATOM     28  C   UNL     1       1.150  -1.872  -1.111  0.00  0.00    +0.023 A 
ATOM     29  C   UNL     1       1.891  -2.848  -0.458  0.00  0.00    +0.038 A 
BRANCH  24  31
ATOM     30  C   UNL     1       1.884  -5.792   0.926  0.00  0.00    +0.009 C 
ATOM     31  C   UNL     1       2.697  -5.214  -0.234  0.00  0.00    +0.033 C 
ENDBRANCH  24  31
ENDBRANCH   1  29
BRANCH  20  32
ATOM     32  C   UNL     1      11.916  -2.688  -0.068  0.00  0.00    +0.081 C 
ATOM     33  C   UNL     1      12.934  -3.721   0.418  0.00  0.00    +0.020 C 
ENDBRANCH  20  32
BRANCH  17  34
ATOM     34  C   UNL     1       6.779   0.922   7.574  0.00  0.00    +0.079 C 
BRANCH  34  35
ATOM     35  C   UNL     1       6.707   2.449   7.504  0.00  0.00    -0.010 C 
ATOM     36  C   UNL     1       5.931   2.978   8.711  0.00  0.00    +0.007 C 
ATOM     37  C   UNL     1       8.124   3.026   7.514  0.00  0.00    +0.007 C 
ENDBRANCH  34  35
ENDBRANCH  17  34
TORSDOF 5
