REMARK  Name = ZINC40567342
REMARK  9 active torsions:
REMARK  status: ('A' for Active; 'I' for Inactive)
REMARK    1  A    between atoms: C_1  and  C_2
REMARK    2  A    between atoms: C_5  and  C_11
REMARK    3  A    between atoms: C_7  and  N_8
REMARK    4  A    between atoms: C_14  and  C_16
REMARK    5  A    between atoms: N_20  and  C_24
REMARK    6  A    between atoms: C_24  and  C_26
REMARK    7  A    between atoms: C_24  and  C_31
REMARK    8  A    between atoms: C_26  and  C_27
REMARK    9  A    between atoms: C_27  and  C_28
REMARK                            x       y       z     vdW  Elec       q    Type
REMARK                         _______ _______ _______ _____ _____    ______ ____
ROOT
ATOM      1  C   UNL     1       1.434  -7.296   1.355  0.00  0.00    +0.066 C 
ATOM      2  C   UNL     1       1.661  -7.104   2.728  0.00  0.00    +0.080 C 
ATOM      3  C   UNL     1       2.062  -8.104   3.757  0.00  0.00    +0.259 C 
ATOM      4  O   UNL     1       2.243  -9.272   3.482  0.00  0.00    -0.269 OA
ATOM      5  N   UNL     1       2.208  -7.643   4.991  0.00  0.00    -0.241 N 
ATOM      6  C   UNL     1       1.991  -6.334   5.226  0.00  0.00    +0.121 C 
ATOM      7  S   UNL     1       2.110  -5.492   6.713  0.00  0.00    -0.027 S 
ATOM      8  S   UNL     1       1.558  -5.684   3.625  0.00  0.00    -0.061 S 
ENDROOT
BRANCH   1  12
ATOM      9  C   UNL     1       0.548  -4.189  -0.094  0.00  0.00    +0.136 A 
ATOM     10  C   UNL     1       0.482  -4.993  -1.251  0.00  0.00    +0.050 A 
ATOM     11  C   UNL     1       0.801  -6.265  -0.885  0.00  0.00    +0.050 A 
ATOM     12  C   UNL     1       1.071  -6.224   0.555  0.00  0.00    +0.130 A 
ATOM     13  O   UNL     1       0.904  -4.944   0.958  0.00  0.00    -0.455 OA
BRANCH   9  18
ATOM     14  C   UNL     1      -0.517   1.451   0.085  0.00  0.00    +0.046 C 
ATOM     15  C   UNL     1      -0.238  -0.029   0.038  0.00  0.00    -0.020 A 
ATOM     16  C   UNL     1      -0.342  -0.712  -1.165  0.00  0.00    +0.006 A 
ATOM     17  C   UNL     1      -0.089  -2.063  -1.219  0.00  0.00    +0.012 A 
ATOM     18  C   UNL     1       0.277  -2.752  -0.049  0.00  0.00    +0.019 A 
ATOM     19  C   UNL     1       0.380  -2.050   1.165  0.00  0.00    +0.044 A 
ATOM     20  C   UNL     1       0.128  -0.697   1.196  0.00  0.00    +0.130 A 
BRANCH  20  21
ATOM     21  N   UNL     1       0.241   0.045   2.471  0.00  0.00    +0.057 N 
ATOM     22  O   UNL     1       0.714   1.274   2.478  0.00  0.00    -0.126 OA
ATOM     23  O   UNL     1      -0.131  -0.524   3.600  0.00  0.00    -0.126 OA
ENDBRANCH  20  21
ENDBRANCH   9  18
ENDBRANCH   1  12
BRANCH   5  24
ATOM     24  C   UNL     1       2.599  -8.542   6.080  0.00  0.00    +0.196 C 
BRANCH  24  25
ATOM     25  C   UNL     1       3.897  -8.068   6.681  0.00  0.00    +0.376 C 
ATOM     26  O   UNL     1       4.352  -6.981   6.369  0.00  0.00    -0.244 OA
ATOM     27  O   UNL     1       4.493  -8.773   7.478  0.00  0.00    -0.244 OA
ENDBRANCH  24  25
BRANCH  24  28
ATOM     28  C   UNL     1       1.510  -8.543   7.156  0.00  0.00    +0.046 C 
BRANCH  28  29
ATOM     29  C   UNL     1       0.225  -9.141   6.579  0.00  0.00    +0.127 C 
BRANCH  29  30
ATOM     30  C   UNL     1      -0.847  -9.142   7.638  0.00  0.00    +0.356 C 
ATOM     31  O   UNL     1      -0.606  -8.705   8.751  0.00  0.00    -0.246 OA
ATOM     32  O   UNL     1      -1.956  -9.579   7.383  0.00  0.00    -0.246 OA
ENDBRANCH  29  30
ENDBRANCH  28  29
ENDBRANCH  24  28
ENDBRANCH   5  24
TORSDOF 8
