REMARK  Name = ZINC43287149
REMARK  7 active torsions:
REMARK  status: ('A' for Active; 'I' for Inactive)
REMARK    1  A    between atoms: C_1  and  C_2
REMARK    2  A    between atoms: C_2  and  C_3
REMARK    3  A    between atoms: C_3  and  C_5
REMARK    4  A    between atoms: C_3  and  N_23
REMARK    5  A    between atoms: C_5  and  C_7
REMARK    6  A    between atoms: C_5  and  N_13
REMARK    7  A    between atoms: C_18  and  C_20
REMARK                            x       y       z     vdW  Elec       q    Type
REMARK                         _______ _______ _______ _____ _____    ______ ____
ROOT
ATOM      1  C   UNL     1       1.146  -2.741   1.677  0.00  0.00    -0.045 C 
ENDROOT
BRANCH   1   2
ATOM      2  N   UNL     1       1.534  -2.847   0.264  0.00  0.00    +0.391 N 
ATOM      3  C   UNL     1       2.997  -2.792   0.154  0.00  0.00    -0.077 C 
ATOM      4  C   UNL     1       3.403  -2.821  -1.321  0.00  0.00    -0.019 C 
ATOM      5  C   UNL     1       2.890  -4.114  -1.960  0.00  0.00    -0.003 C 
ATOM      6  C   UNL     1       1.372  -4.197  -1.774  0.00  0.00    -0.006 C 
ATOM      7  C   UNL     1       1.041  -4.117  -0.283  0.00  0.00    +0.020 C 
ATOM      8  H   UNL     1       1.130  -2.080  -0.253  0.00  0.00    -0.080 HD
BRANCH   7   9
ATOM      9  C   UNL     1      -0.452  -4.199  -0.095  0.00  0.00    +0.197 C 
ATOM     10  O   UNL     1      -1.115  -3.184  -0.063  0.00  0.00    -0.278 OA
ATOM     11  N   UNL     1      -1.050  -5.400   0.038  0.00  0.00    -0.331 N 
ATOM     12  H   UNL     1      -0.513  -6.206   0.086  0.00  0.00    +0.145 HD
ATOM     13  H   UNL     1      -2.017  -5.457   0.085  0.00  0.00    +0.145 HD
ENDBRANCH   7   9
ENDBRANCH   1   2
BRANCH   1  14
ATOM     14  C   UNL     1       1.729  -3.897   2.447  0.00  0.00    -0.024 A 
ATOM     15  C   UNL     1       1.093  -4.832   3.194  0.00  0.00    +0.024 A 
ATOM     16  C   UNL     1       1.841  -5.814   3.818  0.00  0.00    +0.025 A 
ATOM     17  C   UNL     1       3.188  -5.812   3.664  0.00  0.00    +0.060 A 
ATOM     18  S   UNL     1       3.436  -4.397   2.604  0.00  0.00    -0.102 S 
ATOM     19 BR   UNL     1       0.998  -7.139   4.872  0.00  0.00    -0.050 Br
ENDBRANCH   1  14
BRANCH   1  20
ATOM     20  C   UNL     1       1.675  -1.426   2.253  0.00  0.00    -0.085 C 
BRANCH  20  21
ATOM     21  N   UNL     1       1.235  -1.291   3.648  0.00  0.00    +0.379 N 
ATOM     22  H   UNL     1       1.592  -2.063   4.190  0.00  0.00    -0.090 HD
ATOM     23  H   UNL     1       1.584  -0.424   4.028  0.00  0.00    -0.090 HD
ATOM     24  H   UNL     1       0.227  -1.292   3.685  0.00  0.00    -0.090 HD
ENDBRANCH  20  21
BRANCH  20  26
ATOM     25  C   UNL     1       1.776   1.048   1.915  0.00  0.00    +0.002 C 
ATOM     26  C   UNL     1       1.134  -0.254   1.432  0.00  0.00    -0.021 C 
ENDBRANCH  20  26
ENDBRANCH   1  20
TORSDOF 6
