REMARK  Name = ZINC04259462
REMARK  10 active torsions:
REMARK  status: ('A' for Active; 'I' for Inactive)
REMARK    1  A    between atoms: C_1  and  C_2
REMARK    2  A    between atoms: C_5  and  C_8
REMARK    3  A    between atoms: C_8  and  O_10
REMARK    4  A    between atoms: O_10  and  C_11
REMARK    5  A    between atoms: C_16  and  C_17
REMARK    6  A    between atoms: N_18  and  N_19
REMARK    7  A    between atoms: C_20  and  C_22
REMARK    8  A    between atoms: C_22  and  O_23
REMARK    9  A    between atoms: O_23  and  C_24
REMARK   10  A    between atoms: C_28  and  C_30
REMARK                            x       y       z     vdW  Elec       q    Type
REMARK                         _______ _______ _______ _____ _____    ______ ____
ROOT
ATOM      1  C   UNL     1      -7.880  -3.870   0.240  0.00  0.00    +0.141 A 
ATOM      2  C   UNL     1      -9.192  -4.215   0.519  0.00  0.00    +0.048 A 
ATOM      3  C   UNL     1      -9.572  -5.544   0.535  0.00  0.00    +0.019 A 
ATOM      4  C   UNL     1      -8.646  -6.540   0.267  0.00  0.00    +0.019 A 
ATOM      5  C   UNL     1      -7.336  -6.213  -0.018  0.00  0.00    +0.028 A 
ATOM      6  C   UNL     1      -6.941  -4.874  -0.037  0.00  0.00    +0.038 A 
ATOM      7 BR   UNL     1      -9.181  -8.353   0.292  0.00  0.00    -0.050 Br
ENDROOT
BRANCH   6   8
ATOM      8  C   UNL     1      -5.544  -4.518  -0.340  0.00  0.00    +0.142 C 
ATOM      9  N   UNL     1      -5.193  -3.270  -0.415  0.00  0.00    -0.188 NA
BRANCH   9  10
ATOM     10  N   UNL     1      -3.893  -2.930  -0.811  0.00  0.00    -0.204 N 
ATOM     11  C   UNL     1      -3.503  -1.640  -0.807  0.00  0.00    +0.270 C 
ATOM     12  O   UNL     1      -4.302  -0.766  -0.544  0.00  0.00    -0.270 OA
ATOM     13  H   UNL     1      -3.274  -3.623  -1.089  0.00  0.00    +0.177 HD
BRANCH  11  14
ATOM     14  C   UNL     1      -2.074  -1.284  -1.128  0.00  0.00    +0.326 C 
BRANCH  14  15
ATOM     15  O   UNL     1      -1.910   0.134  -1.058  0.00  0.00    -0.483 OA
BRANCH  15  16
ATOM     16  C   UNL     1      -0.670   0.625  -1.323  0.00  0.00    +0.121 A 
ATOM     17  C   UNL     1       0.366  -0.240  -1.643  0.00  0.00    +0.045 A 
ATOM     18  C   UNL     1       1.623   0.261  -1.917  0.00  0.00    +0.004 A 
ATOM     19  C   UNL     1       1.851   1.624  -1.867  0.00  0.00    +0.003 A 
ATOM     20  C   UNL     1       0.822   2.488  -1.542  0.00  0.00    -0.047 A 
ATOM     21  C   UNL     1      -0.438   1.991  -1.268  0.00  0.00    +0.049 A 
ATOM     22  C   UNL     1       1.073   3.973  -1.489  0.00  0.00    +0.044 C 
ENDBRANCH  15  16
ENDBRANCH  14  15
ENDBRANCH  11  14
ENDBRANCH   9  10
ENDBRANCH   6   8
BRANCH   1  23
ATOM     23  O   UNL     1      -7.505  -2.565   0.230  0.00  0.00    -0.422 OA
BRANCH  23  24
ATOM     24  C   UNL     1      -7.549  -1.925  -0.956  0.00  0.00    +0.344 C 
ATOM     25  O   UNL     1      -7.809  -2.542  -1.969  0.00  0.00    -0.245 OA
BRANCH  24  30
ATOM     26  C   UNL     1      -6.507   3.727  -1.215  0.00  0.00    +0.044 C 
ATOM     27  C   UNL     1      -6.780   2.246  -1.147  0.00  0.00    -0.050 A 
ATOM     28  C   UNL     1      -7.068   1.545  -2.305  0.00  0.00    +0.004 A 
ATOM     29  C   UNL     1      -7.319   0.190  -2.250  0.00  0.00    +0.015 A 
ATOM     30  C   UNL     1      -7.281  -0.474  -1.022  0.00  0.00    +0.059 A 
ATOM     31  C   UNL     1      -6.994   0.240   0.143  0.00  0.00    +0.015 A 
ATOM     32  C   UNL     1      -6.740   1.594   0.073  0.00  0.00    +0.004 A 
ENDBRANCH  24  30
ENDBRANCH  23  24
ENDBRANCH   1  23
TORSDOF 8
