REMARK  Name = ZINC59018773
REMARK  8 active torsions:
REMARK  status: ('A' for Active; 'I' for Inactive)
REMARK    1  A    between atoms: C_1  and  O_2
REMARK    2  A    between atoms: O_2  and  C_3
REMARK    3  A    between atoms: C_8  and  C_9
REMARK    4  A    between atoms: N_10  and  N_11
REMARK    5  A    between atoms: C_14  and  S_17
REMARK    6  A    between atoms: S_17  and  C_18
REMARK    7  A    between atoms: C_18  and  C_19
REMARK    8  A    between atoms: C_19  and  C_21
REMARK                            x       y       z     vdW  Elec       q    Type
REMARK                         _______ _______ _______ _____ _____    ______ ____
ROOT
ATOM      1  N   UNL     1      -0.422  -2.973   2.336  0.00  0.00    -0.205 N 
ATOM      2  C   UNL     1      -1.125  -2.375   3.366  0.00  0.00    +0.232 A 
ATOM      3  N   UNL     1      -1.431  -1.098   3.455  0.00  0.00    -0.186 NA
ATOM      4  C   UNL     1      -2.114  -0.877   4.583  0.00  0.00    +0.210 A 
ATOM      5  N   UNL     1      -2.252  -2.012   5.227  0.00  0.00    -0.144 NA
ATOM      6  N   UNL     1      -1.623  -3.001   4.454  0.00  0.00    -0.245 N 
ATOM      7  H   UNL     1      -0.248  -3.927   2.356  0.00  0.00    +0.177 HD
ATOM      8  H   UNL     1      -1.557  -3.946   4.661  0.00  0.00    +0.192 HD
ENDROOT
BRANCH   1  10
ATOM      9  C   UNL     1       0.700  -2.760   0.295  0.00  0.00    +0.142 C 
ATOM     10  N   UNL     1       0.040  -2.200   1.262  0.00  0.00    -0.187 NA
BRANCH   9  16
ATOM     11  C   UNL     1       0.936  -0.569  -0.868  0.00  0.00    +0.129 A 
ATOM     12  C   UNL     1       1.402   0.187  -1.932  0.00  0.00    +0.046 A 
ATOM     13  C   UNL     1       2.104  -0.417  -2.957  0.00  0.00    +0.004 A 
ATOM     14  C   UNL     1       2.347  -1.780  -2.931  0.00  0.00    +0.001 A 
ATOM     15  C   UNL     1       1.891  -2.547  -1.880  0.00  0.00    +0.013 A 
ATOM     16  C   UNL     1       1.185  -1.947  -0.835  0.00  0.00    +0.036 A 
BRANCH  11  18
ATOM     17  C   UNL     1       0.031   1.434   0.037  0.00  0.00    +0.277 C 
ATOM     18  O   UNL     1       0.246   0.025   0.140  0.00  0.00    -0.494 OA
ENDBRANCH  11  18
ENDBRANCH   9  16
ENDBRANCH   1  10
BRANCH   4  19
ATOM     19  S   UNL     1      -2.729   0.685   5.119  0.00  0.00    -0.077 S 
BRANCH  19  20
ATOM     20  C   UNL     1      -3.549   0.317   6.694  0.00  0.00    +0.152 C 
BRANCH  20  21
ATOM     21  C   UNL     1      -4.126   1.585   7.268  0.00  0.00    +0.147 C 
ATOM     22  O   UNL     1      -3.998   2.630   6.675  0.00  0.00    -0.296 OA
BRANCH  21  23
ATOM     23  C   UNL     1      -4.864   1.551   8.582  0.00  0.00    +0.062 C 
ATOM     24  C   UNL     1      -6.239   0.912   8.378  0.00  0.00    +0.000 C 
ATOM     25  C   UNL     1      -6.988   0.877   9.711  0.00  0.00    +0.007 C 
ATOM     26  C   UNL     1      -7.161   2.303  10.237  0.00  0.00    -0.010 C 
ATOM     27  C   UNL     1      -7.960   3.126   9.225  0.00  0.00    +0.007 C 
ATOM     28  C   UNL     1      -7.212   3.162   7.891  0.00  0.00    -0.010 C 
ATOM     29  C   UNL     1      -7.039   1.735   7.366  0.00  0.00    +0.007 C 
ATOM     30  C   UNL     1      -5.836   3.800   8.095  0.00  0.00    +0.007 C 
ATOM     31  C   UNL     1      -5.037   2.977   9.107  0.00  0.00    +0.000 C 
ATOM     32  C   UNL     1      -5.786   2.942  10.441  0.00  0.00    +0.007 C 
ENDBRANCH  21  23
ENDBRANCH  20  21
ENDBRANCH  19  20
ENDBRANCH   4  19
TORSDOF 7
