REMARK  Name = ZINC20911095
REMARK  13 active torsions:
REMARK  status: ('A' for Active; 'I' for Inactive)
REMARK    1  A    between atoms: C_1  and  C_2
REMARK    2  A    between atoms: C_2  and  C_3
REMARK    3  A    between atoms: C_2  and  N_4
REMARK    4  A    between atoms: C_6  and  C_9
REMARK    5  A    between atoms: N_10  and  N_11
REMARK    6  A    between atoms: C_14  and  S_17
REMARK    7  A    between atoms: S_17  and  C_18
REMARK    8  A    between atoms: C_18  and  C_19
REMARK    9  A    between atoms: C_19  and  C_20
REMARK   10  A    between atoms: N_22  and  C_23
REMARK   11  A    between atoms: C_24  and  C_31
REMARK   12  A    between atoms: C_31  and  O_33
REMARK   13  A    between atoms: O_33  and  C_34
REMARK                            x       y       z     vdW  Elec       q    Type
REMARK                         _______ _______ _______ _____ _____    ______ ____
ROOT
ATOM      1  S   UNL     1      -3.226  -8.120  -0.013  0.00  0.00    -0.084 S 
ENDROOT
BRANCH   1   5
ATOM      2  N   UNL     1      -2.130  -3.029   0.005  0.00  0.00    -0.205 N 
ATOM      3  C   UNL     1      -1.958  -4.405  -0.004  0.00  0.00    +0.232 A 
ATOM      4  N   UNL     1      -2.956  -5.340   0.001  0.00  0.00    -0.186 NA
ATOM      5  C   UNL     1      -2.375  -6.577  -0.011  0.00  0.00    +0.210 A 
ATOM      6  N   UNL     1      -1.074  -6.414  -0.022  0.00  0.00    -0.144 NA
ATOM      7  N   UNL     1      -0.810  -5.038  -0.023  0.00  0.00    -0.245 N 
ATOM      8  H   UNL     1      -3.144  -2.601   0.017  0.00  0.00    +0.177 HD
ATOM      9  H   UNL     1       0.131  -4.469  -0.037  0.00  0.00    +0.192 HD
BRANCH   2  11
ATOM     10  C   UNL     1      -1.175  -0.895   0.008  0.00  0.00    +0.141 C 
ATOM     11  N   UNL     1      -1.014  -2.183  -0.000  0.00  0.00    -0.187 NA
BRANCH  10  14
ATOM     12  N   UNL     1       1.265   1.794  -0.000  0.00  0.00    -0.268 N 
ATOM     13  C   UNL     1      -0.017   1.374   0.010  0.00  0.00    +0.118 A 
ATOM     14  C   UNL     1       0.002  -0.004   0.002  0.00  0.00    +0.032 A 
ATOM     15  C   UNL     1       1.355  -0.405  -0.013  0.00  0.00    +0.143 A 
ATOM     16  N   UNL     1       2.098   0.669  -0.014  0.00  0.00    -0.179 NA
BRANCH  12  18
ATOM     17  C   UNL     1       1.730   3.722  -1.432  0.00  0.00    +0.032 C 
ATOM     18  C   UNL     1       1.709   3.190   0.003  0.00  0.00    +0.101 C 
ATOM     19  C   UNL     1       0.746   4.030   0.844  0.00  0.00    +0.032 C 
ENDBRANCH  12  18
ENDBRANCH  10  14
ENDBRANCH   2  11
ENDBRANCH   1   5
BRANCH   1  20
ATOM     20  C   UNL     1      -1.896  -9.354  -0.031  0.00  0.00    +0.086 C 
BRANCH  20  21
ATOM     21  C   UNL     1      -2.504 -10.758  -0.034  0.00  0.00    +0.107 C 
BRANCH  21  22
ATOM     22  C   UNL     1      -1.399 -11.783  -0.049  0.00  0.00    +0.218 C 
ATOM     23  O   UNL     1      -0.240 -11.426  -0.057  0.00  0.00    -0.275 OA
ATOM     24  N   UNL     1      -1.699 -13.097  -0.054  0.00  0.00    -0.279 N 
ATOM     25  H   UNL     1      -2.750 -13.421  -0.047  0.00  0.00    +0.155 HD
BRANCH  24  26
ATOM     26  C   UNL     1      -0.683 -14.040  -0.068  0.00  0.00    +0.086 A 
ATOM     27  C   UNL     1      -0.790 -15.421  -0.069  0.00  0.00    +0.091 A 
ATOM     28  C   UNL     1       0.450 -16.196  -0.090  0.00  0.00    -0.021 A 
ATOM     29  C   UNL     1       1.579 -15.466  -0.096  0.00  0.00    -0.004 A 
ATOM     30  S   UNL     1       1.027 -13.778  -0.081  0.00  0.00    -0.077 S 
ATOM     31  C   UNL     1       2.811 -16.331  -0.114  0.00  0.00    +0.043 C 
ATOM     32  C   UNL     1       2.303 -17.721  -0.556  0.00  0.00    +0.010 C 
ATOM     33  C   UNL     1       0.831 -17.677  -0.100  0.00  0.00    +0.037 C 
BRANCH  27  34
ATOM     34  C   UNL     1      -2.098 -16.081  -0.055  0.00  0.00    +0.342 C 
ATOM     35  O   UNL     1      -2.653 -16.354  -1.103  0.00  0.00    -0.245 OA
BRANCH  34  36
ATOM     36  O   UNL     1      -2.686 -16.387   1.119  0.00  0.00    -0.464 OA
ATOM     37  C   UNL     1      -3.981 -17.040   1.057  0.00  0.00    +0.280 C 
ENDBRANCH  34  36
ENDBRANCH  27  34
ENDBRANCH  24  26
ENDBRANCH  21  22
ENDBRANCH  20  21
ENDBRANCH   1  20
TORSDOF 10
