REMARK  Name = ZINC09356679
REMARK  4 active torsions:
REMARK  status: ('A' for Active; 'I' for Inactive)
REMARK    1  A    between atoms: C_4  and  N_7
REMARK    2  A    between atoms: C_22  and  C_28
REMARK    3  A    between atoms: N_30  and  C_31
REMARK    4  A    between atoms: C_35  and  N_37
REMARK                            x       y       z     vdW  Elec       q    Type
REMARK                         _______ _______ _______ _____ _____    ______ ____
ROOT
ATOM      1  N   UNL     1      -0.512   6.520  -1.704  0.00  0.00    -0.210 N 
ATOM      2  C   UNL     1       0.444   5.815  -1.008  0.00  0.00    +0.232 C 
ATOM      3  O   UNL     1       1.593   6.135  -0.792  0.00  0.00    -0.274 OA
ATOM      4  C   UNL     1      -0.237   4.595  -0.585  0.00  0.00    +0.113 C 
ATOM      5  C   UNL     1      -0.154   3.473   0.326  0.00  0.00    +0.100 C 
ATOM      6  C   UNL     1       1.072   2.635   0.286  0.00  0.00    -0.021 A 
ATOM      7  C   UNL     1       2.339   3.169   0.259  0.00  0.00    +0.006 A 
ATOM      8  C   UNL     1       3.444   2.337   0.222  0.00  0.00    +0.000 A 
ATOM      9  C   UNL     1       3.284   0.962   0.214  0.00  0.00    +0.001 A 
ATOM     10  C   UNL     1       2.019   0.410   0.242  0.00  0.00    +0.008 A 
ATOM     11  C   UNL     1       0.900   1.240   0.278  0.00  0.00    -0.019 A 
ATOM     12  C   UNL     1      -0.461   0.681   0.309  0.00  0.00    +0.022 C 
ATOM     13  C   UNL     1      -1.552   1.447   0.251  0.00  0.00    +0.054 C 
ATOM     14  C   UNL     1      -2.462   3.896  -0.118  0.00  0.00    +0.156 C 
ATOM     15  C   UNL     1      -1.669   5.180  -0.264  0.00  0.00    +0.118 C 
ATOM     16  C   UNL     1      -1.780   6.064  -1.462  0.00  0.00    +0.232 C 
ATOM     17  O   UNL     1      -2.784   6.325  -2.090  0.00  0.00    -0.274 OA
ATOM     18  N   UNL     1      -1.449   2.943   0.511  0.00  0.00    -0.383 NA
ATOM     19  H   UNL     1      -1.623   3.019   1.521  0.00  0.00    +0.127 HD
ENDROOT
BRANCH   1  23
ATOM     20  C   UNL     1       0.359   9.690  -4.268  0.00  0.00    +0.000 A 
ATOM     21  C   UNL     1      -0.953   9.295  -4.080  0.00  0.00    +0.002 A 
ATOM     22  C   UNL     1      -1.244   8.245  -3.232  0.00  0.00    +0.024 A 
ATOM     23  C   UNL     1      -0.219   7.586  -2.567  0.00  0.00    +0.044 A 
ATOM     24  C   UNL     1       1.096   7.989  -2.752  0.00  0.00    +0.024 A 
ATOM     25  C   UNL     1       1.382   9.037  -3.607  0.00  0.00    +0.002 A 
ENDBRANCH   1  23
BRANCH  14  26
ATOM     26  C   UNL     1      -3.214   3.607  -1.391  0.00  0.00    +0.237 C 
ATOM     27  O   UNL     1      -2.766   2.817  -2.195  0.00  0.00    -0.273 OA
ATOM     28  N   UNL     1      -4.385   4.227  -1.638  0.00  0.00    -0.284 N 
ATOM     29  H   UNL     1      -4.782   4.801  -0.963  0.00  0.00    +0.155 HD
BRANCH  28  30
ATOM     30  C   UNL     1      -5.029   4.044  -2.867  0.00  0.00    +0.036 A 
ATOM     31  C   UNL     1      -4.282   3.862  -4.023  0.00  0.00    +0.025 A 
ATOM     32  C   UNL     1      -4.921   3.675  -5.234  0.00  0.00    +0.024 A 
ATOM     33  C   UNL     1      -6.303   3.681  -5.296  0.00  0.00    +0.071 A 
ATOM     34  C   UNL     1      -7.050   3.868  -4.147  0.00  0.00    +0.146 A 
ATOM     35  C   UNL     1      -6.416   4.050  -2.933  0.00  0.00    +0.057 A 
ATOM     36 CL   UNL     1      -7.102   3.453  -6.821  0.00  0.00    -0.081 Cl
BRANCH  34  37
ATOM     37  N   UNL     1      -8.528   3.875  -4.218  0.00  0.00    +0.058 N 
ATOM     38  O   UNL     1      -9.186   4.039  -3.206  0.00  0.00    -0.126 OA
ATOM     39  O   UNL     1      -9.087   3.715  -5.288  0.00  0.00    -0.126 OA
ENDBRANCH  34  37
ENDBRANCH  28  30
ENDBRANCH  14  26
TORSDOF 4
