REMARK  Name = ZINC12736068
REMARK  13 active torsions:
REMARK  status: ('A' for Active; 'I' for Inactive)
REMARK    1  A    between atoms: C_1  and  C_2
REMARK    2  A    between atoms: C_3  and  C_14
REMARK    3  A    between atoms: C_4  and  C_13
REMARK    4  A    between atoms: C_8  and  C_12
REMARK    5  A    between atoms: N_10  and  C_11
REMARK    6  A    between atoms: C_14  and  C_15
REMARK    7  A    between atoms: C_15  and  C_16
REMARK    8  A    between atoms: N_18  and  C_19
REMARK    9  A    between atoms: C_19  and  C_20
REMARK   10  A    between atoms: C_20  and  C_22
REMARK   11  A    between atoms: C_20  and  N_60
REMARK   12  A    between atoms: C_29  and  N_60
REMARK   13  A    between atoms: C_30  and  N_60
REMARK                            x       y       z     vdW  Elec       q    Type
REMARK                         _______ _______ _______ _____ _____    ______ ____
ROOT
ATOM      1  C   UNL     1       0.550   0.405   2.708  0.00  0.00    +0.213 C 
ATOM      2  O   UNL     1       1.438  -0.420   2.680  0.00  0.00    -0.276 OA
ATOM      3  N   UNL     1       0.064   0.832   3.891  0.00  0.00    -0.317 N 
ATOM      4  H   UNL     1      -0.646   1.492   3.913  0.00  0.00    +0.149 HD
ENDROOT
BRANCH   1   5
ATOM      5  C   UNL     1      -0.012   0.952   1.421  0.00  0.00    +0.100 C 
BRANCH   5   6
ATOM      6  C   UNL     1       0.708   0.307   0.235  0.00  0.00    +0.046 C 
BRANCH   6   9
ATOM      7  C   UNL     1       1.866   2.674  -0.981  0.00  0.00    +0.045 C 
ATOM      8  C   UNL     1       0.697   1.973  -1.622  0.00  0.00    -0.033 A 
ATOM      9  C   UNL     1       0.147   0.855  -1.052  0.00  0.00    -0.022 A 
ATOM     10  C   UNL     1      -0.926   0.226  -1.668  0.00  0.00    +0.044 A 
ATOM     11  N   UNL     1      -1.441   0.683  -2.788  0.00  0.00    -0.232 NA
ATOM     12  C   UNL     1      -0.951   1.761  -3.387  0.00  0.00    +0.159 A 
ATOM     13  C   UNL     1       0.142   2.445  -2.818  0.00  0.00    +0.045 A 
ATOM     14  C   UNL     1       0.435   3.566  -3.703  0.00  0.00    +0.069 A 
ATOM     15  N   UNL     1      -0.415   3.524  -4.688  0.00  0.00    -0.174 NA
ATOM     16  N   UNL     1      -1.279   2.436  -4.532  0.00  0.00    -0.249 N 
ATOM     17  C   UNL     1      -2.364   2.075  -5.448  0.00  0.00    +0.174 C 
ATOM     18  C   UNL     1       1.526   4.588  -3.512  0.00  0.00    +0.068 C 
ATOM     19  C   UNL     1      -1.518  -1.007  -1.035  0.00  0.00    +0.066 C 
ENDBRANCH   6   9
ENDBRANCH   5   6
ENDBRANCH   1   5
BRANCH   3  20
ATOM     20  C   UNL     1       0.610   0.300   5.142  0.00  0.00    +0.093 C 
BRANCH  20  21
ATOM     21  C   UNL     1      -0.195   0.846   6.322  0.00  0.00    -0.020 C 
BRANCH  21  22
ATOM     22  C   UNL     1      -1.605   0.316   6.258  0.00  0.00    -0.041 A 
ATOM     23  C   UNL     1      -2.599   1.067   5.658  0.00  0.00    +0.003 A 
ATOM     24  C   UNL     1      -3.891   0.581   5.599  0.00  0.00    +0.000 A 
ATOM     25  C   UNL     1      -4.191  -0.656   6.138  0.00  0.00    +0.001 A 
ATOM     26  C   UNL     1      -3.198  -1.408   6.737  0.00  0.00    +0.020 A 
ATOM     27  C   UNL     1      -1.903  -0.924   6.792  0.00  0.00    +0.043 A 
ATOM     28 CL   UNL     1      -0.653  -1.871   7.538  0.00  0.00    -0.083 Cl
ENDBRANCH  21  22
BRANCH  21  31
ATOM     29  C   UNL     1      -0.845   2.880   7.464  0.00  0.00    -0.096 C 
ATOM     30  C   UNL     1       1.130   2.856   6.064  0.00  0.00    -0.096 C 
ATOM     31  N   UNL     1      -0.236   2.321   6.238  0.00  0.00    +0.382 N 
ATOM     32  H   UNL     1      -0.807   2.593   5.429  0.00  0.00    -0.082 HD
ENDBRANCH  21  31
ENDBRANCH  20  21
ENDBRANCH   3  20
TORSDOF 7
