REMARK  Name = ZINC12661865
REMARK  10 active torsions:
REMARK  status: ('A' for Active; 'I' for Inactive)
REMARK    1  A    between atoms: C_1  and  C_2
REMARK    2  A    between atoms: C_13  and  O_30
REMARK    3  A    between atoms: C_17  and  C_29
REMARK    4  A    between atoms: C_22  and  C_28
REMARK    5  A    between atoms: C_23  and  C_25
REMARK    6  A    between atoms: C_25  and  C_27
REMARK    7  A    between atoms: O_30  and  C_31
REMARK    8  A    between atoms: C_31  and  C_33
REMARK    9  A    between atoms: C_33  and  C_34
REMARK   10  A    between atoms: C_34  and  N_79
REMARK                            x       y       z     vdW  Elec       q    Type
REMARK                         _______ _______ _______ _____ _____    ______ ____
ROOT
ATOM      1  C   UNL     1       0.545   2.490   1.484  0.00  0.00    +0.008 C 
ATOM      2  C   UNL     1      -0.431   1.461   0.912  0.00  0.00    -0.003 C 
ATOM      3  C   UNL     1       0.058   0.975  -0.479  0.00  0.00    +0.008 C 
ATOM      4  C   UNL     1      -0.925   1.630  -1.461  0.00  0.00    -0.000 C 
ATOM      5  C   UNL     1      -1.005   1.032  -2.831  0.00  0.00    +0.000 C 
ATOM      6  C   UNL     1      -0.413  -0.373  -2.950  0.00  0.00    +0.031 C 
ATOM      7  C   UNL     1      -0.533  -0.780  -4.398  0.00  0.00    -0.027 C 
ATOM      8  C   UNL     1      -1.411  -0.282  -5.212  0.00  0.00    -0.064 C 
ATOM      9  C   UNL     1      -1.390  -0.708  -6.670  0.00  0.00    +0.075 C 
ATOM     10  C   UNL     1      -1.432   0.563  -7.526  0.00  0.00    +0.180 C 
ATOM     11  C   UNL     1      -1.144   1.791  -6.670  0.00  0.00    +0.046 C 
ATOM     12  C   UNL     1      -2.218   2.014  -5.606  0.00  0.00    +0.015 C 
ATOM     13  C   UNL     1      -2.461   0.731  -4.822  0.00  0.00    -0.008 C 
ATOM     14  C   UNL     1      -2.459   0.961  -3.317  0.00  0.00    +0.003 C 
ATOM     15  C   UNL     1      -3.191   2.233  -2.914  0.00  0.00    +0.005 C 
ATOM     16  C   UNL     1      -3.359   2.305  -1.386  0.00  0.00    +0.008 C 
ATOM     17  C   UNL     1      -2.254   1.566  -0.683  0.00  0.00    -0.019 C 
ATOM     18  C   UNL     1      -1.818   2.120   0.687  0.00  0.00    +0.064 C 
ATOM     19  C   UNL     1      -2.684   0.110  -0.424  0.00  0.00    +0.012 C 
ATOM     20  C   UNL     1      -3.836   0.172  -5.208  0.00  0.00    +0.016 C 
ENDROOT
BRANCH  18  21
ATOM     21  C   UNL     1      -1.683   3.614   0.680  0.00  0.00    +0.134 C 
ATOM     22  O   UNL     1      -1.459   4.195  -0.355  0.00  0.00    -0.297 OA
ATOM     23  C   UNL     1      -1.827   4.390   1.964  0.00  0.00    +0.086 C 
ENDBRANCH  18  21
BRANCH  10  24
ATOM     24  O   UNL     1      -2.735   0.693  -8.153  0.00  0.00    -0.461 OA
BRANCH  24  25
ATOM     25  C   UNL     1      -2.890   0.125  -9.359  0.00  0.00    +0.306 C 
ATOM     26  O   UNL     1      -1.967  -0.460  -9.875  0.00  0.00    -0.251 OA
BRANCH  25  27
ATOM     27  C   UNL     1      -4.215   0.218 -10.071  0.00  0.00    +0.102 C 
BRANCH  27  28
ATOM     28  C   UNL     1      -4.123  -0.506 -11.416  0.00  0.00    -0.067 C 
BRANCH  28  34
ATOM     29  C   UNL     1      -6.454  -1.163 -11.388  0.00  0.00    -0.050 C 
ATOM     30  C   UNL     1      -7.793  -0.993 -12.112  0.00  0.00    +0.141 C 
ATOM     31  O   UNL     1      -7.655  -1.428 -13.467  0.00  0.00    -0.383 OA
ATOM     32  C   UNL     1      -6.651  -0.720 -14.200  0.00  0.00    +0.141 C 
ATOM     33  C   UNL     1      -5.301  -0.888 -13.498  0.00  0.00    -0.050 C 
ATOM     34  N   UNL     1      -5.423  -0.389 -12.111  0.00  0.00    +0.383 N 
ATOM     35  H   UNL     1      -5.702   0.599 -12.135  0.00  0.00    -0.082 HD
ENDBRANCH  28  34
ENDBRANCH  27  28
ENDBRANCH  25  27
ENDBRANCH  24  25
ENDBRANCH  10  24
TORSDOF 6
