REMARK  Name = ZINC21529484
REMARK  8 active torsions:
REMARK  status: ('A' for Active; 'I' for Inactive)
REMARK    1  A    between atoms: C_1  and  C_2
REMARK    2  A    between atoms: C_2  and  C_3
REMARK    3  A    between atoms: C_2  and  C_4
REMARK    4  A    between atoms: C_4  and  C_5
REMARK    5  A    between atoms: C_5  and  C_7
REMARK    6  A    between atoms: C_5  and  N_26
REMARK    7  A    between atoms: N_16  and  C_19
REMARK    8  A    between atoms: C_19  and  C_20
REMARK                            x       y       z     vdW  Elec       q    Type
REMARK                         _______ _______ _______ _____ _____    ______ ____
ROOT
ATOM      1  C   UNL     1      -3.174  -1.973   0.514  0.00  0.00    +0.240 C 
ATOM      2  O   UNL     1      -3.727  -2.402   1.505  0.00  0.00    -0.273 OA
ATOM      3  N   UNL     1      -3.874  -1.793  -0.624  0.00  0.00    -0.263 N 
ATOM      4  C   UNL     1      -5.229  -2.099  -0.661  0.00  0.00    +0.165 A 
ATOM      5  N   UNL     1      -5.990  -2.563   0.307  0.00  0.00    -0.229 NA
ATOM      6  C   UNL     1      -7.281  -2.811   0.125  0.00  0.00    +0.050 A 
ATOM      7  C   UNL     1      -7.745  -2.551  -1.127  0.00  0.00    -0.002 A 
ATOM      8  S   UNL     1      -6.299  -1.958  -1.957  0.00  0.00    -0.059 S 
ATOM      9  C   UNL     1      -9.138  -2.737  -1.622  0.00  0.00    -0.033 C 
ATOM     10  N   UNL     1      -9.859  -3.591  -0.659  0.00  0.00    +0.386 N 
ATOM     11  C   UNL     1      -9.669  -3.069   0.701  0.00  0.00    -0.072 C 
ATOM     12  C   UNL     1      -8.240  -3.341   1.182  0.00  0.00    +0.038 C 
ATOM     13  H   UNL     1      -3.432  -1.450  -1.416  0.00  0.00    +0.157 HD
ATOM     14  H   UNL     1      -9.501  -4.533  -0.710  0.00  0.00    -0.081 HD
ENDROOT
BRANCH   1  15
ATOM     15  C   UNL     1      -1.705  -1.642   0.555  0.00  0.00    +0.170 C 
BRANCH  15  16
ATOM     16  N   UNL     1      -1.178  -1.923   1.893  0.00  0.00    -0.230 N 
ATOM     17  C   UNL     1      -0.269  -2.887   2.138  0.00  0.00    +0.227 C 
ATOM     18  O   UNL     1       0.374  -3.496   1.310  0.00  0.00    -0.275 OA
ATOM     19  C   UNL     1      -0.200  -3.070   3.663  0.00  0.00    +0.091 C 
ATOM     20  C   UNL     1      -1.279  -4.108   3.982  0.00  0.00    +0.040 C 
ATOM     21  C   UNL     1      -1.954  -3.874   5.289  0.00  0.00    -0.030 C 
ATOM     22  C   UNL     1      -1.929  -2.763   5.945  0.00  0.00    -0.030 C 
ATOM     23  C   UNL     1      -1.164  -1.559   5.492  0.00  0.00    +0.040 C 
ATOM     24  C   UNL     1      -0.626  -1.658   4.095  0.00  0.00    +0.091 C 
ATOM     25  C   UNL     1      -1.555  -1.235   2.994  0.00  0.00    +0.227 C 
ATOM     26  O   UNL     1      -2.463  -0.436   3.076  0.00  0.00    -0.275 OA
ENDBRANCH  15  16
BRANCH  15  27
ATOM     27  C   UNL     1      -1.507  -0.160   0.230  0.00  0.00    +0.035 C 
BRANCH  27  29
ATOM     28  C   UNL     1       0.179   1.565  -0.423  0.00  0.00    +0.007 C 
ATOM     29  C   UNL     1      -0.012   0.137   0.092  0.00  0.00    -0.015 C 
ATOM     30  C   UNL     1       0.665  -0.009   1.456  0.00  0.00    +0.007 C 
ENDBRANCH  27  29
ENDBRANCH  15  27
ENDBRANCH   1  15
BRANCH  10  31
ATOM     31  C   UNL     1     -11.291  -3.595  -0.985  0.00  0.00    -0.043 C 
BRANCH  31  32
ATOM     32  C   UNL     1     -11.499  -4.245  -2.329  0.00  0.00    -0.064 A 
ATOM     33  C   UNL     1     -11.469  -3.479  -3.479  0.00  0.00    +0.002 A 
ATOM     34  C   UNL     1     -11.659  -4.076  -4.712  0.00  0.00    +0.000 A 
ATOM     35  C   UNL     1     -11.878  -5.438  -4.794  0.00  0.00    +0.000 A 
ATOM     36  C   UNL     1     -11.907  -6.204  -3.644  0.00  0.00    +0.000 A 
ATOM     37  C   UNL     1     -11.713  -5.609  -2.411  0.00  0.00    +0.002 A 
ENDBRANCH  31  32
ENDBRANCH  10  31
TORSDOF 6
