REMARK  Name = ZINC01134821
REMARK  7 active torsions:
REMARK  status: ('A' for Active; 'I' for Inactive)
REMARK    1  A    between atoms: C_3  and  C_6
REMARK    2  A    between atoms: C_6  and  N_7
REMARK    3  A    between atoms: C_8  and  C_10
REMARK    4  A    between atoms: N_20  and  C_23
REMARK    5  A    between atoms: C_23  and  C_24
REMARK    6  A    between atoms: C_24  and  C_25
REMARK    7  A    between atoms: C_25  and  N_26
REMARK                            x       y       z     vdW  Elec       q    Type
REMARK                         _______ _______ _______ _____ _____    ______ ____
ROOT
ATOM      1  C   UNL     1       1.120   3.631   0.011  0.00  0.00    +0.039 A 
ATOM      2  C   UNL     1      -0.102   4.310   0.020  0.00  0.00    +0.014 A 
ATOM      3  C   UNL     1      -0.131   5.687   0.033  0.00  0.00    +0.016 A 
ATOM      4  C   UNL     1       1.064   6.403   0.025  0.00  0.00    +0.063 A 
ATOM      5  C   UNL     1       2.295   5.726   0.010  0.00  0.00    +0.054 A 
ATOM      6  C   UNL     1       2.319   4.340   0.003  0.00  0.00    +0.039 A 
ATOM      7  N   UNL     1       3.467   6.470   0.004  0.00  0.00    -0.335 N 
ATOM      8  H   UNL     1       4.324   6.016  -0.007  0.00  0.00    +0.168 HD
ATOM      9  C   UNL     1       3.426   7.814   0.011  0.00  0.00    +0.161 A 
ATOM     10  S   UNL     1       4.904   8.678   0.002  0.00  0.00    -0.013 S 
ATOM     11  N   UNL     1       2.277   8.507   0.025  0.00  0.00    -0.288 N 
ATOM     12  C   UNL     1       1.080   7.880   0.032  0.00  0.00    +0.262 A 
ATOM     13  O   UNL     1       0.044   8.515   0.045  0.00  0.00    -0.267 OA
ENDROOT
BRANCH   1  15
ATOM     14  N   UNL     1      -0.018   1.461   0.010  0.00  0.00    -0.307 N 
ATOM     15  C   UNL     1       1.140   2.151   0.003  0.00  0.00    +0.244 C 
ATOM     16  O   UNL     1       2.201   1.557  -0.011  0.00  0.00    -0.270 OA
ATOM     17  H   UNL     1      -0.864   1.934   0.017  0.00  0.00    +0.149 HD
BRANCH  14  18
ATOM     18  C   UNL     1       0.002  -0.004   0.002  0.00  0.00    +0.147 C 
BRANCH  18  21
ATOM     19  C   UNL     1      -3.498  -1.288  -0.784  0.00  0.00    +0.008 A 
ATOM     20  C   UNL     1      -2.224  -0.810  -1.034  0.00  0.00    +0.013 A 
ATOM     21  C   UNL     1      -1.412  -0.526   0.013  0.00  0.00    +0.007 A 
ATOM     22  S   UNL     1      -2.453  -0.922   1.407  0.00  0.00    -0.100 S 
ATOM     23  C   UNL     1      -3.899  -1.447   0.501  0.00  0.00    +0.045 A 
ENDBRANCH  18  21
ENDBRANCH  14  18
ENDBRANCH   1  15
BRANCH  11  24
ATOM     24  C   UNL     1       2.321   9.971   0.032  0.00  0.00    +0.129 C 
BRANCH  24  25
ATOM     25  C   UNL     1       2.323  10.488  -1.408  0.00  0.00    +0.041 C 
BRANCH  25  26
ATOM     26  C   UNL     1       2.369  12.017  -1.401  0.00  0.00    +0.109 C 
BRANCH  26  27
ATOM     27  N   UNL     1       2.371  12.512  -2.779  0.00  0.00    -0.301 N 
ATOM     28  C   UNL     1       3.584  12.761  -3.568  0.00  0.00    +0.108 C 
ATOM     29  C   UNL     1       3.109  12.835  -5.038  0.00  0.00    +0.028 C 
ATOM     30  C   UNL     1       1.637  13.277  -4.870  0.00  0.00    +0.097 C 
ATOM     31  C   UNL     1       1.263  12.802  -3.483  0.00  0.00    +0.216 C 
ATOM     32  O   UNL     1       0.129  12.699  -3.066  0.00  0.00    -0.276 OA
ENDBRANCH  26  27
ENDBRANCH  25  26
ENDBRANCH  24  25
ENDBRANCH  11  24
TORSDOF 7
