REMARK  Name = ZINC10971368
REMARK  7 active torsions:
REMARK  status: ('A' for Active; 'I' for Inactive)
REMARK    1  A    between atoms: C_1  and  C_2
REMARK    2  A    between atoms: C_2  and  C_26
REMARK    3  A    between atoms: N_5  and  C_9
REMARK    4  A    between atoms: C_9  and  C_10
REMARK    5  A    between atoms: N_12  and  C_13
REMARK    6  A    between atoms: N_12  and  C_20
REMARK    7  A    between atoms: C_13  and  C_14
REMARK                            x       y       z     vdW  Elec       q    Type
REMARK                         _______ _______ _______ _____ _____    ______ ____
ROOT
ATOM      1  C   UNL     1      -4.022  -1.862  -6.183  0.00  0.00    +0.047 C 
ATOM      2  C   UNL     1      -3.818  -1.729  -4.673  0.00  0.00    +0.135 C 
ATOM      3  C   UNL     1      -2.518  -1.007  -4.377  0.00  0.00    +0.251 C 
ATOM      4  O   UNL     1      -1.399  -1.360  -4.679  0.00  0.00    -0.272 OA
ATOM      5  N   UNL     1      -2.866   0.109  -3.706  0.00  0.00    -0.215 N 
ATOM      6  C   UNL     1      -4.192   0.195  -3.546  0.00  0.00    +0.310 C 
ATOM      7  O   UNL     1      -4.745   1.115  -2.976  0.00  0.00    -0.252 OA
ATOM      8  N   UNL     1      -4.844  -0.850  -4.086  0.00  0.00    -0.281 N 
ATOM      9  H   UNL     1      -5.803  -0.996  -4.090  0.00  0.00    +0.152 HD
ENDROOT
BRANCH   2  10
ATOM     10  C   UNL     1      -3.841  -3.084  -4.015  0.00  0.00    -0.015 A 
ATOM     11  C   UNL     1      -2.675  -3.816  -3.895  0.00  0.00    +0.006 A 
ATOM     12  C   UNL     1      -2.698  -5.056  -3.287  0.00  0.00    +0.004 A 
ATOM     13  C   UNL     1      -3.889  -5.574  -2.805  0.00  0.00    -0.044 A 
ATOM     14  C   UNL     1      -5.056  -4.844  -2.929  0.00  0.00    -0.044 A 
ATOM     15  C   UNL     1      -5.030  -3.599  -3.535  0.00  0.00    +0.010 A 
ATOM     16  C   UNL     1      -6.210  -5.620  -2.331  0.00  0.00    +0.036 C 
ATOM     17  C   UNL     1      -5.554  -6.698  -1.442  0.00  0.00    +0.009 C 
ATOM     18  C   UNL     1      -4.178  -6.889  -2.114  0.00  0.00    +0.036 C 
ENDBRANCH   2  10
BRANCH   5  19
ATOM     19  C   UNL     1      -1.912   1.108  -3.219  0.00  0.00    +0.214 C 
BRANCH  19  20
ATOM     20  C   UNL     1      -1.481   0.750  -1.820  0.00  0.00    +0.238 C 
ATOM     21  O   UNL     1      -1.998  -0.185  -1.246  0.00  0.00    -0.273 OA
ATOM     22  N   UNL     1      -0.520   1.469  -1.206  0.00  0.00    -0.266 N 
BRANCH  22  23
ATOM     23  C   UNL     1       0.011   2.603  -1.829  0.00  0.00    +0.037 A 
ATOM     24  C   UNL     1      -0.786   3.720  -2.038  0.00  0.00    +0.023 A 
ATOM     25  C   UNL     1      -0.258   4.840  -2.649  0.00  0.00    +0.002 A 
ATOM     26  C   UNL     1       1.062   4.846  -3.063  0.00  0.00    +0.000 A 
ATOM     27  C   UNL     1       1.857   3.733  -2.862  0.00  0.00    +0.002 A 
ATOM     28  C   UNL     1       1.336   2.612  -2.247  0.00  0.00    +0.023 A 
ENDBRANCH  22  23
BRANCH  22  29
ATOM     29  C   UNL     1      -0.032   1.062   0.114  0.00  0.00    +0.148 C 
BRANCH  29  30
ATOM     30  C   UNL     1      -0.861   1.728   1.183  0.00  0.00    -0.030 A 
ATOM     31  C   UNL     1      -0.482   2.960   1.684  0.00  0.00    +0.005 A 
ATOM     32  C   UNL     1      -1.245   3.572   2.660  0.00  0.00    +0.000 A 
ATOM     33  C   UNL     1      -2.381   2.949   3.143  0.00  0.00    +0.000 A 
ATOM     34  C   UNL     1      -2.756   1.715   2.646  0.00  0.00    +0.000 A 
ATOM     35  C   UNL     1      -1.996   1.104   1.666  0.00  0.00    +0.005 A 
ENDBRANCH  29  30
ENDBRANCH  22  29
ENDBRANCH  19  20
ENDBRANCH   5  19
TORSDOF 6
