REMARK  Name = ZINC09669174
REMARK  14 active torsions:
REMARK  status: ('A' for Active; 'I' for Inactive)
REMARK    1  A    between atoms: C_1  and  C_2
REMARK    2  A    between atoms: C_2  and  C_3
REMARK    3  A    between atoms: C_3  and  C_5
REMARK    4  A    between atoms: C_3  and  S_23
REMARK    5  A    between atoms: N_7  and  C_8
REMARK    6  A    between atoms: C_8  and  C_10
REMARK    7  A    between atoms: C_8  and  C_19
REMARK    8  A    between atoms: C_10  and  S_11
REMARK    9  A    between atoms: S_11  and  C_12
REMARK   10  A    between atoms: C_12  and  C_13
REMARK   11  A    between atoms: C_19  and  O_21
REMARK   12  A    between atoms: O_21  and  C_22
REMARK   13  A    between atoms: S_23  and  C_24
REMARK   14  A    between atoms: C_30  and  N_32
REMARK                            x       y       z     vdW  Elec       q    Type
REMARK                         _______ _______ _______ _____ _____    ______ ____
ROOT
ATOM      1  C   UNL     1      -0.587  -0.822  -0.153  0.00  0.00    +0.227 C 
ATOM      2  O   UNL     1      -1.673  -0.283  -0.150  0.00  0.00    -0.275 OA
ATOM      3  N   UNL     1      -0.491  -2.147   0.072  0.00  0.00    -0.301 N 
ATOM      4  H   UNL     1       0.494  -2.636   0.069  0.00  0.00    +0.150 HD
ENDROOT
BRANCH   1   5
ATOM      5  C   UNL     1       0.656  -0.009  -0.410  0.00  0.00    +0.140 C 
BRANCH   5   7
ATOM      6  C   UNL     1       1.420  -1.521  -2.247  0.00  0.00    +0.005 C 
ATOM      7  C   UNL     1       1.019  -0.087  -1.895  0.00  0.00    +0.020 C 
ENDBRANCH   5   7
BRANCH   5   8
ATOM      8  S   UNL     1       0.355   1.716   0.047  0.00  0.00    -0.075 S 
BRANCH   8   9
ATOM      9  C   UNL     1       1.986   2.363  -0.109  0.00  0.00    +0.171 A 
ATOM     10  N   UNL     1       2.190   3.702   0.038  0.00  0.00    -0.302 N 
ATOM     11  H   UNL     1       1.340   4.368   0.246  0.00  0.00    +0.171 HD
ATOM     12  C   UNL     1       3.433   4.214  -0.073  0.00  0.00    +0.254 A 
ATOM     13  O   UNL     1       3.625   5.412   0.061  0.00  0.00    -0.268 OA
ATOM     14  C   UNL     1       4.497   3.350  -0.350  0.00  0.00    +0.113 A 
ATOM     15  C   UNL     1       4.237   1.995  -0.496  0.00  0.00    +0.124 A 
ATOM     16  N   UNL     1       2.984   1.543  -0.370  0.00  0.00    -0.209 NA
BRANCH  15  17
ATOM     17  N   UNL     1       5.266   1.117  -0.770  0.00  0.00    -0.343 N 
ATOM     18  H   UNL     1       5.056   0.043  -0.885  0.00  0.00    +0.144 HD
ATOM     19  H   UNL     1       6.295   1.491  -0.873  0.00  0.00    +0.144 HD
ENDBRANCH  15  17
ENDBRANCH   8   9
ENDBRANCH   5   8
ENDBRANCH   1   5
BRANCH   3  20
ATOM     20  C   UNL     1      -1.700  -2.937   0.322  0.00  0.00    +0.192 C 
BRANCH  20  21
ATOM     21  C   UNL     1      -2.057  -2.860   1.784  0.00  0.00    +0.328 C 
ATOM     22  O   UNL     1      -1.372  -2.212   2.540  0.00  0.00    -0.249 OA
BRANCH  21  23
ATOM     23  O   UNL     1      -3.135  -3.511   2.247  0.00  0.00    -0.467 OA
ATOM     24  C   UNL     1      -3.419  -3.392   3.666  0.00  0.00    +0.280 C 
ENDBRANCH  21  23
ENDBRANCH  20  21
BRANCH  20  25
ATOM     25  C   UNL     1      -1.445  -4.395  -0.065  0.00  0.00    +0.103 C 
BRANCH  25  26
ATOM     26  S   UNL     1      -1.015  -4.487  -1.825  0.00  0.00    -0.154 S 
BRANCH  26  27
ATOM     27  C   UNL     1      -0.748  -6.257  -2.119  0.00  0.00    +0.104 C 
BRANCH  27  28
ATOM     28  C   UNL     1      -0.379  -6.477  -3.563  0.00  0.00    -0.038 A 
ATOM     29  C   UNL     1      -1.367  -6.712  -4.501  0.00  0.00    +0.004 A 
ATOM     30  C   UNL     1      -1.029  -6.907  -5.827  0.00  0.00    +0.000 A 
ATOM     31  C   UNL     1       0.298  -6.879  -6.214  0.00  0.00    +0.000 A 
ATOM     32  C   UNL     1       1.286  -6.650  -5.275  0.00  0.00    +0.000 A 
ATOM     33  C   UNL     1       0.948  -6.448  -3.950  0.00  0.00    +0.004 A 
ENDBRANCH  27  28
ENDBRANCH  26  27
ENDBRANCH  25  26
ENDBRANCH  20  25
ENDBRANCH   3  20
TORSDOF 12
