REMARK  Name = ZINC32503692
REMARK  6 active torsions:
REMARK  status: ('A' for Active; 'I' for Inactive)
REMARK    1  A    between atoms: C_5  and  C_7
REMARK    2  A    between atoms: C_7  and  N_8
REMARK    3  A    between atoms: N_20  and  C_21
REMARK    4  A    between atoms: C_21  and  C_23
REMARK    5  A    between atoms: C_23  and  O_24
REMARK    6  A    between atoms: O_24  and  C_25
REMARK                            x       y       z     vdW  Elec       q    Type
REMARK                         _______ _______ _______ _____ _____    ______ ____
ROOT
ATOM      1  N   UNL     1       0.659   1.222  -2.245  0.00  0.00    -0.302 N 
ATOM      2  C   UNL     1      -0.498   1.610  -1.444  0.00  0.00    +0.111 C 
ATOM      3  C   UNL     1      -1.857   0.933  -1.727  0.00  0.00    +0.189 C 
ATOM      4  S   UNL     1      -2.690   1.332  -0.116  0.00  0.00    -0.028 S 
ATOM      5  O   UNL     1      -3.347   2.587  -0.231  0.00  0.00    -0.174 OA
ATOM      6  O   UNL     1      -3.421   0.195   0.323  0.00  0.00    -0.174 OA
ATOM      7  C   UNL     1      -1.188   1.550   0.932  0.00  0.00    +0.182 C 
ATOM      8  C   UNL     1      -0.126   1.065  -0.010  0.00  0.00    +0.097 C 
ATOM      9  S   UNL     1       1.559   1.708   0.035  0.00  0.00    -0.086 S 
ATOM     10  C   UNL     1       1.832   1.744  -1.693  0.00  0.00    +0.150 C 
ATOM     11  N   UNL     1       2.913   2.172  -2.336  0.00  0.00    -0.156 NA
ENDROOT
BRANCH  11  12
ATOM     12  C   UNL     1       3.951   2.645  -1.651  0.00  0.00    +0.276 C 
ATOM     13  O   UNL     1       3.912   2.684  -0.437  0.00  0.00    -0.270 OA
BRANCH  12  14
ATOM     14  C   UNL     1       5.177   3.131  -2.381  0.00  0.00    +0.326 C 
BRANCH  14  15
ATOM     15  O   UNL     1       6.146   3.585  -1.435  0.00  0.00    -0.483 OA
BRANCH  15  16
ATOM     16  C   UNL     1       7.319   4.059  -1.932  0.00  0.00    +0.121 A 
ATOM     17  C   UNL     1       7.534   4.081  -3.302  0.00  0.00    +0.047 A 
ATOM     18  C   UNL     1       8.725   4.567  -3.805  0.00  0.00    +0.023 A 
ATOM     19  C   UNL     1       9.707   5.024  -2.943  0.00  0.00    +0.041 A 
ATOM     20  C   UNL     1       9.496   4.998  -1.576  0.00  0.00    +0.023 A 
ATOM     21  C   UNL     1       8.304   4.517  -1.069  0.00  0.00    +0.047 A 
ATOM     22 CL   UNL     1      11.205   5.629  -3.578  0.00  0.00    -0.084 Cl
ENDBRANCH  15  16
ENDBRANCH  14  15
ENDBRANCH  12  14
ENDBRANCH  11  12
BRANCH   1  23
ATOM     23  C   UNL     1       0.599   0.399  -3.456  0.00  0.00    +0.143 C 
BRANCH  23  28
ATOM     24  C   UNL     1      -1.349   2.228  -6.124  0.00  0.00    +0.000 A 
ATOM     25  C   UNL     1      -0.337   2.872  -6.812  0.00  0.00    +0.001 A 
ATOM     26  C   UNL     1       0.977   2.716  -6.415  0.00  0.00    +0.020 A 
ATOM     27  C   UNL     1       1.281   1.915  -5.328  0.00  0.00    +0.046 A 
ATOM     28  C   UNL     1       0.269   1.272  -4.639  0.00  0.00    -0.012 A 
ATOM     29  C   UNL     1      -1.045   1.425  -5.041  0.00  0.00    +0.006 A 
ATOM     30 CL   UNL     1       2.932   1.718  -4.830  0.00  0.00    -0.083 Cl
ENDBRANCH  23  28
ENDBRANCH   1  23
TORSDOF 6
