REMARK  Name = ZINC25907419
REMARK  2 active torsions:
REMARK  status: ('A' for Active; 'I' for Inactive)
REMARK    1  A    between atoms: C_6  and  C_7
REMARK    2  A    between atoms: C_13  and  C_15
REMARK                            x       y       z     vdW  Elec       q    Type
REMARK                         _______ _______ _______ _____ _____    ______ ____
ROOT
ATOM      1  C   UNL     1       1.173   3.566   0.010  0.00  0.00    +0.080 A 
ATOM      2  C   UNL     1       2.348   4.264   0.002  0.00  0.00    +0.076 A 
ATOM      3  S   UNL     1       1.735   5.944   0.016  0.00  0.00    -0.060 S 
ATOM      4  C   UNL     1      -0.007   5.545   0.031  0.00  0.00    +0.165 A 
ATOM      5  N   UNL     1       0.025   4.226   0.018  0.00  0.00    -0.225 NA
ATOM      6  N   UNL     1      -1.104   6.398   0.045  0.00  0.00    -0.264 N 
ATOM      7  C   UNL     1      -0.919   7.733   0.051  0.00  0.00    +0.227 C 
ATOM      8  O   UNL     1       0.204   8.190   0.043  0.00  0.00    -0.275 OA
ATOM      9  H   UNL     1      -2.123   5.984   0.052  0.00  0.00    +0.157 HD
ENDROOT
BRANCH   7  10
ATOM     10  C   UNL     1      -2.109   8.658   0.067  0.00  0.00    +0.116 C 
ATOM     11  C   UNL     1      -2.942   8.395   1.322  0.00  0.00    +0.113 C 
ATOM     12  C   UNL     1      -2.212   8.900   2.537  0.00  0.00    +0.218 C 
ATOM     13  O   UNL     1      -2.304   8.296   3.585  0.00  0.00    -0.275 OA
ATOM     14  N   UNL     1      -1.458  10.012   2.474  0.00  0.00    -0.285 N 
ATOM     15  C   UNL     1      -1.325  10.712   1.271  0.00  0.00    +0.040 A 
ATOM     16  C   UNL     1      -1.633  10.088   0.069  0.00  0.00    -0.014 A 
ATOM     17  C   UNL     1      -1.504  10.778  -1.120  0.00  0.00    +0.009 A 
ATOM     18  C   UNL     1      -1.067  12.090  -1.116  0.00  0.00    +0.039 A 
ATOM     19  C   UNL     1      -0.759  12.716   0.081  0.00  0.00    +0.125 A 
ATOM     20  C   UNL     1      -0.887  12.029   1.275  0.00  0.00    +0.062 A 
ATOM     21  F   UNL     1      -0.333  13.998   0.082  0.00  0.00    -0.205 F 
ATOM     22  H   UNL     1      -0.940  10.377   3.374  0.00  0.00    +0.155 HD
ENDBRANCH   7  10
BRANCH   1  28
ATOM     23  C   UNL     1       2.392   1.389  -0.013  0.00  0.00    +0.013 A 
ATOM     24  C   UNL     1       2.402   0.011  -0.017  0.00  0.00    +0.046 A 
ATOM     25  C   UNL     1       1.204  -0.702  -0.005  0.00  0.00    +0.124 A 
ATOM     26  C   UNL     1       0.002  -0.004   0.002  0.00  0.00    -0.002 A 
ATOM     27  C   UNL     1      -0.017   1.371   0.010  0.00  0.00    +0.017 A 
ATOM     28  C   UNL     1       1.183   2.082   0.002  0.00  0.00    +0.001 A 
ATOM     29  C   UNL     1      -1.110  -1.035  -0.011  0.00  0.00    +0.080 C 
ATOM     30  C   UNL     1      -0.351  -2.320  -0.421  0.00  0.00    +0.234 C 
ATOM     31  O   UNL     1       0.992  -2.047   0.011  0.00  0.00    -0.491 OA
ENDBRANCH   1  28
TORSDOF 2
