REMARK  Name = ZINC09612454
REMARK  10 active torsions:
REMARK  status: ('A' for Active; 'I' for Inactive)
REMARK    1  A    between atoms: C_1  and  C_2
REMARK    2  A    between atoms: C_3  and  C_34
REMARK    3  A    between atoms: C_4  and  C_33
REMARK    4  A    between atoms: C_7  and  C_8
REMARK    5  A    between atoms: C_8  and  O_10
REMARK    6  A    between atoms: O_10  and  C_11
REMARK    7  A    between atoms: C_11  and  C_13
REMARK    8  A    between atoms: C_11  and  C_14
REMARK    9  A    between atoms: N_16  and  C_17
REMARK   10  A    between atoms: C_34  and  C_36
REMARK                            x       y       z     vdW  Elec       q    Type
REMARK                         _______ _______ _______ _____ _____    ______ ____
ROOT
ATOM      1  C   UNL     1      -3.774  10.168  -0.020  0.00  0.00    +0.258 C 
ATOM      2  O   UNL     1      -4.816   9.548  -0.014  0.00  0.00    -0.271 OA
ATOM      3  N   UNL     1      -2.600   9.512   0.069  0.00  0.00    -0.282 N 
ATOM      4  H   UNL     1      -1.770  10.011   0.130  0.00  0.00    +0.155 HD
ENDROOT
BRANCH   3   5
ATOM      5  C   UNL     1      -2.578   8.118   0.071  0.00  0.00    +0.034 A 
ATOM      6  C   UNL     1      -1.532   7.441  -0.546  0.00  0.00    +0.024 A 
ATOM      7  C   UNL     1      -1.501   6.061  -0.549  0.00  0.00    +0.014 A 
ATOM      8  C   UNL     1      -2.521   5.338   0.069  0.00  0.00    +0.033 A 
ATOM      9  C   UNL     1      -3.581   6.021   0.694  0.00  0.00    +0.035 A 
ATOM     10  C   UNL     1      -3.603   7.410   0.692  0.00  0.00    +0.035 A 
ATOM     11  C   UNL     1      -4.665   5.260   1.352  0.00  0.00    +0.195 C 
ATOM     12  O   UNL     1      -5.581   5.848   1.891  0.00  0.00    -0.287 OA
ATOM     13  C   UNL     1      -4.633   3.783   1.351  0.00  0.00    +0.033 A 
ATOM     14  C   UNL     1      -5.649   3.058   1.968  0.00  0.00    +0.012 A 
ATOM     15  C   UNL     1      -5.610   1.674   1.962  0.00  0.00    +0.001 A 
ATOM     16  C   UNL     1      -4.567   1.005   1.347  0.00  0.00    +0.001 A 
ATOM     17  C   UNL     1      -3.547   1.711   0.734  0.00  0.00    +0.012 A 
ATOM     18  C   UNL     1      -3.573   3.102   0.725  0.00  0.00    +0.033 A 
ATOM     19  C   UNL     1      -2.490   3.864   0.068  0.00  0.00    +0.195 C 
ATOM     20  O   UNL     1      -1.575   3.275  -0.473  0.00  0.00    -0.287 OA
ENDBRANCH   3   5
BRANCH   1  21
ATOM     21  C   UNL     1      -3.792  11.671  -0.128  0.00  0.00    +0.259 C 
ATOM     22  C   UNL     1      -3.142  12.096  -1.446  0.00  0.00    +0.062 C 
BRANCH  21  23
ATOM     23  O   UNL     1      -5.164  12.143  -0.090  0.00  0.00    -0.448 OA
BRANCH  23  24
ATOM     24  C   UNL     1      -5.377  13.366   0.436  0.00  0.00    +0.357 C 
ATOM     25  O   UNL     1      -4.441  14.021   0.852  0.00  0.00    -0.243 OA
BRANCH  24  32
ATOM     26  C   UNL     1      -6.157  16.148   1.608  0.00  0.00    +0.047 C 
ATOM     27  C   UNL     1      -7.089  15.122   1.016  0.00  0.00    -0.008 A 
ATOM     28  C   UNL     1      -8.493  15.237   0.883  0.00  0.00    +0.041 A 
ATOM     29  C   UNL     1      -8.941  14.064   0.294  0.00  0.00    +0.024 A 
ATOM     30  N   UNL     1      -7.883  13.272   0.071  0.00  0.00    -0.352 N 
ATOM     31  H   UNL     1      -7.917  12.390  -0.331  0.00  0.00    +0.166 HD
ATOM     32  C   UNL     1      -6.739  13.908   0.505  0.00  0.00    +0.128 A 
ATOM     33  C   UNL     1     -10.374  13.736  -0.037  0.00  0.00    +0.064 C 
BRANCH  28  34
ATOM     34  C   UNL     1      -9.318  16.378   1.293  0.00  0.00    +0.162 C 
ATOM     35  O   UNL     1      -9.855  16.377   2.381  0.00  0.00    -0.292 OA
ATOM     36  C   UNL     1      -9.498  17.550   0.364  0.00  0.00    +0.091 C 
ENDBRANCH  28  34
ENDBRANCH  24  32
ENDBRANCH  23  24
ENDBRANCH  21  23
ENDBRANCH   1  21
TORSDOF 6
