REMARK  Name = ZINC67299117
REMARK  7 active torsions:
REMARK  status: ('A' for Active; 'I' for Inactive)
REMARK    1  A    between atoms: C_1  and  C_2
REMARK    2  A    between atoms: C_5  and  N_9
REMARK    3  A    between atoms: C_11  and  C_22
REMARK    4  A    between atoms: C_17  and  O_20
REMARK    5  A    between atoms: O_20  and  C_21
REMARK    6  A    between atoms: N_24  and  C_25
REMARK    7  A    between atoms: C_25  and  C_26
REMARK                            x       y       z     vdW  Elec       q    Type
REMARK                         _______ _______ _______ _____ _____    ______ ____
ROOT
ATOM      1  N   UNL     1       0.062  -4.144  -0.030  0.00  0.00    -0.325 N 
ATOM      2  C   UNL     1       0.880  -4.794   0.769  0.00  0.00    +0.212 A 
ATOM      3  C   UNL     1       0.845  -6.267   0.858  0.00  0.00    +0.097 A 
ATOM      4  C   UNL     1       2.020  -6.906   1.231  0.00  0.00    +0.030 A 
ATOM      5  C   UNL     1       3.188  -6.064   1.502  0.00  0.00    +0.022 A 
ATOM      6  C   UNL     1       4.465  -6.626   1.621  0.00  0.00    +0.012 A 
ATOM      7  C   UNL     1       5.541  -5.821   1.869  0.00  0.00    +0.004 A 
ATOM      8  C   UNL     1       5.382  -4.450   2.003  0.00  0.00    +0.049 A 
ATOM      9  C   UNL     1       4.128  -3.872   1.892  0.00  0.00    +0.163 A 
ATOM     10  C   UNL     1       3.019  -4.675   1.642  0.00  0.00    +0.179 A 
ATOM     11  O   UNL     1       1.785  -4.131   1.533  0.00  0.00    -0.435 OA
ATOM     12  H   UNL     1      -0.518  -4.634  -0.633  0.00  0.00    +0.169 HD
ENDROOT
BRANCH   1  17
ATOM     13  C   UNL     1      -0.073   1.499   0.049  0.00  0.00    +0.045 C 
ATOM     14  C   UNL     1      -0.037  -0.007   0.028  0.00  0.00    -0.032 A 
ATOM     15  C   UNL     1      -0.016  -0.679  -1.181  0.00  0.00    +0.007 A 
ATOM     16  C   UNL     1       0.017  -2.057  -1.208  0.00  0.00    +0.026 A 
ATOM     17  C   UNL     1       0.029  -2.777  -0.010  0.00  0.00    +0.043 A 
ATOM     18  C   UNL     1       0.008  -2.093   1.207  0.00  0.00    +0.046 A 
ATOM     19  C   UNL     1      -0.020  -0.713   1.220  0.00  0.00    +0.046 A 
ATOM     20 CL   UNL     1      -0.040   0.140   2.732  0.00  0.00    -0.083 Cl
ENDBRANCH   1  17
BRANCH   3  21
ATOM     21  C   UNL     1      -0.382  -7.026   0.564  0.00  0.00    +0.250 C 
ATOM     22  O   UNL     1      -1.371  -6.448   0.156  0.00  0.00    -0.270 OA
ATOM     23  N   UNL     1      -0.409  -8.361   0.748  0.00  0.00    -0.304 N 
ATOM     24  H   UNL     1       0.353  -8.812   1.143  0.00  0.00    +0.149 HD
BRANCH  23  25
ATOM     25  C   UNL     1      -1.591  -9.131   0.351  0.00  0.00    +0.179 C 
BRANCH  25  26
ATOM     26  C   UNL     1      -1.367 -10.589   0.661  0.00  0.00    +0.122 A 
ATOM     27  C   UNL     1      -1.684 -11.206   1.814  0.00  0.00    +0.046 A 
ATOM     28  C   UNL     1      -1.304 -12.560   1.672  0.00  0.00    +0.041 A 
ATOM     29  C   UNL     1      -0.777 -12.690   0.441  0.00  0.00    +0.195 A 
ATOM     30  O   UNL     1      -0.824 -11.494  -0.169  0.00  0.00    -0.466 OA
ENDBRANCH  25  26
ENDBRANCH  23  25
ENDBRANCH   3  21
BRANCH   9  31
ATOM     31  O   UNL     1       3.982  -2.527   2.026  0.00  0.00    -0.491 OA
ATOM     32  C   UNL     1       5.165  -1.768   2.282  0.00  0.00    +0.277 C 
ENDBRANCH   9  31
TORSDOF 5
