REMARK  Name = ZINC16212231
REMARK  8 active torsions:
REMARK  status: ('A' for Active; 'I' for Inactive)
REMARK    1  A    between atoms: C_4  and  N_7
REMARK    2  A    between atoms: C_9  and  C_17
REMARK    3  A    between atoms: C_10  and  C_12
REMARK    4  A    between atoms: C_18  and  C_19
REMARK    5  A    between atoms: C_19  and  O_21
REMARK    6  A    between atoms: O_21  and  C_22
REMARK    7  A    between atoms: C_22  and  C_23
REMARK    8  A    between atoms: N_28  and  C_31
REMARK                            x       y       z     vdW  Elec       q    Type
REMARK                         _______ _______ _______ _____ _____    ______ ____
ROOT
ATOM      1  C   UNL     1      -6.457   4.845  -4.278  0.00  0.00    +0.332 C 
ATOM      2  O   UNL     1      -6.700   3.681  -4.540  0.00  0.00    -0.246 OA
ENDROOT
BRANCH   1   4
ATOM      3  C   UNL     1      -7.989   5.577  -5.971  0.00  0.00    +0.018 C 
ATOM      4  C   UNL     1      -7.102   5.880  -4.995  0.00  0.00    +0.092 C 
BRANCH   3   7
ATOM      5  N   UNL     1      -9.284   8.644  -7.416  0.00  0.00    -0.239 N 
ATOM      6  C   UNL     1      -8.493   8.011  -6.531  0.00  0.00    +0.123 A 
ATOM      7  C   UNL     1      -8.657   6.650  -6.714  0.00  0.00    +0.021 A 
ATOM      8  C   UNL     1      -9.639   6.494  -7.795  0.00  0.00    +0.107 A 
ATOM      9  N   UNL     1      -9.982   7.705  -8.180  0.00  0.00    -0.165 NA
BRANCH   5  13
ATOM     10  C   UNL     1      -9.619  12.780  -7.805  0.00  0.00    +0.000 A 
ATOM     11  C   UNL     1     -10.363  11.947  -8.621  0.00  0.00    +0.002 A 
ATOM     12  C   UNL     1     -10.254  10.576  -8.495  0.00  0.00    +0.028 A 
ATOM     13  C   UNL     1      -9.397  10.034  -7.547  0.00  0.00    +0.065 A 
ATOM     14  C   UNL     1      -8.655  10.872  -6.725  0.00  0.00    +0.028 A 
ATOM     15  C   UNL     1      -8.764  12.242  -6.860  0.00  0.00    +0.002 A 
ENDBRANCH   5  13
BRANCH   8  16
ATOM     16  C   UNL     1     -10.145   5.221  -8.345  0.00  0.00    +0.040 A 
ATOM     17  C   UNL     1     -11.398   4.918  -8.810  0.00  0.00    +0.018 A 
ATOM     18  C   UNL     1     -11.639   3.648  -9.285  0.00  0.00    +0.008 A 
ATOM     19  C   UNL     1     -10.635   2.735  -9.269  0.00  0.00    +0.046 A 
ATOM     20  S   UNL     1      -9.286   3.672  -8.571  0.00  0.00    -0.095 S 
ENDBRANCH   8  16
ENDBRANCH   3   7
ENDBRANCH   1   4
BRANCH   1  21
ATOM     21  O   UNL     1      -5.572   5.147  -3.305  0.00  0.00    -0.452 OA
BRANCH  21  22
ATOM     22  C   UNL     1      -4.959   4.051  -2.623  0.00  0.00    +0.328 C 
BRANCH  22  23
ATOM     23  C   UNL     1      -4.009   4.579  -1.578  0.00  0.00    +0.253 C 
ATOM     24  O   UNL     1      -3.871   5.775  -1.433  0.00  0.00    -0.272 OA
ATOM     25  N   UNL     1      -3.313   3.721  -0.806  0.00  0.00    -0.296 N 
ATOM     26  C   UNL     1      -2.381   4.214   0.219  0.00  0.00    +0.127 C 
ATOM     27  C   UNL     1      -1.031   3.514   0.026  0.00  0.00    +0.125 C 
ATOM     28  N   UNL     1      -1.233   2.059   0.019  0.00  0.00    -0.314 N 
ATOM     29  C   UNL     1      -2.073   1.644  -1.112  0.00  0.00    +0.125 C 
ATOM     30  C   UNL     1      -3.466   2.267  -0.966  0.00  0.00    +0.127 C 
BRANCH  28  31
ATOM     31  C   UNL     1      -0.017   1.387   0.010  0.00  0.00    +0.099 A 
ATOM     32  C   UNL     1       0.002  -0.004   0.002  0.00  0.00    +0.042 A 
ATOM     33  C   UNL     1       1.220  -0.660  -0.013  0.00  0.00    +0.005 A 
ATOM     34  C   UNL     1       2.382   0.100  -0.020  0.00  0.00    +0.018 A 
ATOM     35  C   UNL     1       2.289   1.477  -0.012  0.00  0.00    +0.084 A 
ATOM     36  N   UNL     1       1.111   2.155   0.003  0.00  0.00    -0.350 N 
ATOM     37  H   UNL     1       1.072   3.181   0.009  0.00  0.00    +0.166 HD
ENDBRANCH  28  31
ENDBRANCH  22  23
ENDBRANCH  21  22
ENDBRANCH   1  21
TORSDOF 8
