REMARK  Name = ZINC08711092
REMARK  8 active torsions:
REMARK  status: ('A' for Active; 'I' for Inactive)
REMARK    1  A    between atoms: C_1  and  C_2
REMARK    2  A    between atoms: C_2  and  C_4
REMARK    3  A    between atoms: C_2  and  O_16
REMARK    4  A    between atoms: O_16  and  C_17
REMARK    5  A    between atoms: C_17  and  C_19
REMARK    6  A    between atoms: C_19  and  C_20
REMARK    7  A    between atoms: C_20  and  C_21
REMARK    8  A    between atoms: C_21  and  N_22
REMARK                            x       y       z     vdW  Elec       q    Type
REMARK                         _______ _______ _______ _____ _____    ______ ____
ROOT
ATOM      1  C   UNL     1       5.406   7.073  -1.454  0.00  0.00    +0.122 C 
ENDROOT
BRANCH   1   2
ATOM      2  C   UNL     1       5.825   7.335  -2.878  0.00  0.00    +0.308 C 
ATOM      3  O   UNL     1       5.140   6.941  -3.792  0.00  0.00    -0.251 OA
BRANCH   2   4
ATOM      4  O   UNL     1       6.959   8.007  -3.130  0.00  0.00    -0.454 OA
BRANCH   4   6
ATOM      5  C   UNL     1       8.153   7.057  -5.028  0.00  0.00    +0.060 C 
ATOM      6  C   UNL     1       7.301   8.223  -4.525  0.00  0.00    +0.239 C 
BRANCH   6   7
ATOM      7  C   UNL     1       8.078   9.508  -4.658  0.00  0.00    +0.151 A 
ATOM      8  N   UNL     1       7.402  10.683  -4.566  0.00  0.00    -0.307 N 
ATOM      9  H   UNL     1       6.443  10.675  -4.419  0.00  0.00    +0.170 HD
ATOM     10  C   UNL     1       8.055  11.863  -4.673  0.00  0.00    +0.259 A 
ATOM     11  O   UNL     1       7.462  12.923  -4.589  0.00  0.00    -0.267 OA
ATOM     12  C   UNL     1       9.506  11.816  -4.903  0.00  0.00    +0.065 A 
ATOM     13  C   UNL     1      10.270  12.974  -5.034  0.00  0.00    +0.015 A 
ATOM     14  C   UNL     1      11.627  12.871  -5.248  0.00  0.00    +0.001 A 
ATOM     15  C   UNL     1      12.236  11.626  -5.334  0.00  0.00    +0.002 A 
ATOM     16  C   UNL     1      11.499  10.470  -5.208  0.00  0.00    +0.028 A 
ATOM     17  C   UNL     1      10.122  10.548  -4.990  0.00  0.00    +0.078 A 
ATOM     18  N   UNL     1       9.358   9.435  -4.860  0.00  0.00    -0.230 NA
ENDBRANCH   6   7
ENDBRANCH   4   6
ENDBRANCH   2   4
ENDBRANCH   1   2
BRANCH   1  19
ATOM     19  C   UNL     1       4.088   6.295  -1.446  0.00  0.00    +0.031 C 
BRANCH  19  20
ATOM     20  C   UNL     1       3.662   6.029  -0.001  0.00  0.00    +0.117 C 
BRANCH  20  21
ATOM     21  N   UNL     1       2.400   5.285   0.007  0.00  0.00    -0.234 N 
ATOM     22  C   UNL     1       2.441   3.939  -0.000  0.00  0.00    +0.254 C 
ATOM     23  O   UNL     1       3.514   3.366  -0.013  0.00  0.00    -0.270 OA
ATOM     24  C   UNL     1       1.196   3.157   0.008  0.00  0.00    +0.046 A 
ATOM     25  C   UNL     1       1.191   1.770   0.000  0.00  0.00    +0.014 A 
ATOM     26  C   UNL     1      -0.013   1.076   0.008  0.00  0.00    +0.001 A 
ATOM     27  C   UNL     1      -1.213   1.726   0.017  0.00  0.00    +0.008 A 
ATOM     28  C   UNL     1      -1.253   3.131   0.030  0.00  0.00    -0.016 A 
ATOM     29  C   UNL     1      -0.038   3.847   0.023  0.00  0.00    +0.006 A 
ATOM     30  C   UNL     1      -0.044   5.261   0.030  0.00  0.00    +0.046 A 
ATOM     31  C   UNL     1      -1.260   5.928   0.044  0.00  0.00    +0.014 A 
ATOM     32  C   UNL     1      -2.450   5.211   0.051  0.00  0.00    +0.001 A 
ATOM     33  C   UNL     1      -2.463   3.846   0.044  0.00  0.00    +0.008 A 
ATOM     34  C   UNL     1       1.242   5.972   0.022  0.00  0.00    +0.254 C 
ATOM     35  O   UNL     1       1.261   7.188   0.029  0.00  0.00    -0.270 OA
ENDBRANCH  20  21
ENDBRANCH  19  20
ENDBRANCH   1  19
TORSDOF 7
