REMARK  Name = ZINC13625455
REMARK  9 active torsions:
REMARK  status: ('A' for Active; 'I' for Inactive)
REMARK    1  A    between atoms: C_1  and  C_2
REMARK    2  A    between atoms: C_2  and  C_34
REMARK    3  A    between atoms: C_4  and  N_9
REMARK    4  A    between atoms: C_6  and  C_7
REMARK    5  A    between atoms: C_6  and  C_8
REMARK    6  A    between atoms: C_10  and  C_12
REMARK    7  A    between atoms: N_23  and  C_25
REMARK    8  A    between atoms: C_28  and  O_31
REMARK    9  A    between atoms: O_31  and  C_32
REMARK                            x       y       z     vdW  Elec       q    Type
REMARK                         _______ _______ _______ _____ _____    ______ ____
ROOT
ATOM      1  C   UNL     1       2.462   0.920  -0.017  0.00  0.00    +0.122 C 
ATOM      2  C   UNL     1       2.678   0.131   1.315  0.00  0.00    +0.155 C 
ATOM      3  C   UNL     1       3.996  -0.637   1.169  0.00  0.00    +0.004 C 
ATOM      4  C   UNL     1       4.989   0.257   1.249  0.00  0.00    +0.008 C 
ATOM      5  C   UNL     1       4.282   1.556   1.400  0.00  0.00    +0.116 C 
ATOM      6  C   UNL     1       3.644   1.905   0.005  0.00  0.00    +0.127 C 
ATOM      7  C   UNL     1       3.265   3.344   0.217  0.00  0.00    +0.227 C 
ATOM      8  O   UNL     1       2.382   3.931  -0.371  0.00  0.00    -0.275 OA
ATOM      9  N   UNL     1       4.068   3.883   1.170  0.00  0.00    -0.268 N 
ATOM     10  C   UNL     1       4.944   2.847   1.769  0.00  0.00    +0.153 C 
ATOM     11  O   UNL     1       3.110   1.232   2.195  0.00  0.00    -0.359 OA
ENDROOT
BRANCH   9  12
ATOM     12  C   UNL     1       4.068   5.235   1.538  0.00  0.00    +0.037 A 
ATOM     13  C   UNL     1       4.927   5.684   2.532  0.00  0.00    +0.027 A 
ATOM     14  C   UNL     1       4.931   7.017   2.890  0.00  0.00    +0.047 A 
ATOM     15  C   UNL     1       4.068   7.906   2.265  0.00  0.00    +0.120 A 
ATOM     16  C   UNL     1       3.206   7.457   1.275  0.00  0.00    +0.047 A 
ATOM     17  C   UNL     1       3.205   6.125   0.912  0.00  0.00    +0.027 A 
BRANCH  15  18
ATOM     18  O   UNL     1       4.068   9.218   2.622  0.00  0.00    -0.495 OA
ATOM     19  C   UNL     1       4.982   9.611   3.648  0.00  0.00    +0.277 C 
ENDBRANCH  15  18
ENDBRANCH   9  12
BRANCH   1  21
ATOM     20  N   UNL     1       0.491   1.890  -1.154  0.00  0.00    -0.312 N 
ATOM     21  C   UNL     1       1.147   1.655   0.000  0.00  0.00    +0.220 C 
ATOM     22  O   UNL     1       0.678   2.037   1.052  0.00  0.00    -0.275 OA
ATOM     23  H   UNL     1       0.866   1.585  -1.995  0.00  0.00    +0.149 HD
BRANCH  20  27
ATOM     24  C   UNL     1      -2.216   5.322  -1.704  0.00  0.00    -0.010 C 
ATOM     25  C   UNL     1      -2.337   4.026  -2.515  0.00  0.00    -0.072 C 
ATOM     26  C   UNL     1      -1.002   3.285  -2.494  0.00  0.00    +0.009 C 
ATOM     27  C   UNL     1      -0.787   2.612  -1.139  0.00  0.00    +0.070 C 
ATOM     28  C   UNL     1      -1.924   1.617  -0.905  0.00  0.00    +0.009 C 
ATOM     29  C   UNL     1      -3.269   2.339  -0.904  0.00  0.00    -0.072 C 
ATOM     30  C   UNL     1      -3.440   3.105   0.413  0.00  0.00    -0.010 C 
ATOM     31  C   UNL     1      -4.376   1.262  -0.954  0.00  0.00    -0.010 C 
ATOM     32  C   UNL     1      -2.622   4.427  -3.979  0.00  0.00    -0.010 C 
ATOM     33  N   UNL     1      -3.508   3.219  -2.080  0.00  0.00    +0.386 N 
ATOM     34  H   UNL     1      -3.795   2.625  -2.868  0.00  0.00    -0.084 HD
ATOM     35  H   UNL     1      -4.270   3.866  -1.844  0.00  0.00    -0.084 HD
ENDBRANCH  20  27
ENDBRANCH   1  21
TORSDOF 4
