REMARK  Name = ZINC50396644
REMARK  4 active torsions:
REMARK  status: ('A' for Active; 'I' for Inactive)
REMARK    1  A    between atoms: C_3  and  S_16
REMARK    2  A    between atoms: C_6  and  N_7
REMARK    3  A    between atoms: N_7  and  C_8
REMARK    4  A    between atoms: S_16  and  C_19
REMARK                            x       y       z     vdW  Elec       q    Type
REMARK                         _______ _______ _______ _____ _____    ______ ____
ROOT
ATOM      1  C   UNL     1      -0.017   1.385   0.010  0.00  0.00    +0.025 A 
ATOM      2  C   UNL     1       1.171   2.090   0.002  0.00  0.00    +0.029 A 
ATOM      3  C   UNL     1       2.377   1.415  -0.013  0.00  0.00    +0.098 A 
ATOM      4  C   UNL     1       2.400   0.032  -0.021  0.00  0.00    +0.029 A 
ATOM      5  C   UNL     1       1.216  -0.679  -0.014  0.00  0.00    +0.025 A 
ATOM      6  C   UNL     1       0.002  -0.004   0.002  0.00  0.00    +0.028 A 
ENDROOT
BRANCH   3   7
ATOM      7  S   UNL     1       3.890   2.319  -0.024  0.00  0.00    +0.091 S 
ATOM      8  O   UNL     1       4.828   1.448  -0.641  0.00  0.00    -0.161 OA
ATOM      9  O   UNL     1       3.562   3.567  -0.618  0.00  0.00    -0.161 OA
BRANCH   7  10
ATOM     10  C   UNL     1       4.308   2.549   1.726  0.00  0.00    +0.526 C 
ATOM     11  F   UNL     1       4.456   1.300   2.338  0.00  0.00    -0.150 F 
ATOM     12  F   UNL     1       5.506   3.264   1.829  0.00  0.00    -0.150 F 
ATOM     13  F   UNL     1       3.284   3.261   2.360  0.00  0.00    -0.150 F 
ENDBRANCH   7  10
ENDBRANCH   3   7
BRANCH   6  14
ATOM     14  N   UNL     1      -1.197  -0.720   0.010  0.00  0.00    -0.333 N 
ATOM     15  H   UNL     1      -2.044  -0.248   0.021  0.00  0.00    +0.147 HD
BRANCH  14  16
ATOM     16  C   UNL     1      -1.175  -2.185   0.002  0.00  0.00    +0.157 C 
ATOM     17  C   UNL     1      -2.480  -2.710  -0.602  0.00  0.00    +0.033 C 
ATOM     18  C   UNL     1      -2.557  -4.221  -0.351  0.00  0.00    +0.021 C 
ATOM     19  C   UNL     1      -2.721  -4.460   1.150  0.00  0.00    +0.104 C 
ATOM     20  N   UNL     1      -1.710  -3.723   1.898  0.00  0.00    -0.314 N 
ATOM     21  C   UNL     1      -1.026  -2.690   1.409  0.00  0.00    +0.233 C 
ATOM     22  O   UNL     1      -0.238  -2.127   2.140  0.00  0.00    -0.274 OA
ATOM     23  H   UNL     1      -1.525  -4.001   2.808  0.00  0.00    +0.149 HD
ENDBRANCH  14  16
ENDBRANCH   6  14
TORSDOF 4
