REMARK  Name = ZINC09557113
REMARK  10 active torsions:
REMARK  status: ('A' for Active; 'I' for Inactive)
REMARK    1  A    between atoms: C_1  and  C_2
REMARK    2  A    between atoms: C_2  and  C_3
REMARK    3  A    between atoms: C_3  and  N_4
REMARK    4  A    between atoms: C_14  and  C_15
REMARK    5  A    between atoms: C_15  and  C_16
REMARK    6  A    between atoms: C_19  and  O_22
REMARK    7  A    between atoms: O_22  and  C_23
REMARK    8  A    between atoms: C_23  and  C_24
REMARK    9  A    between atoms: N_31  and  C_32
REMARK   10  A    between atoms: C_32  and  C_33
REMARK                            x       y       z     vdW  Elec       q    Type
REMARK                         _______ _______ _______ _____ _____    ______ ____
ROOT
ATOM      1  N   UNL     1       0.648  -2.196   0.366  0.00  0.00    -0.269 N 
ATOM      2  C   UNL     1      -0.577  -2.749   0.743  0.00  0.00    +0.042 A 
ATOM      3  C   UNL     1      -1.843  -2.175   0.843  0.00  0.00    +0.024 A 
ATOM      4  C   UNL     1      -2.920  -2.937   1.245  0.00  0.00    +0.002 A 
ATOM      5  C   UNL     1      -2.753  -4.275   1.551  0.00  0.00    +0.000 A 
ATOM      6  C   UNL     1      -1.500  -4.853   1.455  0.00  0.00    +0.008 A 
ATOM      7  C   UNL     1      -0.422  -4.095   1.055  0.00  0.00    +0.011 A 
ATOM      8  C   UNL     1       1.038  -4.402   0.854  0.00  0.00    +0.174 C 
ATOM      9  C   UNL     1       1.645  -3.100   0.397  0.00  0.00    +0.253 C 
ATOM     10  O   UNL     1       2.808  -2.904   0.114  0.00  0.00    -0.272 OA
ATOM     11  C   UNL     1       1.675  -4.885   2.129  0.00  0.00    +0.089 C 
ATOM     12  C   UNL     1       2.184  -6.113   1.862  0.00  0.00    +0.250 C 
ATOM     13  O   UNL     1       2.842  -6.898   2.746  0.00  0.00    -0.282 OA
ATOM     14  C   UNL     1       1.905  -6.458   0.452  0.00  0.00    +0.288 C 
ATOM     15  O   UNL     1       2.234  -7.494  -0.091  0.00  0.00    -0.266 OA
ATOM     16  N   UNL     1       1.231  -5.453  -0.142  0.00  0.00    -0.270 N 
ENDROOT
BRANCH  11  17
ATOM     17  C   UNL     1       1.732  -4.170   3.407  0.00  0.00    +0.196 C 
ATOM     18  O   UNL     1       0.734  -4.072   4.096  0.00  0.00    -0.287 OA
BRANCH  17  19
ATOM     19  C   UNL     1       3.002  -3.567   3.859  0.00  0.00    +0.022 A 
ATOM     20  C   UNL     1       4.137  -3.631   3.045  0.00  0.00    +0.015 A 
ATOM     21  C   UNL     1       5.319  -3.067   3.470  0.00  0.00    +0.046 A 
ATOM     22  C   UNL     1       5.385  -2.435   4.707  0.00  0.00    +0.121 A 
ATOM     23  C   UNL     1       4.258  -2.369   5.519  0.00  0.00    +0.046 A 
ATOM     24  C   UNL     1       3.071  -2.925   5.099  0.00  0.00    +0.015 A 
BRANCH  22  25
ATOM     25  O   UNL     1       6.552  -1.881   5.122  0.00  0.00    -0.488 OA
BRANCH  25  26
ATOM     26  C   UNL     1       6.549  -1.247   6.402  0.00  0.00    +0.256 C 
BRANCH  26  27
ATOM     27  C   UNL     1       7.921  -0.694   6.692  0.00  0.00    +0.006 C 
ATOM     28  C   UNL     1       8.050   0.514   7.182  0.00  0.00    +0.007 C 
ENDBRANCH  26  27
ENDBRANCH  25  26
ENDBRANCH  22  25
ENDBRANCH  17  19
ENDBRANCH  11  17
BRANCH   1  29
ATOM     29  C   UNL     1       0.827  -0.795  -0.025  0.00  0.00    +0.113 C 
BRANCH  29  31
ATOM     30  C   UNL     1       0.608   0.838  -1.903  0.00  0.00    +0.005 C 
ATOM     31  C   UNL     1       0.530  -0.641  -1.518  0.00  0.00    +0.016 C 
ENDBRANCH  29  31
ENDBRANCH   1  29
BRANCH  16  32
ATOM     32  C   UNL     1       0.775  -5.420  -1.534  0.00  0.00    +0.141 C 
BRANCH  32  33
ATOM     33  C   UNL     1      -0.576  -6.129  -1.645  0.00  0.00    +0.136 C 
ATOM     34  C   UNL     1      -1.084  -6.094  -3.108  0.00  0.00    +0.035 C 
ATOM     35  C   UNL     1      -2.020  -7.333  -3.126  0.00  0.00    +0.031 C 
ATOM     36  C   UNL     1      -1.297  -8.303  -2.167  0.00  0.00    +0.160 C 
ATOM     37  O   UNL     1      -0.436  -7.523  -1.327  0.00  0.00    -0.375 OA
ENDBRANCH  32  33
ENDBRANCH  16  32
TORSDOF 9
