REMARK  Name = ZINC42015205
REMARK  4 active torsions:
REMARK  status: ('A' for Active; 'I' for Inactive)
REMARK    1  A    between atoms: C_1  and  C_2
REMARK    2  A    between atoms: C_4  and  C_9
REMARK    3  A    between atoms: C_7  and  N_8
REMARK    4  A    between atoms: N_13  and  C_14
REMARK                            x       y       z     vdW  Elec       q    Type
REMARK                         _______ _______ _______ _____ _____    ______ ____
ROOT
ATOM      1  C   UNL     1      -0.288  -2.962  -2.465  0.00  0.00    +0.187 A 
ATOM      2  N   UNL     1      -0.523  -2.428  -3.646  0.00  0.00    -0.108 NA
ATOM      3  N   UNL     1      -0.020  -3.156  -4.577  0.00  0.00    -0.022 NA
ATOM      4  N   UNL     1       0.563  -4.191  -4.077  0.00  0.00    -0.039 NA
ATOM      5  N   UNL     1       0.419  -4.108  -2.681  0.00  0.00    -0.190 N 
ENDROOT
BRANCH   5   6
ATOM      6  C   UNL     1       0.898  -5.009  -1.720  0.00  0.00    +0.107 A 
ATOM      7  C   UNL     1       1.761  -4.571  -0.725  0.00  0.00    +0.069 A 
ATOM      8  C   UNL     1       2.232  -5.462   0.223  0.00  0.00    +0.126 A 
ATOM      9  C   UNL     1       1.842  -6.790   0.179  0.00  0.00    +0.041 A 
ATOM     10  C   UNL     1       0.984  -7.230  -0.811  0.00  0.00    +0.043 A 
ATOM     11  C   UNL     1       0.505  -6.342  -1.758  0.00  0.00    +0.149 A 
ATOM     12  F   UNL     1      -0.338  -6.771  -2.721  0.00  0.00    -0.203 F 
ATOM     13  F   UNL     1       3.072  -5.036   1.191  0.00  0.00    -0.205 F 
ENDBRANCH   5   6
BRANCH   1  17
ATOM     14  C   UNL     1      -1.820   0.883   0.319  0.00  0.00    +0.045 C 
ATOM     15  C   UNL     1      -1.445  -0.571   0.188  0.00  0.00    -0.029 A 
ATOM     16  C   UNL     1      -1.054  -1.073  -1.034  0.00  0.00    +0.016 A 
ATOM     17  C   UNL     1      -0.707  -2.420  -1.155  0.00  0.00    +0.021 A 
ATOM     18  C   UNL     1      -0.757  -3.254  -0.036  0.00  0.00    +0.013 A 
ATOM     19  C   UNL     1      -1.148  -2.746   1.183  0.00  0.00    +0.023 A 
ATOM     20  C   UNL     1      -1.488  -1.402   1.302  0.00  0.00    +0.028 A 
BRANCH  20  21
ATOM     21  N   UNL     1      -1.877  -0.890   2.539  0.00  0.00    -0.358 N 
ATOM     22  H   UNL     1      -2.118   0.046   2.622  0.00  0.00    +0.142 HD
ATOM     23  H   UNL     1      -1.907  -1.469   3.316  0.00  0.00    +0.142 HD
ENDBRANCH  20  21
ENDBRANCH   1  17
TORSDOF 3
