REMARK  Name = ZINC38800641
REMARK  15 active torsions:
REMARK  status: ('A' for Active; 'I' for Inactive)
REMARK    1  A    between atoms: C_1  and  C_2
REMARK    2  A    between atoms: C_2  and  C_3
REMARK    3  A    between atoms: C_3  and  C_4
REMARK    4  A    between atoms: C_4  and  N_5
REMARK    5  A    between atoms: C_6  and  N_37
REMARK    6  A    between atoms: C_8  and  N_15
REMARK    7  A    between atoms: N_15  and  C_16
REMARK    8  A    between atoms: C_16  and  C_17
REMARK    9  A    between atoms: C_17  and  O_18
REMARK   10  A    between atoms: O_18  and  C_19
REMARK   11  A    between atoms: C_20  and  C_22
REMARK   12  A    between atoms: C_22  and  S_23
REMARK   13  A    between atoms: S_23  and  C_24
REMARK   14  A    between atoms: C_28  and  C_30
REMARK   15  A    between atoms: C_33  and  C_36
REMARK                            x       y       z     vdW  Elec       q    Type
REMARK                         _______ _______ _______ _____ _____    ______ ____
ROOT
ATOM      1  N   UNL     1       0.756  -5.364  -3.730  0.00  0.00    -0.287 N 
ATOM      2  C   UNL     1       1.026  -5.692  -2.451  0.00  0.00    +0.227 C 
ATOM      3  O   UNL     1       1.731  -4.971  -1.776  0.00  0.00    -0.275 OA
ENDROOT
BRANCH   1   6
ATOM      4  N   UNL     1       1.098  -4.680  -6.632  0.00  0.00    -0.296 N 
ATOM      5  C   UNL     1       2.013  -4.313  -5.548  0.00  0.00    +0.047 C 
ATOM      6  C   UNL     1       1.207  -4.078  -4.268  0.00  0.00    +0.167 C 
ATOM      7  C   UNL     1       0.011  -3.217  -4.584  0.00  0.00    +0.261 C 
ATOM      8  O   UNL     1      -0.451  -2.354  -3.664  0.00  0.00    -0.272 OA
ATOM      9  N   UNL     1      -0.578  -3.303  -5.743  0.00  0.00    -0.126 NA
ATOM     10  C   UNL     1      -0.123  -4.122  -6.707  0.00  0.00    +0.327 C 
ATOM     11  O   UNL     1      -0.833  -4.368  -7.665  0.00  0.00    -0.250 OA
BRANCH   5  12
ATOM     12  N   UNL     1       2.734  -3.085  -5.908  0.00  0.00    +0.392 N 
ATOM     13  H   UNL     1       2.072  -2.338  -6.056  0.00  0.00    -0.087 HD
ATOM     14  H   UNL     1       3.364  -2.833  -5.161  0.00  0.00    -0.087 HD
ATOM     15  H   UNL     1       3.261  -3.240  -6.754  0.00  0.00    -0.087 HD
ENDBRANCH   5  12
BRANCH   4  16
ATOM     16  C   UNL     1       1.518  -5.654  -7.643  0.00  0.00    +0.107 C 
BRANCH  16  17
ATOM     17  C   UNL     1       2.067  -4.917  -8.865  0.00  0.00    +0.019 C 
BRANCH  17  19
ATOM     18  C   UNL     1       3.054  -5.196 -11.143  0.00  0.00    +0.004 C 
ATOM     19  C   UNL     1       2.505  -5.934  -9.920  0.00  0.00    -0.002 C 
ENDBRANCH  17  19
ENDBRANCH  16  17
ENDBRANCH   4  16
ENDBRANCH   1   6
BRANCH   1  20
ATOM     20  C   UNL     1       0.012  -6.294  -4.583  0.00  0.00    +0.136 C 
BRANCH  20  21
ATOM     21  C   UNL     1       0.984  -7.287  -5.224  0.00  0.00    +0.178 C 
BRANCH  21  22
ATOM     22  O   UNL     1       1.542  -8.127  -4.212  0.00  0.00    -0.381 OA
ATOM     23  C   UNL     1       2.469  -9.096  -4.707  0.00  0.00    +0.194 C 
ENDBRANCH  21  22
ENDBRANCH  20  21
ENDBRANCH   1  20
BRANCH   2  24
ATOM     24  C   UNL     1       0.451  -6.953  -1.859  0.00  0.00    +0.173 C 
BRANCH  24  25
ATOM     25  S   UNL     1       0.992  -7.112  -0.135  0.00  0.00    -0.077 S 
BRANCH  25  26
ATOM     26  C   UNL     1       0.248  -8.614   0.408  0.00  0.00    +0.185 A 
ATOM     27  N   UNL     1       0.359  -9.155   1.642  0.00  0.00    -0.253 N 
ATOM     28  H   UNL     1       0.860  -8.794   2.391  0.00  0.00    +0.191 HD
ATOM     29  N   UNL     1      -0.392 -10.341   1.627  0.00  0.00    -0.152 NA
ATOM     30  C   UNL     1      -0.904 -10.454   0.422  0.00  0.00    +0.182 A 
ATOM     31  N   UNL     1      -0.518  -9.402  -0.314  0.00  0.00    -0.201 NA
BRANCH  30  32
ATOM     32  C   UNL     1      -1.772 -11.563  -0.046  0.00  0.00    +0.021 A 
ATOM     33  C   UNL     1      -2.249 -11.573  -1.355  0.00  0.00    +0.012 A 
ATOM     34  C   UNL     1      -3.056 -12.607  -1.785  0.00  0.00    +0.004 A 
ATOM     35  C   UNL     1      -3.391 -13.632  -0.919  0.00  0.00    -0.050 A 
ATOM     36  C   UNL     1      -2.920 -13.628   0.382  0.00  0.00    +0.004 A 
ATOM     37  C   UNL     1      -2.108 -12.601   0.821  0.00  0.00    +0.012 A 
ATOM     38  C   UNL     1      -4.273 -14.758  -1.394  0.00  0.00    +0.044 C 
ENDBRANCH  30  32
ENDBRANCH  25  26
ENDBRANCH  24  25
ENDBRANCH   2  24
TORSDOF 12
