REMARK  Name = ZINC20903768
REMARK  9 active torsions:
REMARK  status: ('A' for Active; 'I' for Inactive)
REMARK    1  A    between atoms: C_1  and  C_2
REMARK    2  A    between atoms: C_2  and  C_3
REMARK    3  A    between atoms: C_6  and  C_9
REMARK    4  A    between atoms: C_12  and  C_34
REMARK    5  A    between atoms: C_19  and  C_22
REMARK    6  A    between atoms: C_22  and  C_23
REMARK    7  A    between atoms: N_25  and  C_26
REMARK    8  A    between atoms: C_29  and  C_33
REMARK    9  A    between atoms: C_31  and  C_32
REMARK                            x       y       z     vdW  Elec       q    Type
REMARK                         _______ _______ _______ _____ _____    ______ ____
ROOT
ATOM      1  C   UNL     1      11.159   1.141  -3.100  0.00  0.00    +0.136 C 
ATOM      2  C   UNL     1      11.546   0.452  -4.424  0.00  0.00    +0.087 C 
ATOM      3  C   UNL     1      10.348  -0.414  -4.747  0.00  0.00    +0.069 C 
ATOM      4  N   UNL     1       9.457  -0.277  -3.827  0.00  0.00    -0.182 NA
ATOM      5  N   UNL     1       9.820   0.604  -2.810  0.00  0.00    -0.195 N 
ATOM      6  C   UNL     1       9.055   0.922  -1.724  0.00  0.00    +0.170 C 
ATOM      7  N   UNL     1       9.348   1.750  -0.730  0.00  0.00    -0.157 NA
ATOM      8  C   UNL     1       8.556   1.999   0.277  0.00  0.00    +0.252 C 
ATOM      9  O   UNL     1       8.862   2.766   1.170  0.00  0.00    -0.272 OA
ATOM     10  C   UNL     1       7.222   1.264   0.256  0.00  0.00    +0.150 C 
ATOM     11  S   UNL     1       7.424   0.320  -1.308  0.00  0.00    -0.078 S 
ENDROOT
BRANCH   1  15
ATOM     12  C   UNL     1      11.006   5.381  -3.594  0.00  0.00    -0.048 A 
ATOM     13  C   UNL     1      12.076   4.799  -2.940  0.00  0.00    +0.004 A 
ATOM     14  C   UNL     1      12.125   3.427  -2.780  0.00  0.00    +0.006 A 
ATOM     15  C   UNL     1      11.105   2.636  -3.274  0.00  0.00    -0.025 A 
ATOM     16  C   UNL     1      10.037   3.217  -3.933  0.00  0.00    +0.006 A 
ATOM     17  C   UNL     1       9.985   4.590  -4.088  0.00  0.00    +0.004 A 
BRANCH  12  19
ATOM     18  C   UNL     1      11.634   7.263  -5.082  0.00  0.00    +0.009 C 
ATOM     19  C   UNL     1      10.951   6.877  -3.768  0.00  0.00    +0.032 C 
ENDBRANCH  12  19
ENDBRANCH   1  15
BRANCH   3  20
ATOM     20  C   UNL     1      10.220  -1.280  -5.933  0.00  0.00    -0.002 A 
ATOM     21  C   UNL     1      11.254  -1.344  -6.871  0.00  0.00    +0.010 A 
ATOM     22  C   UNL     1      11.130  -2.161  -7.975  0.00  0.00    +0.001 A 
ATOM     23  C   UNL     1       9.980  -2.908  -8.161  0.00  0.00    +0.000 A 
ATOM     24  C   UNL     1       8.949  -2.845  -7.240  0.00  0.00    +0.001 A 
ATOM     25  C   UNL     1       9.062  -2.037  -6.128  0.00  0.00    +0.010 A 
ENDBRANCH   3  20
BRANCH  10  26
ATOM     26  C   UNL     1       6.047   2.240   0.172  0.00  0.00    +0.120 C 
BRANCH  26  27
ATOM     27  C   UNL     1       4.758   1.467   0.066  0.00  0.00    +0.219 C 
ATOM     28  O   UNL     1       4.777   0.255   0.059  0.00  0.00    -0.275 OA
ATOM     29  N   UNL     1       3.584   2.123  -0.020  0.00  0.00    -0.285 N 
ATOM     30  H   UNL     1       3.572   3.220  -0.105  0.00  0.00    +0.155 HD
BRANCH  29  31
ATOM     31  C   UNL     1       2.381   1.410  -0.002  0.00  0.00    +0.036 A 
ATOM     32  C   UNL     1       2.322   0.159   0.600  0.00  0.00    +0.024 A 
ATOM     33  C   UNL     1       1.133  -0.543   0.616  0.00  0.00    +0.005 A 
ATOM     34  C   UNL     1       0.001  -0.002   0.035  0.00  0.00    -0.050 A 
ATOM     35  C   UNL     1       0.056   1.242  -0.565  0.00  0.00    +0.008 A 
ATOM     36  C   UNL     1       1.242   1.950  -0.586  0.00  0.00    -0.029 A 
ATOM     37  C   UNL     1       1.301   3.306  -1.240  0.00  0.00    +0.045 C 
ATOM     38  C   UNL     1      -1.295  -0.771   0.055  0.00  0.00    +0.044 C 
ENDBRANCH  29  31
ENDBRANCH  26  27
ENDBRANCH  10  26
TORSDOF 6
