REMARK  Name = ZINC52137739
REMARK  6 active torsions:
REMARK  status: ('A' for Active; 'I' for Inactive)
REMARK    1  A    between atoms: C_1  and  C_2
REMARK    2  A    between atoms: C_6  and  C_8
REMARK    3  A    between atoms: C_8  and  C_9
REMARK    4  A    between atoms: C_11  and  C_14
REMARK    5  A    between atoms: C_14  and  N_22
REMARK    6  A    between atoms: C_18  and  C_21
REMARK                            x       y       z     vdW  Elec       q    Type
REMARK                         _______ _______ _______ _____ _____    ______ ____
ROOT
ATOM      1  C   UNL     1       1.480  -3.080   2.915  0.00  0.00    +0.232 A 
ATOM      2  N   UNL     1       2.192  -2.289   3.669  0.00  0.00    -0.197 NA
ATOM      3  C   UNL     1       3.414  -2.804   3.848  0.00  0.00    +0.161 A 
ATOM      4  N   UNL     1       3.494  -3.934   3.206  0.00  0.00    -0.063 NA
ATOM      5  O   UNL     1       2.232  -4.139   2.590  0.00  0.00    -0.338 OA
ENDROOT
BRANCH   3   6
ATOM      6  C   UNL     1       4.519  -2.177   4.659  0.00  0.00    -0.006 C 
ATOM      7  C   UNL     1       4.864  -0.805   4.077  0.00  0.00    -0.005 C 
ATOM      8  C   UNL     1       5.985  -0.168   4.901  0.00  0.00    -0.001 C 
ATOM      9  C   UNL     1       7.223  -1.067   4.857  0.00  0.00    +0.003 C 
ATOM     10  C   UNL     1       6.878  -2.439   5.440  0.00  0.00    -0.015 C 
ATOM     11  C   UNL     1       5.756  -3.075   4.616  0.00  0.00    -0.002 C 
ATOM     12  C   UNL     1       8.115  -3.337   5.396  0.00  0.00    +0.007 C 
BRANCH   6  13
ATOM     13  N   UNL     1       4.075  -2.021   6.051  0.00  0.00    +0.387 N 
ATOM     14  H   UNL     1       3.848  -2.925   6.435  0.00  0.00    -0.089 HD
ATOM     15  H   UNL     1       4.815  -1.601   6.594  0.00  0.00    -0.089 HD
ATOM     16  H   UNL     1       3.259  -1.428   6.080  0.00  0.00    -0.089 HD
ENDBRANCH   6  13
ENDBRANCH   3   6
BRANCH   1  17
ATOM     17  C   UNL     1       0.054  -2.845   2.489  0.00  0.00    +0.134 C 
BRANCH  17  23
ATOM     18  C   UNL     1      -0.018   1.503   0.010  0.00  0.00    +0.044 C 
ATOM     19  C   UNL     1       0.002  -0.004   0.002  0.00  0.00    -0.050 A 
ATOM     20  C   UNL     1       0.006  -0.689  -1.199  0.00  0.00    +0.003 A 
ATOM     21  C   UNL     1       0.025  -2.071  -1.207  0.00  0.00    +0.001 A 
ATOM     22  C   UNL     1       0.040  -2.768  -0.013  0.00  0.00    +0.004 A 
ATOM     23  C   UNL     1       0.037  -2.084   1.188  0.00  0.00    -0.038 A 
ATOM     24  C   UNL     1       0.023  -0.702   1.195  0.00  0.00    +0.007 A 
ENDBRANCH  17  23
ENDBRANCH   1  17
TORSDOF 4
