REMARK  Name = ZINC13064976
REMARK  13 active torsions:
REMARK  status: ('A' for Active; 'I' for Inactive)
REMARK    1  A    between atoms: C_1  and  C_2
REMARK    2  A    between atoms: C_2  and  C_3
REMARK    3  A    between atoms: C_3  and  C_5
REMARK    4  A    between atoms: C_3  and  N_71
REMARK    5  A    between atoms: N_9  and  C_10
REMARK    6  A    between atoms: C_10  and  C_11
REMARK    7  A    between atoms: C_11  and  C_12
REMARK    8  A    between atoms: C_18  and  C_19
REMARK    9  A    between atoms: C_18  and  N_71
REMARK   10  A    between atoms: C_25  and  C_26
REMARK   11  A    between atoms: C_25  and  N_71
REMARK   12  A    between atoms: C_29  and  C_39
REMARK   13  A    between atoms: C_31  and  C_38
REMARK                            x       y       z     vdW  Elec       q    Type
REMARK                         _______ _______ _______ _____ _____    ______ ____
ROOT
ATOM      1  N   UNL     1       5.193   5.143  -1.679  0.00  0.00    +0.392 N 
ATOM      2  H   UNL     1       4.628   5.828  -2.194  0.00  0.00    -0.080 HD
ENDROOT
BRANCH   1   3
ATOM      3  C   UNL     1       6.407   5.811  -1.165  0.00  0.00    +0.003 C 
BRANCH   3   4
ATOM      4  C   UNL     1       6.062   7.238  -0.822  0.00  0.00    +0.138 A 
ATOM      5  N   UNL     1       4.936   7.669  -0.308  0.00  0.00    -0.115 NA
ATOM      6  N   UNL     1       5.029   8.945  -0.161  0.00  0.00    -0.023 NA
ATOM      7  N   UNL     1       6.182   9.341  -0.575  0.00  0.00    -0.044 NA
ATOM      8  N   UNL     1       6.848   8.317  -0.991  0.00  0.00    -0.231 N 
BRANCH   8   9
ATOM      9  C   UNL     1       8.205   8.328  -1.542  0.00  0.00    +0.152 C 
BRANCH   9  10
ATOM     10  C   UNL     1       8.140   8.542  -3.055  0.00  0.00    +0.058 C 
BRANCH  10  11
ATOM     11  C   UNL     1       9.535   8.533  -3.625  0.00  0.00    -0.046 A 
ATOM     12  C   UNL     1      10.268   9.704  -3.675  0.00  0.00    +0.004 A 
ATOM     13  C   UNL     1      11.550   9.695  -4.192  0.00  0.00    +0.000 A 
ATOM     14  C   UNL     1      12.094   8.517  -4.670  0.00  0.00    +0.000 A 
ATOM     15  C   UNL     1      11.359   7.348  -4.625  0.00  0.00    +0.000 A 
ATOM     16  C   UNL     1      10.079   7.356  -4.103  0.00  0.00    +0.004 A 
ENDBRANCH  10  11
ENDBRANCH   9  10
ENDBRANCH   8   9
ENDBRANCH   3   4
BRANCH   3  18
ATOM     17  C   UNL     1       7.388   3.688  -0.286  0.00  0.00    +0.002 C 
ATOM     18  C   UNL     1       6.920   5.096   0.087  0.00  0.00    -0.011 C 
ENDBRANCH   3  18
ENDBRANCH   1   3
BRANCH   1  19
ATOM     19  C   UNL     1       5.570   4.046  -2.594  0.00  0.00    -0.040 C 
BRANCH  19  20
ATOM     20  C   UNL     1       6.032   4.641  -3.899  0.00  0.00    -0.046 A 
ATOM     21  C   UNL     1       5.115   4.965  -4.887  0.00  0.00    +0.005 A 
ATOM     22  C   UNL     1       5.585   5.515  -6.070  0.00  0.00    +0.020 A 
ATOM     23  C   UNL     1       6.945   5.712  -6.227  0.00  0.00    +0.111 A 
ATOM     24  N   UNL     1       7.788   5.387  -5.267  0.00  0.00    -0.263 NA
ATOM     25  C   UNL     1       7.376   4.866  -4.128  0.00  0.00    +0.112 A 
ENDBRANCH  19  20
ENDBRANCH   1  19
BRANCH   1  26
ATOM     26  C   UNL     1       4.394   4.611  -0.554  0.00  0.00    -0.036 C 
BRANCH  26  27
ATOM     27  C   UNL     1       3.020   4.258  -1.061  0.00  0.00    +0.001 A 
ATOM     28  C   UNL     1       2.742   2.983  -1.429  0.00  0.00    +0.017 A 
ATOM     29  C   UNL     1       1.397   2.673  -1.918  0.00  0.00    +0.002 A 
ATOM     30  C   UNL     1       1.052   1.376  -2.312  0.00  0.00    -0.041 A 
ATOM     31  C   UNL     1      -0.211   1.120  -2.764  0.00  0.00    +0.007 A 
ATOM     32  C   UNL     1      -1.155   2.135  -2.836  0.00  0.00    -0.048 A 
ATOM     33  C   UNL     1      -0.838   3.420  -2.453  0.00  0.00    +0.029 A 
ATOM     34  C   UNL     1       0.443   3.705  -1.989  0.00  0.00    +0.050 A 
ATOM     35  N   UNL     1       0.788   4.981  -1.599  0.00  0.00    -0.322 N 
ATOM     36  H   UNL     1       0.129   5.691  -1.649  0.00  0.00    +0.169 HD
ATOM     37  C   UNL     1       2.026   5.256  -1.152  0.00  0.00    +0.251 A 
ATOM     38  O   UNL     1       2.297   6.397  -0.817  0.00  0.00    -0.268 OA
ATOM     39  C   UNL     1      -2.543   1.828  -3.337  0.00  0.00    +0.044 C 
ATOM     40  C   UNL     1       2.069   0.267  -2.238  0.00  0.00    +0.044 C 
ENDBRANCH  26  27
ENDBRANCH   1  26
TORSDOF 10
