REMARK  Name = ZINC62845206
REMARK  5 active torsions:
REMARK  status: ('A' for Active; 'I' for Inactive)
REMARK    1  A    between atoms: C_1  and  C_2
REMARK    2  A    between atoms: C_2  and  C_3
REMARK    3  A    between atoms: C_3  and  C_18
REMARK    4  A    between atoms: N_6  and  S_9
REMARK    5  A    between atoms: S_9  and  C_12
REMARK                            x       y       z     vdW  Elec       q    Type
REMARK                         _______ _______ _______ _____ _____    ______ ____
ROOT
ATOM      1  C   UNL     1       0.742  -0.511   1.242  0.00  0.00    +0.074 C 
ATOM      2  C   UNL     1       2.177   0.020   1.231  0.00  0.00    +0.035 C 
ATOM      3  C   UNL     1       2.881  -0.447  -0.047  0.00  0.00    +0.110 C 
ATOM      4  N   UNL     1       2.779  -1.909  -0.136  0.00  0.00    -0.176 NA
ATOM      5  C   UNL     1       1.451  -2.531  -0.045  0.00  0.00    +0.110 C 
ATOM      6  C   UNL     1       0.763  -2.041   1.233  0.00  0.00    +0.035 C 
ENDROOT
BRANCH   4   7
ATOM      7  S   UNL     1       4.134  -2.840  -0.335  0.00  0.00    +0.064 S 
ATOM      8  O   UNL     1       3.707  -4.058  -0.929  0.00  0.00    -0.153 OA
ATOM      9  O   UNL     1       5.116  -2.004  -0.931  0.00  0.00    -0.153 OA
BRANCH   7  10
ATOM     10  C   UNL     1       4.728  -3.246   1.274  0.00  0.00    +0.142 A 
ATOM     11  C   UNL     1       5.612  -2.524   2.002  0.00  0.00    +0.133 A 
ATOM     12  N   UNL     1       5.805  -3.170   3.171  0.00  0.00    -0.283 N 
ATOM     13  H   UNL     1       6.389  -2.883   3.891  0.00  0.00    +0.188 HD
ATOM     14  N   UNL     1       5.015  -4.326   3.161  0.00  0.00    -0.180 NA
ATOM     15  C   UNL     1       4.365  -4.368   2.026  0.00  0.00    +0.162 A 
ENDBRANCH   7  10
ENDBRANCH   4   7
BRANCH   1  16
ATOM     16  C   UNL     1       0.036  -0.025   2.481  0.00  0.00    +0.362 C 
ATOM     17  O   UNL     1      -0.966   0.662   2.382  0.00  0.00    -0.246 OA
ATOM     18  O   UNL     1       0.467  -0.320   3.583  0.00  0.00    -0.246 OA
ENDBRANCH   1  16
BRANCH   1  20
ATOM     19  C   UNL     1      -0.019   1.526   0.010  0.00  0.00    +0.005 C 
ATOM     20  C   UNL     1       0.002  -0.004   0.002  0.00  0.00    +0.015 C 
ENDBRANCH   1  20
TORSDOF 4
