REMARK  Name = ZINC35708137
REMARK  5 active torsions:
REMARK  status: ('A' for Active; 'I' for Inactive)
REMARK    1  A    between atoms: C_4  and  C_7
REMARK    2  A    between atoms: C_21  and  C_23
REMARK    3  A    between atoms: C_23  and  N_24
REMARK    4  A    between atoms: N_24  and  C_25
REMARK    5  A    between atoms: N_30  and  C_31
REMARK                            x       y       z     vdW  Elec       q    Type
REMARK                         _______ _______ _______ _____ _____    ______ ____
ROOT
ATOM      1  C   UNL     1       4.756   1.387   0.237  0.00  0.00    +0.159 C 
ATOM      2  C   UNL     1       5.032   1.165  -1.230  0.00  0.00    +0.049 A 
ATOM      3  C   UNL     1       5.971   1.709  -2.012  0.00  0.00    +0.025 A 
ATOM      4  C   UNL     1       5.801   1.176  -3.309  0.00  0.00    +0.020 A 
ATOM      5  C   UNL     1       4.757   0.318  -3.263  0.00  0.00    +0.092 A 
ATOM      6  N   UNL     1       4.280   0.300  -1.996  0.00  0.00    -0.316 N 
ATOM      7  C   UNL     1       3.220  -0.430  -1.438  0.00  0.00    +0.068 A 
ATOM      8  C   UNL     1       2.302  -1.097  -2.224  0.00  0.00    +0.028 A 
ATOM      9  C   UNL     1       1.267  -1.797  -1.628  0.00  0.00    +0.002 A 
ATOM     10  C   UNL     1       1.153  -1.827  -0.250  0.00  0.00    +0.002 A 
ATOM     11  C   UNL     1       2.072  -1.165   0.543  0.00  0.00    +0.025 A 
ATOM     12  C   UNL     1       3.115  -0.465  -0.043  0.00  0.00    +0.061 A 
ATOM     13  N   UNL     1       4.067   0.191   0.750  0.00  0.00    -0.255 N 
ATOM     14  C   UNL     1       4.353  -0.273   1.983  0.00  0.00    +0.238 C 
ATOM     15  O   UNL     1       3.733  -1.212   2.436  0.00  0.00    -0.273 OA
ENDROOT
BRANCH   1  19
ATOM     16  C   UNL     1       2.265   4.821   0.737  0.00  0.00    +0.000 A 
ATOM     17  C   UNL     1       3.627   4.916   0.957  0.00  0.00    +0.000 A 
ATOM     18  C   UNL     1       4.433   3.805   0.795  0.00  0.00    +0.006 A 
ATOM     19  C   UNL     1       3.877   2.598   0.414  0.00  0.00    -0.021 A 
ATOM     20  C   UNL     1       2.516   2.502   0.195  0.00  0.00    +0.006 A 
ATOM     21  C   UNL     1       1.710   3.614   0.356  0.00  0.00    +0.000 A 
ENDBRANCH   1  19
BRANCH  14  22
ATOM     22  C   UNL     1       5.442   0.375   2.799  0.00  0.00    +0.205 C 
BRANCH  22  23
ATOM     23  N   UNL     1       5.650  -0.390   4.031  0.00  0.00    -0.274 N 
ATOM     24  C   UNL     1       4.948  -0.084   5.140  0.00  0.00    +0.307 C 
ATOM     25  O   UNL     1       4.215   0.885   5.147  0.00  0.00    -0.252 OA
ATOM     26  N   UNL     1       5.060  -0.853   6.241  0.00  0.00    -0.269 N 
ATOM     27  H   UNL     1       5.719  -1.564   6.271  0.00  0.00    +0.156 HD
BRANCH  26  28
ATOM     28  C   UNL     1       4.225  -0.625   7.342  0.00  0.00    +0.038 A 
ATOM     29  C   UNL     1       2.921  -0.190   7.147  0.00  0.00    +0.026 A 
ATOM     30  C   UNL     1       2.097   0.034   8.233  0.00  0.00    +0.043 A 
ATOM     31  C   UNL     1       2.570  -0.175   9.517  0.00  0.00    +0.159 A 
ATOM     32  C   UNL     1       3.872  -0.610   9.715  0.00  0.00    +0.160 A 
ATOM     33  C   UNL     1       4.697  -0.841   8.629  0.00  0.00    +0.064 A 
ATOM     34  F   UNL     1       4.332  -0.814  10.969  0.00  0.00    -0.202 F 
ATOM     35  F   UNL     1       1.763   0.045  10.578  0.00  0.00    -0.202 F 
ENDBRANCH  26  28
BRANCH  23  36
ATOM     36  C   UNL     1       6.621  -1.486   4.057  0.00  0.00    +0.078 C 
ATOM     37  C   UNL     1       7.589  -1.601   2.878  0.00  0.00    +0.024 C 
ATOM     38  C   UNL     1       6.447  -2.608   3.031  0.00  0.00    +0.024 C 
ENDBRANCH  23  36
ENDBRANCH  22  23
ENDBRANCH  14  22
TORSDOF 5
