REMARK  Name = ZINC24838786
REMARK  11 active torsions:
REMARK  status: ('A' for Active; 'I' for Inactive)
REMARK    1  A    between atoms: C_1  and  C_2
REMARK    2  A    between atoms: C_2  and  C_3
REMARK    3  A    between atoms: C_6  and  C_9
REMARK    4  A    between atoms: C_9  and  C_11
REMARK    5  A    between atoms: C_9  and  N_32
REMARK    6  A    between atoms: C_11  and  N_12
REMARK    7  A    between atoms: C_13  and  C_15
REMARK    8  A    between atoms: N_18  and  S_21
REMARK    9  A    between atoms: S_21  and  C_24
REMARK   10  A    between atoms: N_32  and  C_33
REMARK   11  A    between atoms: N_32  and  C_34
REMARK                            x       y       z     vdW  Elec       q    Type
REMARK                         _______ _______ _______ _____ _____    ______ ____
ROOT
ATOM      1  N   UNL     1      -1.008   4.137  -1.770  0.00  0.00    -0.316 N 
ATOM      2  C   UNL     1      -0.925   5.281  -2.478  0.00  0.00    +0.216 C 
ATOM      3  O   UNL     1      -0.477   5.267  -3.605  0.00  0.00    -0.276 OA
ATOM      4  H   UNL     1      -1.414   4.150  -0.748  0.00  0.00    +0.149 HD
ENDROOT
BRANCH   2   5
ATOM      5  C   UNL     1      -1.389   6.579  -1.868  0.00  0.00    +0.077 C 
ATOM      6  C   UNL     1      -2.873   6.472  -1.508  0.00  0.00    +0.030 C 
ATOM      7  C   UNL     1      -3.332   7.780  -0.857  0.00  0.00    +0.110 C 
ATOM      8  N   UNL     1      -3.009   8.895  -1.758  0.00  0.00    -0.177 NA
ATOM      9  C   UNL     1      -1.628   9.038  -2.238  0.00  0.00    +0.110 C 
ATOM     10  C   UNL     1      -1.188   7.715  -2.873  0.00  0.00    +0.030 C 
BRANCH   8  11
ATOM     11  S   UNL     1      -4.180   9.970  -2.223  0.00  0.00    +0.061 S 
ATOM     12  O   UNL     1      -5.188   9.931  -1.222  0.00  0.00    -0.153 OA
ATOM     13  O   UNL     1      -3.509  11.170  -2.583  0.00  0.00    -0.153 OA
BRANCH  11  14
ATOM     14  C   UNL     1      -4.909   9.340  -3.698  0.00  0.00    +0.107 A 
ATOM     15  C   UNL     1      -4.392   9.693  -4.930  0.00  0.00    +0.031 A 
ATOM     16  C   UNL     1      -4.959   9.195  -6.088  0.00  0.00    +0.042 A 
ATOM     17  C   UNL     1      -6.054   8.351  -6.014  0.00  0.00    +0.142 A 
ATOM     18  C   UNL     1      -6.576   8.002  -4.779  0.00  0.00    +0.078 A 
ATOM     19  C   UNL     1      -6.002   8.497  -3.622  0.00  0.00    +0.051 A 
ATOM     20 CL   UNL     1      -7.949   6.944  -4.683  0.00  0.00    -0.081 Cl
ATOM     21  F   UNL     1      -6.613   7.868  -7.145  0.00  0.00    -0.204 F 
ENDBRANCH  11  14
ENDBRANCH   8  11
ENDBRANCH   2   5
BRANCH   1  22
ATOM     22  C   UNL     1      -0.557   2.876  -2.363  0.00  0.00    +0.093 C 
BRANCH  22  23
ATOM     23  C   UNL     1      -0.598   1.771  -1.305  0.00  0.00    -0.021 C 
BRANCH  23  27
ATOM     24  C   UNL     1       0.246  -1.992  -3.141  0.00  0.00    -0.048 A 
ATOM     25  C   UNL     1      -1.057  -1.539  -3.062  0.00  0.00    +0.004 A 
ATOM     26  C   UNL     1      -1.331  -0.321  -2.467  0.00  0.00    +0.002 A 
ATOM     27  C   UNL     1      -0.300   0.444  -1.952  0.00  0.00    -0.059 A 
ATOM     28  C   UNL     1       1.004  -0.007  -2.036  0.00  0.00    +0.002 A 
ATOM     29  C   UNL     1       1.276  -1.228  -2.625  0.00  0.00    +0.004 A 
BRANCH  24  31
ATOM     30  C   UNL     1       0.796  -3.112  -5.284  0.00  0.00    +0.009 C 
ATOM     31  C   UNL     1       0.544  -3.320  -3.789  0.00  0.00    +0.032 C 
ENDBRANCH  24  31
ENDBRANCH  23  27
BRANCH  23  32
ATOM     32  N   UNL     1       0.406   2.047  -0.269  0.00  0.00    +0.382 N 
ATOM     33  C   UNL     1       1.559   2.764  -0.831  0.00  0.00    -0.096 C 
ATOM     34  C   UNL     1      -0.183   2.795   0.850  0.00  0.00    -0.096 C 
ATOM     35  H   UNL     1       0.765   1.083   0.120  0.00  0.00    -0.082 HD
ENDBRANCH  23  32
ENDBRANCH  22  23
ENDBRANCH   1  22
TORSDOF 8
