REMARK  Name = ZINC59302593
REMARK  8 active torsions:
REMARK  status: ('A' for Active; 'I' for Inactive)
REMARK    1  A    between atoms: C_1  and  C_2
REMARK    2  A    between atoms: C_2  and  N_3
REMARK    3  A    between atoms: N_3  and  C_4
REMARK    4  A    between atoms: C_4  and  C_5
REMARK    5  A    between atoms: N_16  and  C_17
REMARK    6  A    between atoms: C_17  and  C_18
REMARK    7  A    between atoms: C_26  and  C_33
REMARK    8  A    between atoms: C_29  and  C_32
REMARK                            x       y       z     vdW  Elec       q    Type
REMARK                         _______ _______ _______ _____ _____    ______ ____
ROOT
ATOM      1  N   UNL     1      -1.395  -0.462   0.014  0.00  0.00    -0.282 N 
ATOM      2  C   UNL     1      -2.007  -0.723   1.186  0.00  0.00    +0.303 C 
ATOM      3  O   UNL     1      -3.142  -1.160   1.195  0.00  0.00    -0.253 OA
ATOM      4  N   UNL     1      -1.361  -0.500   2.348  0.00  0.00    -0.295 N 
ATOM      5  H   UNL     1      -0.456  -0.152   2.340  0.00  0.00    +0.151 HD
ENDROOT
BRANCH   1   7
ATOM      6  C   UNL     1      -0.071   1.594   0.028  0.00  0.00    +0.024 C 
ATOM      7  C   UNL     1      -0.028   0.065   0.003  0.00  0.00    +0.106 C 
ENDBRANCH   1   7
BRANCH   1   8
ATOM      8  C   UNL     1      -2.098  -0.704  -1.249  0.00  0.00    +0.144 C 
BRANCH   8   9
ATOM      9  C   UNL     1      -1.828  -2.113  -1.711  0.00  0.00    -0.026 A 
ATOM     10  C   UNL     1      -0.742  -2.376  -2.525  0.00  0.00    +0.009 A 
ATOM     11  C   UNL     1      -0.490  -3.667  -2.951  0.00  0.00    +0.050 A 
ATOM     12  C   UNL     1      -1.327  -4.700  -2.564  0.00  0.00    +0.166 A 
ATOM     13  C   UNL     1      -2.421  -4.436  -1.744  0.00  0.00    +0.167 A 
ATOM     14  C   UNL     1      -2.664  -3.141  -1.316  0.00  0.00    +0.054 A 
ATOM     15  O   UNL     1      -3.081  -5.606  -1.507  0.00  0.00    -0.453 OA
ATOM     16  C   UNL     1      -2.619  -6.521  -2.518  0.00  0.00    +0.466 C 
ATOM     17  O   UNL     1      -1.302  -6.037  -2.840  0.00  0.00    -0.453 OA
ENDBRANCH   8   9
ENDBRANCH   1   8
BRANCH   4  18
ATOM     18  C   UNL     1      -2.026  -0.785   3.622  0.00  0.00    +0.142 C 
BRANCH  18  19
ATOM     19  C   UNL     1      -1.096  -0.451   4.759  0.00  0.00    -0.014 A 
ATOM     20  C   UNL     1      -0.228  -1.413   5.260  0.00  0.00    +0.010 A 
ATOM     21  C   UNL     1       0.609  -1.066   6.305  0.00  0.00    +0.042 A 
ATOM     22  C   UNL     1       0.554   0.227   6.816  0.00  0.00    +0.099 A 
ATOM     23  N   UNL     1      -0.287   1.115   6.311  0.00  0.00    -0.349 N 
ATOM     24  C   UNL     1      -1.093   0.814   5.310  0.00  0.00    +0.089 A 
ATOM     25  N   UNL     1       1.390   0.589   7.866  0.00  0.00    -0.312 N 
ATOM     26  C   UNL     1       1.447   1.979   8.344  0.00  0.00    +0.137 C 
ATOM     27  C   UNL     1       1.268   1.975   9.866  0.00  0.00    +0.133 C 
ATOM     28  O   UNL     1       2.204   1.065  10.448  0.00  0.00    -0.371 OA
ATOM     29  C   UNL     1       2.026  -0.296  10.046  0.00  0.00    +0.133 C 
ATOM     30  C   UNL     1       2.240  -0.408   8.536  0.00  0.00    +0.137 C 
ATOM     31  C   UNL     1       3.037  -1.181  10.775  0.00  0.00    +0.039 C 
ATOM     32  C   UNL     1      -0.156   1.534  10.212  0.00  0.00    +0.039 C 
ATOM     33  H   UNL     1      -0.309   2.011   6.682  0.00  0.00    +0.167 HD
ENDBRANCH  18  19
ENDBRANCH   4  18
TORSDOF 5
