REMARK  Name = ZINC39686313
REMARK  8 active torsions:
REMARK  status: ('A' for Active; 'I' for Inactive)
REMARK    1  A    between atoms: C_1  and  C_2
REMARK    2  A    between atoms: C_2  and  C_3
REMARK    3  A    between atoms: C_2  and  C_4
REMARK    4  A    between atoms: C_4  and  C_5
REMARK    5  A    between atoms: C_10  and  N_13
REMARK    6  A    between atoms: C_14  and  C_16
REMARK    7  A    between atoms: C_27  and  C_29
REMARK    8  A    between atoms: C_32  and  C_34
REMARK                            x       y       z     vdW  Elec       q    Type
REMARK                         _______ _______ _______ _____ _____    ______ ____
ROOT
ATOM      1  C   UNL     1      -7.881  -4.418  -4.332  0.00  0.00    +0.100 C 
ATOM      2  C   UNL     1      -8.195  -5.485  -3.259  0.00  0.00    +0.121 C 
ATOM      3  N   UNL     1      -9.621  -5.267  -2.921  0.00  0.00    -0.294 N 
ATOM      4  C   UNL     1     -10.266  -4.961  -4.220  0.00  0.00    +0.115 C 
ATOM      5  C   UNL     1      -9.243  -4.080  -4.963  0.00  0.00    -0.004 C 
ATOM      6  C   UNL     1      -9.235  -4.420  -6.451  0.00  0.00    -0.010 C 
ATOM      7  C   UNL     1     -10.578  -4.020  -7.068  0.00  0.00    -0.082 C 
ATOM      8  N   UNL     1     -10.800  -2.582  -6.875  0.00  0.00    +0.379 N 
ATOM      9  C   UNL     1     -10.899  -2.279  -5.442  0.00  0.00    -0.082 C 
ATOM     10  C   UNL     1      -9.569  -2.604  -4.756  0.00  0.00    -0.010 C 
ATOM     11  C   UNL     1     -10.201  -5.332  -1.706  0.00  0.00    +0.282 C 
ATOM     12  O   UNL     1     -11.395  -5.125  -1.589  0.00  0.00    -0.267 OA
ATOM     13  H   UNL     1     -10.028  -2.068  -7.273  0.00  0.00    -0.086 HD
ATOM     14  H   UNL     1     -11.655  -2.310  -7.335  0.00  0.00    -0.086 HD
ENDROOT
BRANCH  11  15
ATOM     15  C   UNL     1      -9.394  -5.650  -0.525  0.00  0.00    +0.190 A 
ATOM     16  C   UNL     1      -9.858  -5.753   0.768  0.00  0.00    +0.055 A 
ATOM     17  C   UNL     1      -8.756  -6.071   1.568  0.00  0.00    +0.051 A 
ATOM     18  C   UNL     1      -7.670  -6.149   0.743  0.00  0.00    +0.139 A 
ATOM     19  O   UNL     1      -8.068  -5.899  -0.516  0.00  0.00    -0.450 OA
BRANCH  18  20
ATOM     20  C   UNL     1      -6.291  -6.463   1.164  0.00  0.00    +0.052 A 
ATOM     21  C   UNL     1      -5.711  -5.778   2.235  0.00  0.00    +0.014 A 
ATOM     22  C   UNL     1      -4.422  -6.076   2.623  0.00  0.00    +0.001 A 
ATOM     23  C   UNL     1      -3.700  -7.050   1.955  0.00  0.00    +0.003 A 
ATOM     24  C   UNL     1      -4.266  -7.733   0.894  0.00  0.00    +0.039 A 
ATOM     25  C   UNL     1      -5.559  -7.450   0.497  0.00  0.00    +0.134 A 
ATOM     26  F   UNL     1      -6.113  -8.122  -0.536  0.00  0.00    -0.205 F 
ENDBRANCH  18  20
ENDBRANCH  11  15
BRANCH   1  28
ATOM     27  N   UNL     1      -6.432  -2.415  -4.396  0.00  0.00    -0.312 N 
ATOM     28  C   UNL     1      -7.280  -3.193  -3.694  0.00  0.00    +0.218 C 
ATOM     29  O   UNL     1      -7.559  -2.906  -2.549  0.00  0.00    -0.275 OA
ATOM     30  H   UNL     1      -6.208  -2.644  -5.311  0.00  0.00    +0.149 HD
BRANCH  27  36
ATOM     31  C   UNL     1      -4.559   2.641  -4.306  0.00  0.00    +0.216 C 
ATOM     32  O   UNL     1      -5.375   3.537  -4.299  0.00  0.00    -0.276 OA
ATOM     33  N   UNL     1      -4.879   1.434  -3.798  0.00  0.00    -0.301 N 
ATOM     34  C   UNL     1      -3.899   0.340  -3.793  0.00  0.00    +0.109 C 
ATOM     35  C   UNL     1      -4.524  -0.886  -4.467  0.00  0.00    +0.041 C 
ATOM     36  C   UNL     1      -5.847  -1.224  -3.775  0.00  0.00    +0.076 C 
ATOM     37  C   UNL     1      -6.815  -0.047  -3.919  0.00  0.00    +0.041 C 
ATOM     38  C   UNL     1      -6.213   1.190  -3.233  0.00  0.00    +0.109 C 
BRANCH  31  39
ATOM     39  C   UNL     1      -3.186   2.876  -4.881  0.00  0.00    +0.099 C 
BRANCH  39  41
ATOM     40  C   UNL     1      -3.197   5.280  -4.202  0.00  0.00    +0.008 C 
ATOM     41  C   UNL     1      -3.084   4.317  -5.385  0.00  0.00    -0.008 C 
ATOM     42  C   UNL     1      -1.737   4.520  -6.081  0.00  0.00    +0.008 C 
ENDBRANCH  39  41
ENDBRANCH  31  39
ENDBRANCH  27  36
ENDBRANCH   1  28
TORSDOF 6
