REMARK  Name = ZINC59056957
REMARK  7 active torsions:
REMARK  status: ('A' for Active; 'I' for Inactive)
REMARK    1  A    between atoms: C_1  and  C_2
REMARK    2  A    between atoms: N_4  and  C_5
REMARK    3  A    between atoms: N_4  and  C_22
REMARK    4  A    between atoms: C_5  and  C_6
REMARK    5  A    between atoms: C_11  and  O_12
REMARK    6  A    between atoms: O_12  and  C_13
REMARK    7  A    between atoms: C_13  and  C_14
REMARK                            x       y       z     vdW  Elec       q    Type
REMARK                         _______ _______ _______ _____ _____    ______ ____
ROOT
ATOM      1  C   UNL     1      -0.711  -2.353  -0.826  0.00  0.00    +0.152 C 
ENDROOT
BRANCH   1   2
ATOM      2  C   UNL     1      -1.833  -2.987  -0.046  0.00  0.00    +0.012 A 
ATOM      3  C   UNL     1      -1.654  -3.310   1.286  0.00  0.00    +0.009 A 
ATOM      4  C   UNL     1      -2.683  -3.892   2.002  0.00  0.00    +0.001 A 
ATOM      5  C   UNL     1      -3.895  -4.153   1.388  0.00  0.00    +0.004 A 
ATOM      6  C   UNL     1      -4.079  -3.832   0.057  0.00  0.00    +0.046 A 
ATOM      7  C   UNL     1      -3.049  -3.243  -0.662  0.00  0.00    +0.126 A 
BRANCH   7   8
ATOM      8  O   UNL     1      -3.230  -2.921  -1.970  0.00  0.00    -0.487 OA
BRANCH   8   9
ATOM      9  C   UNL     1      -4.536  -3.122  -2.513  0.00  0.00    +0.266 C 
BRANCH   9  10
ATOM     10  C   UNL     1      -4.531  -2.771  -3.979  0.00  0.00    +0.008 A 
ATOM     11  C   UNL     1      -3.345  -2.433  -4.604  0.00  0.00    +0.010 A 
ATOM     12  C   UNL     1      -3.339  -2.111  -5.948  0.00  0.00    +0.020 A 
ATOM     13  C   UNL     1      -4.520  -2.128  -6.669  0.00  0.00    +0.042 A 
ATOM     14  C   UNL     1      -5.707  -2.467  -6.044  0.00  0.00    +0.040 A 
ATOM     15  C   UNL     1      -5.711  -2.794  -4.700  0.00  0.00    +0.049 A 
ATOM     16 CL   UNL     1      -7.199  -3.226  -3.917  0.00  0.00    -0.083 Cl
ATOM     17 CL   UNL     1      -4.512  -1.723  -8.357  0.00  0.00    -0.083 Cl
ENDBRANCH   9  10
ENDBRANCH   8   9
ENDBRANCH   7   8
ENDBRANCH   1   2
BRANCH   1  21
ATOM     18  C   UNL     1       2.387  -2.717   1.391  0.00  0.00    +0.109 C 
ATOM     19  C   UNL     1       1.309  -2.997   0.376  0.00  0.00    +0.217 C 
ATOM     20  O   UNL     1       1.258  -4.077  -0.173  0.00  0.00    -0.276 OA
ATOM     21  N   UNL     1       0.400  -2.047   0.079  0.00  0.00    -0.267 N 
BRANCH  21  22
ATOM     22  C   UNL     1       0.518  -0.766   0.634  0.00  0.00    +0.039 A 
ATOM     23  C   UNL     1       0.319  -0.580   1.997  0.00  0.00    +0.025 A 
ATOM     24  C   UNL     1       0.434   0.679   2.551  0.00  0.00    +0.029 A 
ATOM     25  C   UNL     1       0.750   1.763   1.745  0.00  0.00    +0.067 A 
ATOM     26  C   UNL     1       0.951   1.579   0.376  0.00  0.00    +0.069 A 
ATOM     27  C   UNL     1       0.840   0.313  -0.176  0.00  0.00    +0.051 A 
ATOM     28  N   UNL     1       1.249   2.831  -0.159  0.00  0.00    -0.306 N 
ATOM     29  H   UNL     1       1.438   3.019  -1.091  0.00  0.00    +0.170 HD
ATOM     30  C   UNL     1       1.230   3.734   0.839  0.00  0.00    +0.325 A 
ATOM     31  O   UNL     1       1.449   4.925   0.711  0.00  0.00    -0.247 OA
ATOM     32  N   UNL     1       0.932   3.122   2.000  0.00  0.00    -0.306 N 
ATOM     33  H   UNL     1       0.857   3.552   2.866  0.00  0.00    +0.170 HD
ENDBRANCH  21  22
ENDBRANCH   1  21
TORSDOF 6
