REMARK  Name = ZINC05892100
REMARK  8 active torsions:
REMARK  status: ('A' for Active; 'I' for Inactive)
REMARK    1  A    between atoms: C_1  and  C_2
REMARK    2  A    between atoms: C_2  and  C_21
REMARK    3  A    between atoms: N_3  and  N_4
REMARK    4  A    between atoms: C_5  and  C_7
REMARK    5  A    between atoms: C_7  and  S_8
REMARK    6  A    between atoms: S_8  and  C_9
REMARK    7  A    between atoms: C_12  and  C_15
REMARK    8  A    between atoms: N_13  and  N_14
REMARK                            x       y       z     vdW  Elec       q    Type
REMARK                         _______ _______ _______ _____ _____    ______ ____
ROOT
ATOM      1  S   UNL     1       0.075  -1.085   6.184  0.00  0.00    -0.075 S 
ENDROOT
BRANCH   1   2
ATOM      2  C   UNL     1       0.075  -0.070   7.625  0.00  0.00    +0.209 A 
ATOM      3  N   UNL     1       0.052   1.245   7.653  0.00  0.00    -0.121 NA
ATOM      4  N   UNL     1       0.059   1.660   8.869  0.00  0.00    -0.127 NA
ATOM      5  C   UNL     1       0.087   0.637   9.691  0.00  0.00    +0.182 A 
ATOM      6  N   UNL     1       0.093  -0.502   8.919  0.00  0.00    -0.224 N 
BRANCH   5   7
ATOM      7  C   UNL     1       0.105   0.697  11.168  0.00  0.00    +0.024 A 
ATOM      8  C   UNL     1       0.451  -0.425  11.930  0.00  0.00    +0.031 A 
ATOM      9  C   UNL     1       0.454  -0.325  13.305  0.00  0.00    +0.111 A 
ATOM     10  N   UNL     1       0.137   0.809  13.902  0.00  0.00    -0.263 NA
ATOM     11  C   UNL     1      -0.196   1.890  13.222  0.00  0.00    +0.111 A 
ATOM     12  C   UNL     1      -0.219   1.880  11.844  0.00  0.00    +0.031 A 
ENDBRANCH   5   7
BRANCH   6  13
ATOM     13  N   UNL     1       0.116  -1.796   9.357  0.00  0.00    -0.295 N 
ATOM     14  H   UNL     1       1.064  -2.125   9.464  0.00  0.00    +0.163 HD
ATOM     15  H   UNL     1      -0.401  -1.895  10.217  0.00  0.00    +0.163 HD
ENDBRANCH   6  13
ENDBRANCH   1   2
BRANCH   1  16
ATOM     16  C   UNL     1       0.046   0.101   4.812  0.00  0.00    +0.174 C 
BRANCH  16  18
ATOM     17  N   UNL     1       0.024   0.035   2.339  0.00  0.00    -0.206 N 
ATOM     18  C   UNL     1       0.044  -0.645   3.503  0.00  0.00    +0.242 C 
ATOM     19  O   UNL     1       0.060  -1.858   3.496  0.00  0.00    -0.273 OA
ATOM     20  H   UNL     1       0.011   1.005   2.345  0.00  0.00    +0.177 HD
BRANCH  17  23
ATOM     21  C   UNL     1      -0.018   1.503   0.010  0.00  0.00    +0.068 C 
ATOM     22  C   UNL     1       0.002  -0.004   0.002  0.00  0.00    +0.063 C 
ATOM     23  N   UNL     1       0.022  -0.659   1.122  0.00  0.00    -0.185 NA
BRANCH  22  24
ATOM     24  C   UNL     1      -0.000  -0.735  -1.279  0.00  0.00    -0.003 A 
ATOM     25  C   UNL     1      -0.015  -0.033  -2.487  0.00  0.00    +0.010 A 
ATOM     26  C   UNL     1      -0.017  -0.723  -3.682  0.00  0.00    +0.001 A 
ATOM     27  C   UNL     1      -0.005  -2.106  -3.685  0.00  0.00    +0.000 A 
ATOM     28  C   UNL     1       0.010  -2.808  -2.493  0.00  0.00    +0.001 A 
ATOM     29  C   UNL     1       0.019  -2.131  -1.291  0.00  0.00    +0.010 A 
ENDBRANCH  22  24
ENDBRANCH  17  23
ENDBRANCH  16  18
ENDBRANCH   1  16
TORSDOF 7
