REMARK  Name = ZINC02751451
REMARK  4 active torsions:
REMARK  status: ('A' for Active; 'I' for Inactive)
REMARK    1  A    between atoms: C_1  and  O_2
REMARK    2  A    between atoms: O_2  and  C_3
REMARK    3  A    between atoms: C_3  and  C_5
REMARK    4  A    between atoms: C_18  and  C_20
REMARK                            x       y       z     vdW  Elec       q    Type
REMARK                         _______ _______ _______ _____ _____    ______ ____
ROOT
ATOM      1  C   UNL     1      -1.489   3.443   2.579  0.00  0.00    +0.045 C 
ATOM      2  C   UNL     1      -0.528   3.413   3.775  0.00  0.00    +0.033 C 
ATOM      3  C   UNL     1      -1.145   4.220   4.889  0.00  0.00    -0.021 A 
ATOM      4  C   UNL     1      -0.805   4.253   6.294  0.00  0.00    +0.003 A 
ATOM      5  C   UNL     1       0.159   3.584   7.055  0.00  0.00    +0.010 A 
ATOM      6  C   UNL     1       0.196   3.867   8.398  0.00  0.00    +0.001 A 
ATOM      7  C   UNL     1      -0.675   4.771   8.985  0.00  0.00    +0.002 A 
ATOM      8  C   UNL     1      -1.639   5.447   8.256  0.00  0.00    +0.026 A 
ATOM      9  C   UNL     1      -1.700   5.180   6.890  0.00  0.00    +0.047 A 
ATOM     10  N   UNL     1      -2.509   5.659   5.900  0.00  0.00    -0.359 N 
ATOM     11  H   UNL     1      -3.218   6.310   6.024  0.00  0.00    +0.166 HD
ATOM     12  C   UNL     1      -2.171   5.081   4.706  0.00  0.00    +0.010 A 
ATOM     13  C   UNL     1      -2.807   5.330   3.359  0.00  0.00    +0.008 C 
ATOM     14  N   UNL     1      -1.894   4.837   2.304  0.00  0.00    +0.396 N 
ATOM     15  H   UNL     1      -2.374   4.876   1.397  0.00  0.00    -0.083 HD
ATOM     16  H   UNL     1      -1.058   5.432   2.275  0.00  0.00    -0.083 HD
ENDROOT
BRANCH  13  17
ATOM     17  C   UNL     1      -3.036   6.807   3.171  0.00  0.00    -0.052 A 
ATOM     18  C   UNL     1      -1.988   7.625   2.793  0.00  0.00    +0.006 A 
ATOM     19  C   UNL     1      -2.194   8.980   2.615  0.00  0.00    +0.050 A 
ATOM     20  C   UNL     1      -3.451   9.524   2.826  0.00  0.00    +0.166 A 
ATOM     21  C   UNL     1      -4.506   8.701   3.212  0.00  0.00    +0.166 A 
ATOM     22  C   UNL     1      -4.293   7.343   3.383  0.00  0.00    +0.052 A 
ATOM     23  O   UNL     1      -5.627   9.466   3.355  0.00  0.00    -0.453 OA
ATOM     24  C   UNL     1      -5.345  10.694   2.658  0.00  0.00    +0.466 C 
ATOM     25  O   UNL     1      -3.911  10.805   2.727  0.00  0.00    -0.453 OA
ENDBRANCH  13  17
BRANCH   1  26
ATOM     26  C   UNL     1      -0.797   2.883   1.363  0.00  0.00    +0.293 C 
ATOM     27  O   UNL     1      -0.336   3.630   0.533  0.00  0.00    -0.253 OA
BRANCH  26  29
ATOM     28  C   UNL     1      -0.013   1.086   0.008  0.00  0.00    +0.280 C 
ATOM     29  O   UNL     1      -0.692   1.554   1.203  0.00  0.00    -0.469 OA
ENDBRANCH  26  29
ENDBRANCH   1  26
TORSDOF 3
