REMARK  Name = ZINC21127434
REMARK  11 active torsions:
REMARK  status: ('A' for Active; 'I' for Inactive)
REMARK    1  A    between atoms: C_1  and  C_2
REMARK    2  A    between atoms: C_5  and  N_8
REMARK    3  A    between atoms: C_9  and  C_28
REMARK    4  A    between atoms: C_12  and  S_13
REMARK    5  A    between atoms: S_13  and  C_14
REMARK    6  A    between atoms: C_14  and  C_15
REMARK    7  A    between atoms: N_17  and  C_18
REMARK    8  A    between atoms: C_23  and  O_24
REMARK    9  A    between atoms: O_24  and  C_25
REMARK   10  A    between atoms: C_33  and  O_34
REMARK   11  A    between atoms: O_34  and  C_35
REMARK                            x       y       z     vdW  Elec       q    Type
REMARK                         _______ _______ _______ _____ _____    ______ ____
ROOT
ATOM      1  N   UNL     1       1.133  -0.597  -0.085  0.00  0.00    -0.270 N 
ATOM      2  C   UNL     1       2.192   0.282  -0.161  0.00  0.00    +0.173 A 
ATOM      3  N   UNL     1       1.694   1.493  -0.059  0.00  0.00    -0.128 NA
ATOM      4  N   UNL     1       0.417   1.435   0.072  0.00  0.00    -0.122 NA
ATOM      5  C   UNL     1       0.018   0.183   0.063  0.00  0.00    +0.197 A 
ENDROOT
BRANCH   1  10
ATOM      6  C   UNL     1       1.351  -6.263  -0.340  0.00  0.00    +0.044 C 
ATOM      7  C   UNL     1       1.293  -4.758  -0.272  0.00  0.00    -0.050 A 
ATOM      8  C   UNL     1       0.668  -4.046  -1.279  0.00  0.00    +0.005 A 
ATOM      9  C   UNL     1       0.613  -2.667  -1.220  0.00  0.00    +0.026 A 
ATOM     10  C   UNL     1       1.187  -1.996  -0.148  0.00  0.00    +0.051 A 
ATOM     11  C   UNL     1       1.819  -2.714   0.858  0.00  0.00    +0.026 A 
ATOM     12  C   UNL     1       1.866  -4.093   0.796  0.00  0.00    +0.005 A 
ENDBRANCH   1  10
BRANCH   2  13
ATOM     13  C   UNL     1       3.617  -0.071  -0.324  0.00  0.00    +0.061 A 
ATOM     14  C   UNL     1       4.005  -0.986  -1.304  0.00  0.00    +0.015 A 
ATOM     15  C   UNL     1       5.337  -1.312  -1.453  0.00  0.00    +0.001 A 
ATOM     16  C   UNL     1       6.291  -0.735  -0.633  0.00  0.00    +0.004 A 
ATOM     17  C   UNL     1       5.919   0.173   0.341  0.00  0.00    +0.046 A 
ATOM     18  C   UNL     1       4.586   0.514   0.499  0.00  0.00    +0.131 A 
BRANCH  18  19
ATOM     19  O   UNL     1       4.220   1.410   1.452  0.00  0.00    -0.494 OA
ATOM     20  C   UNL     1       5.264   1.966   2.255  0.00  0.00    +0.277 C 
ENDBRANCH  18  19
ENDBRANCH   2  13
BRANCH   5  21
ATOM     21  S   UNL     1      -1.643  -0.386   0.215  0.00  0.00    -0.076 S 
BRANCH  21  22
ATOM     22  C   UNL     1      -2.505   1.198   0.369  0.00  0.00    +0.173 C 
BRANCH  22  23
ATOM     23  C   UNL     1      -3.984   0.953   0.515  0.00  0.00    +0.228 C 
ATOM     24  O   UNL     1      -4.414  -0.181   0.514  0.00  0.00    -0.275 OA
ATOM     25  N   UNL     1      -4.830   1.994   0.646  0.00  0.00    -0.282 N 
ATOM     26  H   UNL     1      -4.452   3.024   0.566  0.00  0.00    +0.155 HD
BRANCH  25  27
ATOM     27  C   UNL     1      -6.192   1.764   0.884  0.00  0.00    +0.076 A 
ATOM     28  C   UNL     1      -6.816   0.653   0.336  0.00  0.00    +0.027 A 
ATOM     29  C   UNL     1      -8.158   0.426   0.576  0.00  0.00    +0.002 A 
ATOM     30  C   UNL     1      -8.884   1.310   1.353  0.00  0.00    +0.004 A 
ATOM     31  C   UNL     1      -8.270   2.423   1.898  0.00  0.00    +0.048 A 
ATOM     32  C   UNL     1      -6.924   2.655   1.666  0.00  0.00    +0.148 A 
BRANCH  32  33
ATOM     33  O   UNL     1      -6.319   3.749   2.200  0.00  0.00    -0.432 OA
BRANCH  33  34
ATOM     34  C   UNL     1      -7.132   4.618   2.992  0.00  0.00    +0.541 C 
ATOM     35  F   UNL     1      -8.183   5.112   2.212  0.00  0.00    -0.166 F 
ATOM     36  F   UNL     1      -7.653   3.908   4.079  0.00  0.00    -0.166 F 
ENDBRANCH  33  34
ENDBRANCH  32  33
ENDBRANCH  25  27
ENDBRANCH  22  23
ENDBRANCH  21  22
ENDBRANCH   5  21
TORSDOF 9
