REMARK  Name = ZINC02872410
REMARK  6 active torsions:
REMARK  status: ('A' for Active; 'I' for Inactive)
REMARK    1  A    between atoms: C_4  and  N_7
REMARK    2  A    between atoms: C_16  and  C_20
REMARK    3  A    between atoms: C_16  and  N_24
REMARK    4  A    between atoms: N_24  and  S_25
REMARK    5  A    between atoms: S_25  and  C_28
REMARK    6  A    between atoms: C_31  and  N_34
REMARK                            x       y       z     vdW  Elec       q    Type
REMARK                         _______ _______ _______ _____ _____    ______ ____
ROOT
ATOM      1  N   UNL     1       3.791  -1.216  -0.553  0.00  0.00    -0.209 N 
ATOM      2  C   UNL     1       3.824  -2.572  -0.287  0.00  0.00    +0.137 C 
ATOM      3  C   UNL     1       5.074  -3.178  -0.096  0.00  0.00    +0.092 C 
ATOM      4  C   UNL     1       6.213  -2.441  -0.172  0.00  0.00    +0.253 C 
ATOM      5  O   UNL     1       7.415  -3.026   0.012  0.00  0.00    -0.270 OA
ATOM      6  N   UNL     1       6.132  -1.098  -0.438  0.00  0.00    -0.236 N 
ATOM      7  H   UNL     1       6.942  -0.568  -0.494  0.00  0.00    +0.159 HD
ATOM      8  C   UNL     1       4.935  -0.513  -0.629  0.00  0.00    +0.318 C 
ATOM      9  O   UNL     1       4.887   0.678  -0.869  0.00  0.00    -0.251 OA
ATOM     10  C   UNL     1       4.780  -4.636   0.172  0.00  0.00    +0.245 C 
ATOM     11  C   UNL     1       3.266  -4.692   0.094  0.00  0.00    +0.273 C 
ATOM     12  O   UNL     1       2.570  -5.678   0.246  0.00  0.00    -0.271 OA
ATOM     13  N   UNL     1       2.846  -3.466  -0.170  0.00  0.00    -0.162 NA
ENDROOT
BRANCH   1  17
ATOM     14  C   UNL     1       0.136   0.699  -1.141  0.00  0.00    +0.000 A 
ATOM     15  C   UNL     1       0.630   0.532   0.140  0.00  0.00    +0.002 A 
ATOM     16  C   UNL     1       1.841  -0.102   0.338  0.00  0.00    +0.024 A 
ATOM     17  C   UNL     1       2.562  -0.573  -0.751  0.00  0.00    +0.044 A 
ATOM     18  C   UNL     1       2.064  -0.404  -2.036  0.00  0.00    +0.024 A 
ATOM     19  C   UNL     1       0.853   0.232  -2.227  0.00  0.00    +0.002 A 
ENDBRANCH   1  17
BRANCH  10  20
ATOM     20  C   UNL     1       5.411  -5.522  -0.903  0.00  0.00    +0.422 C 
ATOM     21  F   UNL     1       6.805  -5.424  -0.830  0.00  0.00    -0.168 F 
ATOM     22  F   UNL     1       5.026  -6.851  -0.698  0.00  0.00    -0.168 F 
ATOM     23  F   UNL     1       4.980  -5.102  -2.166  0.00  0.00    -0.168 F 
ENDBRANCH  10  20
BRANCH  10  24
ATOM     24  N   UNL     1       5.246  -5.023   1.506  0.00  0.00    -0.162 NA
ATOM     25  H   UNL     1       5.890  -5.741   1.604  0.00  0.00    +0.150 HD
BRANCH  24  26
ATOM     26  S   UNL     1       4.673  -4.234   2.844  0.00  0.00    +0.060 S 
ATOM     27  O   UNL     1       5.300  -4.835   3.969  0.00  0.00    -0.153 OA
ATOM     28  O   UNL     1       4.772  -2.844   2.570  0.00  0.00    -0.153 OA
BRANCH  26  29
ATOM     29  C   UNL     1       2.954  -4.602   2.970  0.00  0.00    +0.105 A 
ATOM     30  C   UNL     1       2.020  -3.710   2.477  0.00  0.00    +0.030 A 
ATOM     31  C   UNL     1       0.672  -3.995   2.574  0.00  0.00    +0.024 A 
ATOM     32  C   UNL     1       0.256  -5.180   3.168  0.00  0.00    +0.025 A 
ATOM     33  C   UNL     1       1.197  -6.074   3.662  0.00  0.00    +0.024 A 
ATOM     34  C   UNL     1       2.543  -5.785   3.556  0.00  0.00    +0.030 A 
BRANCH  32  35
ATOM     35  N   UNL     1      -1.107  -5.471   3.268  0.00  0.00    -0.358 N 
ATOM     36  H   UNL     1      -1.763  -4.846   2.923  0.00  0.00    +0.142 HD
ATOM     37  H   UNL     1      -1.397  -6.299   3.682  0.00  0.00    +0.142 HD
ENDBRANCH  32  35
ENDBRANCH  26  29
ENDBRANCH  24  26
ENDBRANCH  10  24
TORSDOF 6
