REMARK  Name = ZINC22927042
REMARK  10 active torsions:
REMARK  status: ('A' for Active; 'I' for Inactive)
REMARK    1  A    between atoms: C_1  and  N_2
REMARK    2  A    between atoms: N_2  and  C_3
REMARK    3  A    between atoms: N_2  and  C_4
REMARK    4  A    between atoms: C_4  and  C_5
REMARK    5  A    between atoms: C_5  and  N_6
REMARK    6  A    between atoms: N_6  and  C_7
REMARK    7  A    between atoms: C_10  and  C_33
REMARK    8  A    between atoms: C_13  and  C_29
REMARK    9  A    between atoms: C_29  and  O_31
REMARK   10  A    between atoms: O_31  and  C_32
REMARK                            x       y       z     vdW  Elec       q    Type
REMARK                         _______ _______ _______ _____ _____    ______ ____
ROOT
ATOM      1  C   UNL     1      -5.048  -0.571  -2.414  0.00  0.00    -0.068 C 
ATOM      2  C   UNL     1      -3.953  -1.148  -3.314  0.00  0.00    +0.008 C 
ATOM      3  C   UNL     1      -4.242  -0.776  -4.771  0.00  0.00    +0.087 C 
ATOM      4  N   UNL     1      -5.555  -1.307  -5.156  0.00  0.00    -0.274 NA
ATOM      5  C   UNL     1      -5.810  -1.143  -6.591  0.00  0.00    +0.172 C 
ATOM      6  C   UNL     1      -6.980  -2.045  -7.009  0.00  0.00    +0.068 C 
ATOM      7  C   UNL     1      -8.107  -1.837  -6.029  0.00  0.00    -0.016 A 
ATOM      8  C   UNL     1      -9.501  -2.203  -6.144  0.00  0.00    +0.003 A 
ATOM      9  C   UNL     1     -10.236  -2.839  -7.150  0.00  0.00    +0.010 A 
ATOM     10  C   UNL     1     -11.576  -3.027  -6.915  0.00  0.00    +0.001 A 
ATOM     11  C   UNL     1     -12.183  -2.612  -5.741  0.00  0.00    +0.002 A 
ATOM     12  C   UNL     1     -11.480  -1.980  -4.729  0.00  0.00    +0.026 A 
ATOM     13  C   UNL     1     -10.118  -1.776  -4.940  0.00  0.00    +0.047 A 
ATOM     14  N   UNL     1      -9.150  -1.197  -4.169  0.00  0.00    -0.356 N 
ATOM     15  H   UNL     1      -9.291  -0.817  -3.288  0.00  0.00    +0.166 HD
ATOM     16  C   UNL     1      -7.950  -1.236  -4.826  0.00  0.00    +0.038 A 
ATOM     17  C   UNL     1      -6.623  -0.708  -4.342  0.00  0.00    +0.103 C 
ATOM     18  C   UNL     1      -6.413  -1.091  -2.876  0.00  0.00    +0.009 C 
ENDROOT
BRANCH   3  19
ATOM     19  C   UNL     1      -3.179  -1.367  -5.661  0.00  0.00    -0.029 A 
ATOM     20  C   UNL     1      -3.248  -2.698  -6.029  0.00  0.00    +0.005 A 
ATOM     21  C   UNL     1      -2.273  -3.241  -6.846  0.00  0.00    +0.002 A 
ATOM     22  C   UNL     1      -1.229  -2.454  -7.294  0.00  0.00    +0.020 A 
ATOM     23  C   UNL     1      -1.160  -1.122  -6.926  0.00  0.00    +0.041 A 
ATOM     24  C   UNL     1      -2.139  -0.578  -6.114  0.00  0.00    +0.025 A 
ATOM     25 CL   UNL     1       0.151  -0.133  -7.489  0.00  0.00    -0.084 Cl
ENDBRANCH   3  19
BRANCH   1  26
ATOM     26  N   UNL     1      -4.810  -0.986  -1.025  0.00  0.00    +0.382 N 
ATOM     27  H   UNL     1      -4.741  -1.991  -0.982  0.00  0.00    -0.085 HD
ATOM     28  H   UNL     1      -5.575  -0.675  -0.445  0.00  0.00    -0.085 HD
BRANCH  26  29
ATOM     29  C   UNL     1      -3.558  -0.388  -0.544  0.00  0.00    -0.067 C 
BRANCH  29  30
ATOM     30  C   UNL     1      -3.309  -0.820   0.903  0.00  0.00    +0.065 C 
BRANCH  30  32
ATOM     31  C   UNL     1      -2.171   1.240   1.471  0.00  0.00    +0.104 C 
ATOM     32  N   UNL     1      -2.057  -0.222   1.385  0.00  0.00    -0.310 NA
ATOM     33  C   UNL     1      -1.662  -0.797   2.677  0.00  0.00    +0.104 C 
ENDBRANCH  30  32
ENDBRANCH  29  30
ENDBRANCH  26  29
ENDBRANCH   1  26
BRANCH   5  34
ATOM     34  C   UNL     1      -6.155   0.295  -6.880  0.00  0.00    +0.325 C 
ATOM     35  O   UNL     1      -5.988   1.138  -6.031  0.00  0.00    -0.249 OA
BRANCH  34  36
ATOM     36  O   UNL     1      -6.649   0.639  -8.080  0.00  0.00    -0.467 OA
ATOM     37  C   UNL     1      -6.955   2.020  -8.284  0.00  0.00    +0.280 C 
ENDBRANCH  34  36
ENDBRANCH   5  34
TORSDOF 7
