REMARK  Name = ZINC22347654
REMARK  14 active torsions:
REMARK  status: ('A' for Active; 'I' for Inactive)
REMARK    1  A    between atoms: C_1  and  C_2
REMARK    2  A    between atoms: C_2  and  C_3
REMARK    3  A    between atoms: C_3  and  C_5
REMARK    4  A    between atoms: C_3  and  N_15
REMARK    5  A    between atoms: C_8  and  S_11
REMARK    6  A    between atoms: S_11  and  C_14
REMARK    7  A    between atoms: C_16  and  C_18
REMARK    8  A    between atoms: C_18  and  N_19
REMARK    9  A    between atoms: N_19  and  C_20
REMARK   10  A    between atoms: N_19  and  S_28
REMARK   11  A    between atoms: C_24  and  C_27
REMARK   12  A    between atoms: C_25  and  C_26
REMARK   13  A    between atoms: S_28  and  C_31
REMARK   14  A    between atoms: C_34  and  C_37
REMARK                            x       y       z     vdW  Elec       q    Type
REMARK                         _______ _______ _______ _____ _____    ______ ____
ROOT
ATOM      1  N   UNL     1      -1.452   4.083   9.917  0.00  0.00    -0.194 N 
ENDROOT
BRANCH   1   2
ATOM      2  C   UNL     1      -1.359   3.017  10.816  0.00  0.00    +0.055 A 
ATOM      3  C   UNL     1      -2.124   1.874  10.622  0.00  0.00    +0.025 A 
ATOM      4  C   UNL     1      -2.030   0.823  11.512  0.00  0.00    +0.002 A 
ATOM      5  C   UNL     1      -1.174   0.907  12.596  0.00  0.00    +0.004 A 
ATOM      6  C   UNL     1      -0.411   2.043  12.792  0.00  0.00    -0.046 A 
ATOM      7  C   UNL     1      -0.497   3.096  11.902  0.00  0.00    -0.025 A 
ATOM      8  C   UNL     1       0.340   4.332  12.113  0.00  0.00    +0.046 C 
ATOM      9  C   UNL     1       0.519   2.130  13.974  0.00  0.00    +0.044 C 
ENDBRANCH   1   2
BRANCH   1  10
ATOM     10  S   UNL     1      -2.479   5.343  10.231  0.00  0.00    +0.075 S 
ATOM     11  O   UNL     1      -2.576   5.446  11.645  0.00  0.00    -0.150 OA
ATOM     12  O   UNL     1      -2.053   6.427   9.416  0.00  0.00    -0.150 OA
BRANCH  10  13
ATOM     13  C   UNL     1      -4.074   4.872   9.649  0.00  0.00    +0.109 A 
ATOM     14  C   UNL     1      -4.493   5.261   8.391  0.00  0.00    +0.029 A 
ATOM     15  C   UNL     1      -5.743   4.888   7.933  0.00  0.00    +0.005 A 
ATOM     16  C   UNL     1      -6.578   4.135   8.737  0.00  0.00    -0.050 A 
ATOM     17  C   UNL     1      -6.160   3.751   9.998  0.00  0.00    +0.005 A 
ATOM     18  C   UNL     1      -4.909   4.120  10.454  0.00  0.00    +0.029 A 
ATOM     19  C   UNL     1      -7.942   3.732   8.240  0.00  0.00    +0.044 C 
ENDBRANCH  10  13
ENDBRANCH   1  10
BRANCH   1  20
ATOM     20  C   UNL     1      -0.641   4.085   8.697  0.00  0.00    +0.227 C 
BRANCH  20  22
ATOM     21  N   UNL     1      -0.745   3.085   6.437  0.00  0.00    -0.307 N 
ATOM     22  C   UNL     1      -1.351   3.305   7.621  0.00  0.00    +0.233 C 
ATOM     23  O   UNL     1      -2.467   2.875   7.820  0.00  0.00    -0.274 OA
ATOM     24  H   UNL     1       0.268   3.475   6.257  0.00  0.00    +0.149 HD
BRANCH  21  25
ATOM     25  C   UNL     1      -1.435   2.327   5.391  0.00  0.00    +0.103 C 
BRANCH  25  26
ATOM     26  C   UNL     1      -0.418   1.700   4.471  0.00  0.00    -0.027 A 
ATOM     27  C   UNL     1      -0.614   0.416   3.998  0.00  0.00    +0.007 A 
ATOM     28  C   UNL     1       0.318  -0.159   3.154  0.00  0.00    +0.027 A 
ATOM     29  C   UNL     1       1.446   0.550   2.784  0.00  0.00    +0.088 A 
ATOM     30  C   UNL     1       1.644   1.832   3.262  0.00  0.00    +0.027 A 
ATOM     31  C   UNL     1       0.709   2.409   4.102  0.00  0.00    +0.007 A 
BRANCH  29  32
ATOM     32  S   UNL     1       2.634  -0.183   1.710  0.00  0.00    -0.006 S 
ATOM     33  O   UNL     1       2.492  -1.582   1.912  0.00  0.00    -0.170 OA
ATOM     34  O   UNL     1       3.856   0.473   2.019  0.00  0.00    -0.170 OA
ATOM     35  C   UNL     1       2.090   0.265   0.038  0.00  0.00    +0.200 C 
ENDBRANCH  29  32
ENDBRANCH  25  26
BRANCH  25  37
ATOM     36  C   UNL     1      -3.444   3.809   5.494  0.00  0.00    +0.006 C 
ATOM     37  C   UNL     1      -2.336   3.269   4.588  0.00  0.00    +0.024 C 
ENDBRANCH  25  37
ENDBRANCH  21  25
ENDBRANCH  20  22
ENDBRANCH   1  20
TORSDOF 9
