REMARK  Name = ZINC23777999
REMARK  8 active torsions:
REMARK  status: ('A' for Active; 'I' for Inactive)
REMARK    1  A    between atoms: C_4  and  C_7
REMARK    2  A    between atoms: C_7  and  N_8
REMARK    3  A    between atoms: N_8  and  C_9
REMARK    4  A    between atoms: N_8  and  C_15
REMARK    5  A    between atoms: C_9  and  C_10
REMARK    6  A    between atoms: C_15  and  C_16
REMARK    7  A    between atoms: N_18  and  C_19
REMARK    8  A    between atoms: C_22  and  N_26
REMARK                            x       y       z     vdW  Elec       q    Type
REMARK                         _______ _______ _______ _____ _____    ______ ____
ROOT
ATOM      1  N   UNL     1       2.845   1.334  -0.060  0.00  0.00    +0.393 N 
ATOM      2  H   UNL     1       2.847   0.702  -0.961  0.00  0.00    -0.080 HD
ENDROOT
BRANCH   1   3
ATOM      3  C   UNL     1       4.021   2.212  -0.122  0.00  0.00    -0.042 C 
BRANCH   3   7
ATOM      4  C   UNL     1       7.520  -0.140  -0.809  0.00  0.00    +0.000 A 
ATOM      5  C   UNL     1       6.802   0.360  -1.879  0.00  0.00    +0.000 A 
ATOM      6  C   UNL     1       5.670   1.121  -1.657  0.00  0.00    +0.002 A 
ATOM      7  C   UNL     1       5.255   1.382  -0.364  0.00  0.00    -0.064 A 
ATOM      8  C   UNL     1       5.976   0.886   0.706  0.00  0.00    +0.002 A 
ATOM      9  C   UNL     1       7.105   0.121   0.483  0.00  0.00    +0.000 A 
ENDBRANCH   3   7
ENDBRANCH   1   3
BRANCH   1  10
ATOM     10  C   UNL     1       2.908   0.451   1.112  0.00  0.00    -0.002 C 
BRANCH  10  11
ATOM     11  C   UNL     1       1.840  -0.606   1.002  0.00  0.00    +0.089 A 
ATOM     12  C   UNL     1       2.002  -1.837   0.484  0.00  0.00    +0.042 A 
ATOM     13  C   UNL     1       0.751  -2.490   0.581  0.00  0.00    +0.041 A 
ATOM     14  C   UNL     1      -0.100  -1.619   1.151  0.00  0.00    +0.195 A 
ATOM     15  O   UNL     1       0.566  -0.482   1.410  0.00  0.00    -0.470 OA
ENDBRANCH  10  11
ENDBRANCH   1  10
BRANCH   1  16
ATOM     16  C   UNL     1       1.602   2.118  -0.063  0.00  0.00    +0.020 C 
BRANCH  16  17
ATOM     17  C   UNL     1       1.331   2.625  -1.456  0.00  0.00    +0.201 C 
ATOM     18  O   UNL     1       2.134   2.424  -2.342  0.00  0.00    -0.278 OA
ATOM     19  N   UNL     1       0.198   3.307  -1.716  0.00  0.00    -0.286 N 
ATOM     20  H   UNL     1      -0.490   3.564  -0.897  0.00  0.00    +0.155 HD
BRANCH  19  21
ATOM     21  C   UNL     1      -0.103   3.689  -3.029  0.00  0.00    +0.048 A 
ATOM     22  C   UNL     1       0.512   3.051  -4.098  0.00  0.00    +0.026 A 
ATOM     23  C   UNL     1       0.213   3.430  -5.391  0.00  0.00    +0.034 A 
ATOM     24  C   UNL     1      -0.699   4.444  -5.624  0.00  0.00    +0.127 A 
ATOM     25  C   UNL     1      -1.313   5.082  -4.562  0.00  0.00    +0.049 A 
ATOM     26  C   UNL     1      -1.022   4.704  -3.265  0.00  0.00    +0.041 A 
ATOM     27 BR   UNL     1      -1.869   5.571  -1.813  0.00  0.00    -0.048 Br
BRANCH  24  28
ATOM     28  N   UNL     1      -1.017   4.847  -7.012  0.00  0.00    +0.056 N 
ATOM     29  O   UNL     1      -0.477   4.286  -7.948  0.00  0.00    -0.126 OA
ATOM     30  O   UNL     1      -1.820   5.740  -7.218  0.00  0.00    -0.126 OA
ENDBRANCH  24  28
ENDBRANCH  19  21
ENDBRANCH  16  17
ENDBRANCH   1  16
TORSDOF 8
