REMARK  Name = ZINC20168494
REMARK  11 active torsions:
REMARK  status: ('A' for Active; 'I' for Inactive)
REMARK    1  A    between atoms: C_1  and  C_2
REMARK    2  A    between atoms: C_2  and  O_3
REMARK    3  A    between atoms: O_3  and  C_4
REMARK    4  A    between atoms: C_4  and  C_6
REMARK    5  A    between atoms: C_10  and  N_11
REMARK    6  A    between atoms: N_11  and  C_12
REMARK    7  A    between atoms: C_12  and  N_14
REMARK    8  A    between atoms: N_14  and  N_15
REMARK    9  A    between atoms: C_16  and  C_18
REMARK   10  A    between atoms: C_21  and  C_24
REMARK   11  A    between atoms: C_22  and  C_23
REMARK                            x       y       z     vdW  Elec       q    Type
REMARK                         _______ _______ _______ _____ _____    ______ ____
ROOT
ATOM      1  N   UNL     1      -6.978   2.271   0.156  0.00  0.00    -0.290 N 
ATOM      2  H   UNL     1      -6.360   2.437   1.051  0.00  0.00    +0.154 HD
ENDROOT
BRANCH   1   7
ATOM      3  C   UNL     1      -9.104   2.946   1.271  0.00  0.00    +0.091 A 
ATOM      4  C   UNL     1     -10.544   3.145   1.062  0.00  0.00    -0.021 A 
ATOM      5  C   UNL     1     -10.966   2.823  -0.172  0.00  0.00    -0.004 A 
ATOM      6  S   UNL     1      -9.512   2.323  -1.058  0.00  0.00    -0.077 S 
ATOM      7  C   UNL     1      -8.342   2.509   0.203  0.00  0.00    +0.086 A 
ATOM      8  C   UNL     1     -12.369   2.808  -0.711  0.00  0.00    +0.043 C 
ATOM      9  C   UNL     1     -13.013   1.493  -0.236  0.00  0.00    +0.005 C 
ATOM     10  C   UNL     1     -12.860   1.407   1.288  0.00  0.00    +0.000 C 
ATOM     11  C   UNL     1     -13.626   2.591   1.836  0.00  0.00    +0.000 C 
ATOM     12  C   UNL     1     -12.842   3.893   1.830  0.00  0.00    +0.005 C 
ATOM     13  C   UNL     1     -11.381   3.697   2.216  0.00  0.00    +0.037 C 
BRANCH   3  14
ATOM     14  C   UNL     1      -8.491   3.208   2.574  0.00  0.00    +0.342 C 
ATOM     15  O   UNL     1      -8.061   4.316   2.832  0.00  0.00    -0.245 OA
BRANCH  14  16
ATOM     16  O   UNL     1      -8.403   2.221   3.489  0.00  0.00    -0.461 OA
BRANCH  16  18
ATOM     17  C   UNL     1      -7.774   1.317   5.660  0.00  0.00    +0.048 C 
ATOM     18  C   UNL     1      -7.783   2.553   4.759  0.00  0.00    +0.229 C 
ENDBRANCH  16  18
ENDBRANCH  14  16
ENDBRANCH   3  14
ENDBRANCH   1   7
BRANCH   1  19
ATOM     19  C   UNL     1      -6.408   1.837  -0.985  0.00  0.00    +0.151 C 
ATOM     20  S   UNL     1      -7.370   1.579  -2.378  0.00  0.00    -0.017 S 
BRANCH  19  21
ATOM     21  N   UNL     1      -5.081   1.606  -1.031  0.00  0.00    -0.245 N 
ATOM     22  H   UNL     1      -4.616   1.252  -1.962  0.00  0.00    +0.172 HD
BRANCH  21  23
ATOM     23  N   UNL     1      -4.294   1.817   0.109  0.00  0.00    -0.231 N 
ATOM     24  C   UNL     1      -2.967   1.587   0.064  0.00  0.00    +0.261 C 
ATOM     25  O   UNL     1      -2.452   1.195  -0.967  0.00  0.00    -0.269 OA
ATOM     26  H   UNL     1      -4.759   2.172   1.041  0.00  0.00    +0.173 HD
BRANCH  24  27
ATOM     27  C   UNL     1      -2.140   1.808   1.261  0.00  0.00    +0.048 A 
ATOM     28  C   UNL     1      -2.692   2.247   2.446  0.00  0.00    +0.058 A 
ATOM     29  S   UNL     1      -1.327   2.349   3.506  0.00  0.00    -0.101 S 
ATOM     30  C   UNL     1      -0.047   1.810   2.392  0.00  0.00    -0.010 A 
ATOM     31  C   UNL     1      -0.718   1.572   1.248  0.00  0.00    -0.028 A 
ATOM     32  C   UNL     1      -0.013   1.086   0.008  0.00  0.00    +0.045 C 
ATOM     33  C   UNL     1       1.428   1.655   2.662  0.00  0.00    +0.052 C 
ENDBRANCH  24  27
ENDBRANCH  21  23
ENDBRANCH  19  21
ENDBRANCH   1  19
TORSDOF 8
