REMARK  Name = ZINC03282275
REMARK  11 active torsions:
REMARK  status: ('A' for Active; 'I' for Inactive)
REMARK    1  A    between atoms: C_1  and  N_2
REMARK    2  A    between atoms: N_2  and  C_3
REMARK    3  A    between atoms: N_2  and  S_4
REMARK    4  A    between atoms: S_4  and  C_7
REMARK    5  A    between atoms: C_10  and  C_13
REMARK    6  A    between atoms: C_13  and  O_15
REMARK    7  A    between atoms: O_15  and  C_16
REMARK    8  A    between atoms: C_16  and  C_18
REMARK    9  A    between atoms: C_16  and  C_24
REMARK   10  A    between atoms: N_26  and  C_27
REMARK   11  A    between atoms: C_32  and  C_33
REMARK                            x       y       z     vdW  Elec       q    Type
REMARK                         _______ _______ _______ _____ _____    ______ ____
ROOT
ATOM      1  C   UNL     1       2.455   0.811   0.110  0.00  0.00    +0.292 C 
ENDROOT
BRANCH   1   2
ATOM      2  C   UNL     1       2.461   0.027   1.397  0.00  0.00    +0.002 A 
ATOM      3  C   UNL     1       2.799   0.649   2.584  0.00  0.00    +0.008 A 
ATOM      4  C   UNL     1       2.799  -0.070   3.765  0.00  0.00    +0.000 A 
ATOM      5  C   UNL     1       2.471  -1.413   3.757  0.00  0.00    +0.000 A 
ATOM      6  C   UNL     1       2.137  -2.036   2.569  0.00  0.00    +0.000 A 
ATOM      7  C   UNL     1       2.133  -1.316   1.389  0.00  0.00    +0.008 A 
ENDBRANCH   1   2
BRANCH   1   8
ATOM      8  C   UNL     1       1.177   1.602   0.009  0.00  0.00    +0.263 C 
ATOM      9  O   UNL     1       1.217   2.812  -0.070  0.00  0.00    -0.271 OA
ATOM     10  N   UNL     1      -0.011   0.966   0.007  0.00  0.00    -0.282 N 
ATOM     11  H   UNL     1      -0.042  -0.004  -0.012  0.00  0.00    +0.155 HD
BRANCH  10  12
ATOM     12  C   UNL     1      -1.200   1.704   0.028  0.00  0.00    +0.045 A 
ATOM     13  C   UNL     1      -1.212   2.989   0.554  0.00  0.00    +0.025 A 
ATOM     14  C   UNL     1      -2.387   3.715   0.573  0.00  0.00    +0.022 A 
ATOM     15  C   UNL     1      -3.551   3.163   0.069  0.00  0.00    +0.042 A 
ATOM     16  C   UNL     1      -3.542   1.882  -0.455  0.00  0.00    +0.034 A 
ATOM     17  C   UNL     1      -2.369   1.154  -0.482  0.00  0.00    +0.077 A 
ATOM     18 CL   UNL     1      -5.026   4.078   0.094  0.00  0.00    -0.084 Cl
BRANCH  17  19
ATOM     19  C   UNL     1      -2.358  -0.238  -1.059  0.00  0.00    +0.419 C 
ATOM     20  F   UNL     1      -3.642  -0.568  -1.505  0.00  0.00    -0.166 F 
ATOM     21  F   UNL     1      -1.463  -0.291  -2.133  0.00  0.00    -0.166 F 
ATOM     22  F   UNL     1      -1.959  -1.148  -0.074  0.00  0.00    -0.166 F 
ENDBRANCH  17  19
ENDBRANCH  10  12
ENDBRANCH   1   8
BRANCH   1  23
ATOM     23  O   UNL     1       3.589   1.718   0.092  0.00  0.00    -0.444 OA
BRANCH  23  24
ATOM     24  C   UNL     1       4.737   1.252  -0.436  0.00  0.00    +0.340 C 
ATOM     25  O   UNL     1       4.790   0.118  -0.869  0.00  0.00    -0.245 OA
BRANCH  24  29
ATOM     26  C   UNL     1       8.172   3.745  -0.586  0.00  0.00    +0.105 A 
ATOM     27  C   UNL     1       8.236   2.454  -1.080  0.00  0.00    +0.029 A 
ATOM     28  C   UNL     1       7.124   1.639  -1.034  0.00  0.00    +0.017 A 
ATOM     29  C   UNL     1       5.932   2.119  -0.488  0.00  0.00    +0.059 A 
ATOM     30  C   UNL     1       5.873   3.425   0.004  0.00  0.00    +0.017 A 
ATOM     31  C   UNL     1       6.994   4.227  -0.043  0.00  0.00    +0.029 A 
BRANCH  26  32
ATOM     32  S   UNL     1       9.597   4.779  -0.648  0.00  0.00    +0.060 S 
ATOM     33  O   UNL     1       9.435   5.755   0.372  0.00  0.00    -0.153 OA
ATOM     34  O   UNL     1      10.724   3.915  -0.703  0.00  0.00    -0.153 OA
BRANCH  32  36
ATOM     35  C   UNL     1       8.875   6.886  -2.181  0.00  0.00    +0.131 C 
ATOM     36  N   UNL     1       9.552   5.590  -2.091  0.00  0.00    -0.183 NA
ATOM     37  C   UNL     1      10.188   5.012  -3.277  0.00  0.00    +0.131 C 
ENDBRANCH  32  36
ENDBRANCH  26  32
ENDBRANCH  24  29
ENDBRANCH  23  24
ENDBRANCH   1  23
TORSDOF 9
