REMARK  Name = ZINC38966560
REMARK  10 active torsions:
REMARK  status: ('A' for Active; 'I' for Inactive)
REMARK    1  A    between atoms: C_1  and  C_2
REMARK    2  A    between atoms: C_2  and  C_3
REMARK    3  A    between atoms: C_3  and  O_4
REMARK    4  A    between atoms: O_4  and  C_5
REMARK    5  A    between atoms: C_5  and  C_7
REMARK    6  A    between atoms: C_10  and  N_13
REMARK    7  A    between atoms: N_13  and  C_14
REMARK    8  A    between atoms: N_17  and  S_18
REMARK    9  A    between atoms: S_18  and  C_21
REMARK   10  A    between atoms: C_25  and  C_27
REMARK                            x       y       z     vdW  Elec       q    Type
REMARK                         _______ _______ _______ _____ _____    ______ ____
ROOT
ATOM      1  C   UNL     1       2.115  -8.794  -3.789  0.00  0.00    +0.237 C 
ATOM      2  C   UNL     1       3.020  -9.912  -3.321  0.00  0.00    +0.192 C 
ATOM      3  N   UNL     1       4.025  -9.661  -2.534  0.00  0.00    -0.110 NA
ATOM      4  N   UNL     1       2.770 -11.166  -3.728  0.00  0.00    -0.226 NA
ATOM      5  C   UNL     1       1.758 -11.445  -4.524  0.00  0.00    +0.089 A 
ATOM      6  C   UNL     1       1.524 -12.782  -4.934  0.00  0.00    +0.030 A 
ATOM      7  C   UNL     1       0.488 -13.074  -5.751  0.00  0.00    +0.002 A 
ATOM      8  C   UNL     1      -0.399 -12.097  -6.232  0.00  0.00    +0.002 A 
ATOM      9  C   UNL     1      -0.266 -10.793  -5.903  0.00  0.00    +0.027 A 
ATOM     10  C   UNL     1       0.837 -10.393  -5.017  0.00  0.00    +0.063 A 
ATOM     11  N   UNL     1       0.995  -9.145  -4.676  0.00  0.00    -0.359 N 
ATOM     12  H   UNL     1       0.388  -8.462  -5.002  0.00  0.00    +0.162 HD
ENDROOT
BRANCH   3  13
ATOM     13  S   UNL     1       5.008 -10.894  -2.029  0.00  0.00    +0.100 S 
ATOM     14  O   UNL     1       4.214 -11.733  -1.200  0.00  0.00    -0.146 OA
ATOM     15  O   UNL     1       5.678 -11.379  -3.184  0.00  0.00    -0.146 OA
BRANCH  13  16
ATOM     16  C   UNL     1       6.242 -10.184  -0.991  0.00  0.00    +0.113 A 
ATOM     17  C   UNL     1       7.428  -9.730  -1.538  0.00  0.00    +0.029 A 
ATOM     18  C   UNL     1       8.396  -9.174  -0.725  0.00  0.00    +0.002 A 
ATOM     19  C   UNL     1       8.179  -9.070   0.637  0.00  0.00    +0.003 A 
ATOM     20  C   UNL     1       6.993  -9.523   1.184  0.00  0.00    -0.049 A 
ATOM     21  C   UNL     1       6.023 -10.076   0.369  0.00  0.00    +0.032 A 
ATOM     22  C   UNL     1       6.757  -9.410   2.668  0.00  0.00    +0.044 C 
ENDBRANCH  13  16
ENDBRANCH   3  13
BRANCH   1  23
ATOM     23  N   UNL     1       1.557  -8.143  -2.601  0.00  0.00    -0.318 N 
ATOM     24  H   UNL     1       1.133  -8.676  -1.910  0.00  0.00    +0.148 HD
BRANCH  23  28
ATOM     25  C   UNL     1       1.792  -4.013  -2.192  0.00  0.00    +0.059 A 
ATOM     26  C   UNL     1       2.159  -4.620  -3.397  0.00  0.00    +0.017 A 
ATOM     27  C   UNL     1       2.081  -5.983  -3.529  0.00  0.00    +0.024 A 
ATOM     28  C   UNL     1       1.636  -6.762  -2.464  0.00  0.00    +0.029 A 
ATOM     29  C   UNL     1       1.270  -6.161  -1.263  0.00  0.00    +0.024 A 
ATOM     30  C   UNL     1       1.351  -4.800  -1.123  0.00  0.00    +0.017 A 
BRANCH  25  31
ATOM     31  C   UNL     1       1.875  -2.549  -2.047  0.00  0.00    +0.339 C 
ATOM     32  O   UNL     1       1.560  -2.023  -0.997  0.00  0.00    -0.245 OA
BRANCH  31  33
ATOM     33  O   UNL     1       2.300  -1.793  -3.078  0.00  0.00    -0.461 OA
BRANCH  33  34
ATOM     34  C   UNL     1       2.355  -0.381  -2.868  0.00  0.00    +0.232 C 
BRANCH  34  36
ATOM     35  C   UNL     1       2.916   1.818  -3.914  0.00  0.00    +0.007 C 
ATOM     36  C   UNL     1       2.857   0.306  -4.140  0.00  0.00    +0.038 C 
ENDBRANCH  34  36
ENDBRANCH  33  34
ENDBRANCH  31  33
ENDBRANCH  25  31
ENDBRANCH  23  28
ENDBRANCH   1  23
TORSDOF 8
