REMARK  Name = ZINC36306366
REMARK  15 active torsions:
REMARK  status: ('A' for Active; 'I' for Inactive)
REMARK    1  A    between atoms: C_1  and  C_2
REMARK    2  A    between atoms: C_6  and  O_8
REMARK    3  A    between atoms: O_8  and  C_9
REMARK    4  A    between atoms: C_10  and  C_21
REMARK    5  A    between atoms: C_11  and  C_15
REMARK    6  A    between atoms: N_13  and  C_14
REMARK    7  A    between atoms: C_21  and  N_22
REMARK    8  A    between atoms: N_22  and  C_23
REMARK    9  A    between atoms: N_22  and  C_29
REMARK   10  A    between atoms: C_23  and  C_24
REMARK   11  A    between atoms: C_29  and  C_30
REMARK   12  A    between atoms: C_30  and  C_32
REMARK   13  A    between atoms: C_30  and  O_36
REMARK   14  A    between atoms: C_32  and  C_33
REMARK   15  A    between atoms: C_33  and  C_34
REMARK                            x       y       z     vdW  Elec       q    Type
REMARK                         _______ _______ _______ _____ _____    ______ ____
ROOT
ATOM      1  C   UNL     1      -0.556  -4.066   2.109  0.00  0.00    +0.221 A 
ATOM      2  C   UNL     1      -0.285  -4.861   3.175  0.00  0.00    +0.025 A 
ATOM      3  C   UNL     1       0.106  -6.121   2.684  0.00  0.00    +0.098 A 
ATOM      4  N   UNL     1       0.069  -6.077   1.369  0.00  0.00    -0.168 NA
ATOM      5  N   UNL     1      -0.350  -4.797   0.984  0.00  0.00    -0.235 N 
ATOM      6  C   UNL     1      -0.531  -4.329  -0.393  0.00  0.00    +0.176 C 
ENDROOT
BRANCH   3   7
ATOM      7  C   UNL     1       0.493  -7.294   3.506  0.00  0.00    +0.002 A 
ATOM      8  C   UNL     1       1.326  -7.130   4.611  0.00  0.00    +0.010 A 
ATOM      9  C   UNL     1       1.683  -8.224   5.372  0.00  0.00    +0.001 A 
ATOM     10  C   UNL     1       1.217  -9.483   5.039  0.00  0.00    +0.000 A 
ATOM     11  C   UNL     1       0.390  -9.652   3.943  0.00  0.00    +0.001 A 
ATOM     12  C   UNL     1       0.021  -8.563   3.179  0.00  0.00    +0.010 A 
ENDBRANCH   3   7
BRANCH   1  13
ATOM     13  O   UNL     1      -0.966  -2.772   2.159  0.00  0.00    -0.438 OA
BRANCH  13  19
ATOM     14  C   UNL     1       0.162   1.968   1.888  0.00  0.00    +0.044 C 
ATOM     15  C   UNL     1       0.570   0.520   1.964  0.00  0.00    -0.047 A 
ATOM     16  C   UNL     1       1.910   0.179   1.971  0.00  0.00    +0.003 A 
ATOM     17  C   UNL     1       2.288  -1.149   2.040  0.00  0.00    +0.004 A 
ATOM     18  C   UNL     1       1.327  -2.140   2.103  0.00  0.00    +0.046 A 
ATOM     19  C   UNL     1      -0.019  -1.800   2.097  0.00  0.00    +0.131 A 
ATOM     20  C   UNL     1      -0.395  -0.466   2.032  0.00  0.00    +0.049 A 
ENDBRANCH  13  19
ENDBRANCH   1  13
BRANCH   2  21
ATOM     21  C   UNL     1      -0.386  -4.466   4.626  0.00  0.00    -0.035 C 
BRANCH  21  22
ATOM     22  N   UNL     1      -1.777  -4.602   5.076  0.00  0.00    +0.389 N 
ATOM     23  H   UNL     1      -2.381  -4.071   4.466  0.00  0.00    -0.081 HD
BRANCH  22  24
ATOM     24  C   UNL     1      -1.900  -4.096   6.449  0.00  0.00    -0.003 C 
BRANCH  24  25
ATOM     25  C   UNL     1      -1.606  -2.618   6.469  0.00  0.00    +0.089 A 
ATOM     26  C   UNL     1      -2.515  -1.634   6.348  0.00  0.00    +0.042 A 
ATOM     27  C   UNL     1      -1.808  -0.412   6.420  0.00  0.00    +0.041 A 
ATOM     28  C   UNL     1      -0.509  -0.723   6.580  0.00  0.00    +0.195 A 
ATOM     29  O   UNL     1      -0.394  -2.060   6.615  0.00  0.00    -0.470 OA
ENDBRANCH  24  25
ENDBRANCH  22  24
BRANCH  22  30
ATOM     30  C   UNL     1      -2.167  -6.018   5.038  0.00  0.00    -0.046 C 
BRANCH  30  31
ATOM     31  C   UNL     1      -3.651  -6.147   5.386  0.00  0.00    +0.098 C 
BRANCH  31  32
ATOM     32  O   UNL     1      -4.435  -5.513   4.374  0.00  0.00    -0.394 OA
ATOM     33  H   UNL     1      -4.316  -5.888   3.491  0.00  0.00    +0.210 HD
ENDBRANCH  31  32
BRANCH  31  34
ATOM     34  C   UNL     1      -4.029  -7.628   5.470  0.00  0.00    +0.033 C 
BRANCH  34  35
ATOM     35  C   UNL     1      -5.479  -7.759   5.939  0.00  0.00    +0.029 C 
BRANCH  35  36
ATOM     36  C   UNL     1      -5.850  -9.217   6.021  0.00  0.00    -0.034 C 
ATOM     37  C   UNL     1      -6.321  -9.711   7.140  0.00  0.00    +0.004 C 
ENDBRANCH  35  36
ENDBRANCH  34  35
ENDBRANCH  31  34
ENDBRANCH  30  31
ENDBRANCH  22  30
ENDBRANCH  21  22
ENDBRANCH   2  21
TORSDOF 13
