REMARK  Name = ZINC50201220
REMARK  4 active torsions:
REMARK  status: ('A' for Active; 'I' for Inactive)
REMARK    1  A    between atoms: C_1  and  C_2
REMARK    2  A    between atoms: C_9  and  C_11
REMARK    3  A    between atoms: C_13  and  N_18
REMARK    4  A    between atoms: C_16  and  N_17
REMARK                            x       y       z     vdW  Elec       q    Type
REMARK                         _______ _______ _______ _____ _____    ______ ____
ROOT
ATOM      1  C   UNL     1       0.477  -4.231   2.042  0.00  0.00    +0.060 A 
ATOM      2  C   UNL     1       1.697  -4.900   1.909  0.00  0.00    +0.047 A 
ATOM      3  C   UNL     1       1.716  -6.267   1.742  0.00  0.00    +0.127 A 
ATOM      4  C   UNL     1       0.531  -6.985   1.705  0.00  0.00    +0.034 A 
ATOM      5  C   UNL     1      -0.681  -6.339   1.834  0.00  0.00    +0.026 A 
ATOM      6  C   UNL     1      -0.721  -4.961   2.010  0.00  0.00    +0.037 A 
ENDROOT
BRANCH   1  14
ATOM      7  C   UNL     1       0.546   1.593   0.174  0.00  0.00    +0.009 C 
ATOM      8  C   UNL     1       0.517   0.065   0.116  0.00  0.00    +0.003 C 
ATOM      9  C   UNL     1       1.444  -0.421  -1.001  0.00  0.00    +0.006 C 
ATOM     10  C   UNL     1       1.391  -1.949  -1.082  0.00  0.00    +0.019 C 
ATOM     11  C   UNL     1       1.876  -2.544   0.244  0.00  0.00    +0.108 C 
ATOM     12  N   UNL     1       1.083  -1.969   1.339  0.00  0.00    -0.297 N 
ATOM     13  C   UNL     1       0.992  -0.507   1.455  0.00  0.00    +0.111 C 
ATOM     14  C   UNL     1       0.450  -2.768   2.221  0.00  0.00    +0.248 C 
ATOM     15  O   UNL     1      -0.144  -2.282   3.164  0.00  0.00    -0.270 OA
ENDBRANCH   1  14
BRANCH   6  16
ATOM     16  N   UNL     1      -1.939  -4.309   2.147  0.00  0.00    -0.357 N 
ATOM     17  H   UNL     1      -1.971  -3.340   2.172  0.00  0.00    +0.142 HD
ATOM     18  H   UNL     1      -2.759  -4.823   2.217  0.00  0.00    +0.142 HD
ENDBRANCH   6  16
BRANCH   3  19
ATOM     19  N   UNL     1       3.009  -6.974   1.601  0.00  0.00    +0.056 N 
ATOM     20  O   UNL     1       4.045  -6.351   1.633  0.00  0.00    -0.126 OA
ATOM     21  O   UNL     1       3.030  -8.174   1.454  0.00  0.00    -0.126 OA
ENDBRANCH   3  19
TORSDOF 3
