REMARK  Name = ZINC16700094
REMARK  14 active torsions:
REMARK  status: ('A' for Active; 'I' for Inactive)
REMARK    1  A    between atoms: C_1  and  C_2
REMARK    2  A    between atoms: C_2  and  C_3
REMARK    3  A    between atoms: C_3  and  C_4
REMARK    4  A    between atoms: C_4  and  C_5
REMARK    5  A    between atoms: C_5  and  O_6
REMARK    6  A    between atoms: O_6  and  C_7
REMARK    7  A    between atoms: C_10  and  C_15
REMARK    8  A    between atoms: C_12  and  O_13
REMARK    9  A    between atoms: O_13  and  C_14
REMARK   10  A    between atoms: C_22  and  C_35
REMARK   11  A    between atoms: C_23  and  C_31
REMARK   12  A    between atoms: C_24  and  C_26
REMARK   13  A    between atoms: C_31  and  O_33
REMARK   14  A    between atoms: O_33  and  C_34
REMARK                            x       y       z     vdW  Elec       q    Type
REMARK                         _______ _______ _______ _____ _____    ______ ____
ROOT
ATOM      1  C   UNL     1       2.806  -5.675  -0.242  0.00  0.00    +0.028 C 
ATOM      2  C   UNL     1       1.934  -4.649  -0.423  0.00  0.00    +0.081 A 
ATOM      3  C   UNL     1       2.198  -3.258  -0.818  0.00  0.00    +0.268 A 
ATOM      4  O   UNL     1       3.332  -2.873  -1.036  0.00  0.00    -0.266 OA
ATOM      5  N   UNL     1       1.153  -2.428  -0.931  0.00  0.00    -0.274 N 
ATOM      6  C   UNL     1      -0.107  -2.914  -0.672  0.00  0.00    +0.178 A 
ATOM      7  N   UNL     1      -1.200  -2.197  -0.750  0.00  0.00    -0.228 NA
ATOM      8  C   UNL     1      -1.240  -0.912  -1.081  0.00  0.00    +0.053 C 
ATOM      9  C   UNL     1      -0.092  -0.236  -1.383  0.00  0.00    +0.085 C 
ATOM     10  C   UNL     1       1.216  -0.990  -1.318  0.00  0.00    +0.168 C 
ATOM     11  C   UNL     1      -2.565  -0.195  -1.129  0.00  0.00    +0.066 C 
ATOM     12  S   UNL     1       0.157  -4.624  -0.247  0.00  0.00    -0.046 S 
ENDROOT
BRANCH   1  16
ATOM     13  C   UNL     1       6.984  -4.944  -0.334  0.00  0.00    +0.162 A 
ATOM     14  C   UNL     1       6.131  -4.016   0.249  0.00  0.00    +0.050 A 
ATOM     15  C   UNL     1       4.773  -4.247   0.276  0.00  0.00    +0.012 A 
ATOM     16  C   UNL     1       4.252  -5.424  -0.275  0.00  0.00    -0.020 A 
ATOM     17  C   UNL     1       5.114  -6.359  -0.861  0.00  0.00    +0.057 A 
ATOM     18  C   UNL     1       6.473  -6.117  -0.888  0.00  0.00    +0.162 A 
BRANCH  18  19
ATOM     19  O   UNL     1       7.313  -7.022  -1.457  0.00  0.00    -0.491 OA
ATOM     20  C   UNL     1       6.721  -8.201  -2.006  0.00  0.00    +0.277 C 
ENDBRANCH  18  19
BRANCH  13  21
ATOM     21  O   UNL     1       8.322  -4.708  -0.363  0.00  0.00    -0.488 OA
BRANCH  21  22
ATOM     22  C   UNL     1       8.779  -3.488   0.223  0.00  0.00    +0.229 C 
BRANCH  22  23
ATOM     23  C   UNL     1      10.301  -3.399   0.097  0.00  0.00    +0.041 C 
BRANCH  23  24
ATOM     24  C   UNL     1      10.790  -2.092   0.724  0.00  0.00    +0.003 C 
BRANCH  24  26
ATOM     25  C   UNL     1      12.801  -0.697   1.225  0.00  0.00    +0.004 C 
ATOM     26  C   UNL     1      12.312  -2.004   0.597  0.00  0.00    -0.003 C 
ENDBRANCH  24  26
ENDBRANCH  23  24
ENDBRANCH  22  23
ENDBRANCH  21  22
ENDBRANCH  13  21
ENDBRANCH   1  16
BRANCH  10  27
ATOM     27  C   UNL     1       1.869  -0.904  -2.673  0.00  0.00    +0.017 A 
ATOM     28  C   UNL     1       2.863  -0.082  -3.091  0.00  0.00    +0.013 A 
ATOM     29  C   UNL     1       3.313  -0.183  -4.395  0.00  0.00    +0.008 A 
ATOM     30  C   UNL     1       2.740  -1.095  -5.219  0.00  0.00    +0.045 A 
ATOM     31  S   UNL     1       1.530  -1.853  -4.147  0.00  0.00    -0.099 S 
ENDBRANCH  10  27
BRANCH   9  32
ATOM     32  C   UNL     1      -0.126   1.122  -1.739  0.00  0.00    +0.339 C 
ATOM     33  O   UNL     1      -1.195   1.687  -1.885  0.00  0.00    -0.245 OA
BRANCH  32  34
ATOM     34  O   UNL     1       1.028   1.801  -1.925  0.00  0.00    -0.465 OA
ATOM     35  C   UNL     1       0.919   3.179  -2.286  0.00  0.00    +0.280 C 
ENDBRANCH  32  34
ENDBRANCH   9  32
TORSDOF 10
