REMARK  Name = ZINC39721290
REMARK  9 active torsions:
REMARK  status: ('A' for Active; 'I' for Inactive)
REMARK    1  A    between atoms: C_1  and  C_2
REMARK    2  A    between atoms: C_2  and  N_3
REMARK    3  A    between atoms: C_5  and  C_33
REMARK    4  A    between atoms: N_12  and  C_13
REMARK    5  A    between atoms: C_13  and  C_15
REMARK    6  A    between atoms: C_20  and  N_21
REMARK    7  A    between atoms: N_21  and  S_22
REMARK    8  A    between atoms: S_22  and  C_25
REMARK    9  A    between atoms: C_28  and  C_31
REMARK                            x       y       z     vdW  Elec       q    Type
REMARK                         _______ _______ _______ _____ _____    ______ ____
ROOT
ATOM      1  C   UNL     1      -2.766   1.518  -4.753  0.00  0.00    +0.061 A 
ATOM      2  C   UNL     1      -1.516   2.097  -4.978  0.00  0.00    +0.015 A 
ATOM      3  C   UNL     1      -1.183   2.545  -6.238  0.00  0.00    +0.001 A 
ATOM      4  C   UNL     1      -2.082   2.423  -7.285  0.00  0.00    +0.002 A 
ATOM      5  C   UNL     1      -3.321   1.852  -7.078  0.00  0.00    +0.025 A 
ATOM      6  C   UNL     1      -3.672   1.390  -5.816  0.00  0.00    +0.060 A 
ENDROOT
BRANCH   1   7
ATOM      7  C   UNL     1      -3.130   1.036  -3.404  0.00  0.00    +0.271 C 
ATOM      8  O   UNL     1      -4.220   0.526  -3.212  0.00  0.00    -0.268 OA
BRANCH   7  18
ATOM      9  N   UNL     1      -1.853   0.762  -0.034  0.00  0.00    -0.321 N 
ATOM     10  C   UNL     1      -2.374   0.262   1.145  0.00  0.00    +0.061 A 
ATOM     11  C   UNL     1      -1.756   0.225   2.407  0.00  0.00    -0.024 A 
ATOM     12  C   UNL     1      -2.403  -0.308   3.495  0.00  0.00    +0.025 A 
ATOM     13  C   UNL     1      -3.684  -0.827   3.387  0.00  0.00    +0.042 A 
ATOM     14  C   UNL     1      -4.318  -0.804   2.157  0.00  0.00    +0.037 A 
ATOM     15  C   UNL     1      -3.670  -0.270   1.068  0.00  0.00    +0.041 A 
ATOM     16  S   UNL     1      -4.103  -0.050  -0.641  0.00  0.00    -0.052 S 
ATOM     17  C   UNL     1      -2.589   0.727  -1.181  0.00  0.00    +0.167 A 
ATOM     18  N   UNL     1      -2.262   1.160  -2.393  0.00  0.00    -0.152 NA
ATOM     19 CL   UNL     1      -4.482  -1.496   4.776  0.00  0.00    -0.083 Cl
ATOM     20  C   UNL     1      -0.363   0.779   2.569  0.00  0.00    +0.046 C 
BRANCH   9  22
ATOM     21  C   UNL     1       0.517   0.235  -0.326  0.00  0.00    +0.027 C 
ATOM     22  C   UNL     1      -0.506   1.338  -0.050  0.00  0.00    +0.121 C 
ENDBRANCH   9  22
ENDBRANCH   7  18
ENDBRANCH   1   7
BRANCH   6  23
ATOM     23  N   UNL     1      -4.917   0.809  -5.606  0.00  0.00    -0.216 N 
ATOM     24  H   UNL     1      -5.368   0.921  -4.754  0.00  0.00    +0.174 HD
BRANCH  23  25
ATOM     25  S   UNL     1      -5.632  -0.075  -6.809  0.00  0.00    +0.072 S 
ATOM     26  O   UNL     1      -6.810  -0.642  -6.252  0.00  0.00    -0.150 OA
ATOM     27  O   UNL     1      -5.659   0.755  -7.962  0.00  0.00    -0.150 OA
BRANCH  25  28
ATOM     28  C   UNL     1      -4.553  -1.418  -7.181  0.00  0.00    +0.109 A 
ATOM     29  C   UNL     1      -3.573  -1.271  -8.144  0.00  0.00    +0.029 A 
ATOM     30  C   UNL     1      -2.727  -2.324  -8.435  0.00  0.00    +0.005 A 
ATOM     31  C   UNL     1      -2.860  -3.525  -7.763  0.00  0.00    -0.050 A 
ATOM     32  C   UNL     1      -3.840  -3.671  -6.798  0.00  0.00    +0.005 A 
ATOM     33  C   UNL     1      -4.684  -2.616  -6.504  0.00  0.00    +0.029 A 
ATOM     34  C   UNL     1      -1.938  -4.673  -8.081  0.00  0.00    +0.044 C 
ENDBRANCH  25  28
ENDBRANCH  23  25
ENDBRANCH   6  23
TORSDOF 6
