REMARK  Name = ZINC39966089
REMARK  10 active torsions:
REMARK  status: ('A' for Active; 'I' for Inactive)
REMARK    1  A    between atoms: C_1  and  C_2
REMARK    2  A    between atoms: C_2  and  C_3
REMARK    3  A    between atoms: C_2  and  C_4
REMARK    4  A    between atoms: C_9  and  N_10
REMARK    5  A    between atoms: C_11  and  C_13
REMARK    6  A    between atoms: C_13  and  S_14
REMARK    7  A    between atoms: S_14  and  C_15
REMARK    8  A    between atoms: C_18  and  C_27
REMARK    9  A    between atoms: N_19  and  C_20
REMARK   10  A    between atoms: C_20  and  C_21
REMARK                            x       y       z     vdW  Elec       q    Type
REMARK                         _______ _______ _______ _____ _____    ______ ____
ROOT
ATOM      1  C   UNL     1      -0.199  -3.484  -6.968  0.00  0.00    +0.192 A 
ATOM      2  N   UNL     1       1.046  -3.072  -6.883  0.00  0.00    -0.122 NA
ATOM      3  N   UNL     1       1.728  -3.519  -7.877  0.00  0.00    -0.128 NA
ATOM      4  C   UNL     1       0.960  -4.244  -8.658  0.00  0.00    +0.165 A 
ATOM      5  N   UNL     1      -0.296  -4.248  -8.097  0.00  0.00    -0.300 N 
ENDROOT
BRANCH   4   6
ATOM      6  C   UNL     1       1.370  -4.930  -9.901  0.00  0.00    +0.023 A 
ATOM      7  C   UNL     1       2.722  -5.163 -10.159  0.00  0.00    +0.015 A 
ATOM      8  C   UNL     1       3.102  -5.804 -11.319  0.00  0.00    +0.050 A 
ATOM      9  C   UNL     1       2.145  -6.219 -12.233  0.00  0.00    +0.166 A 
ATOM     10  C   UNL     1       0.793  -5.989 -11.982  0.00  0.00    +0.167 A 
ATOM     11  C   UNL     1       0.405  -5.351 -10.818  0.00  0.00    +0.061 A 
ATOM     12  O   UNL     1       0.065  -6.488 -13.024  0.00  0.00    -0.453 OA
ATOM     13  C   UNL     1       1.003  -6.658 -14.102  0.00  0.00    +0.466 C 
ATOM     14  O   UNL     1       2.261  -6.862 -13.432  0.00  0.00    -0.453 OA
ENDBRANCH   4   6
BRANCH   1  15
ATOM     15  S   UNL     1      -1.498  -3.124  -5.834  0.00  0.00    -0.077 S 
BRANCH  15  16
ATOM     16  C   UNL     1      -0.710  -2.076  -4.581  0.00  0.00    +0.173 C 
BRANCH  16  18
ATOM     17  N   UNL     1      -1.363  -0.909  -2.500  0.00  0.00    -0.285 N 
ATOM     18  C   UNL     1      -1.725  -1.691  -3.537  0.00  0.00    +0.227 C 
ATOM     19  O   UNL     1      -2.869  -2.085  -3.628  0.00  0.00    -0.275 OA
ATOM     20  H   UNL     1      -0.466  -0.541  -2.460  0.00  0.00    +0.155 HD
BRANCH  17  26
ATOM     21  C   UNL     1      -1.831  -0.362  -0.195  0.00  0.00    -0.024 A 
ATOM     22  C   UNL     1      -2.739  -0.079   0.807  0.00  0.00    +0.006 A 
ATOM     23  C   UNL     1      -4.094  -0.066   0.531  0.00  0.00    +0.000 A 
ATOM     24  C   UNL     1      -4.545  -0.336  -0.749  0.00  0.00    +0.002 A 
ATOM     25  C   UNL     1      -3.642  -0.619  -1.755  0.00  0.00    +0.023 A 
ATOM     26  C   UNL     1      -2.280  -0.628  -1.482  0.00  0.00    +0.037 A 
BRANCH  21  28
ATOM     27  C   UNL     1       0.098   1.032   0.499  0.00  0.00    +0.012 C 
ATOM     28  C   UNL     1      -0.355  -0.376   0.107  0.00  0.00    +0.015 C 
ATOM     29  C   UNL     1      -0.079  -1.341   1.261  0.00  0.00    +0.012 C 
ENDBRANCH  21  28
ENDBRANCH  17  26
ENDBRANCH  16  18
ENDBRANCH  15  16
ENDBRANCH   1  15
BRANCH   5  30
ATOM     30  C   UNL     1      -1.490  -4.929  -8.604  0.00  0.00    +0.157 C 
BRANCH  30  31
ATOM     31  C   UNL     1      -2.277  -3.974  -9.505  0.00  0.00    +0.138 C 
ATOM     32  C   UNL     1      -3.495  -4.703 -10.125  0.00  0.00    +0.035 C 
ATOM     33  C   UNL     1      -4.441  -3.504 -10.411  0.00  0.00    +0.031 C 
ATOM     34  C   UNL     1      -4.128  -2.553  -9.236  0.00  0.00    +0.160 C 
ATOM     35  O   UNL     1      -2.833  -2.902  -8.728  0.00  0.00    -0.375 OA
ENDBRANCH  30  31
ENDBRANCH   5  30
TORSDOF 8
