REMARK  Name = ZINC35682904
REMARK  5 active torsions:
REMARK  status: ('A' for Active; 'I' for Inactive)
REMARK    1  A    between atoms: C_1  and  C_2
REMARK    2  A    between atoms: C_5  and  N_18
REMARK    3  A    between atoms: C_9  and  C_12
REMARK    4  A    between atoms: C_19  and  C_21
REMARK    5  A    between atoms: C_22  and  C_23
REMARK                            x       y       z     vdW  Elec       q    Type
REMARK                         _______ _______ _______ _____ _____    ______ ____
ROOT
ATOM      1  C   UNL     1      -0.018   1.503   0.010  0.00  0.00    +0.086 C 
ATOM      2  C   UNL     1       0.002  -0.004   0.002  0.00  0.00    +0.114 A 
ATOM      3  N   UNL     1       0.008  -0.759  -1.062  0.00  0.00    -0.239 NA
ATOM      4  C   UNL     1       0.027  -2.049  -0.695  0.00  0.00    +0.155 A 
ATOM      5  C   UNL     1       0.033  -2.104   0.658  0.00  0.00    +0.131 A 
ATOM      6  N   UNL     1       0.023  -0.805   1.106  0.00  0.00    -0.263 N 
ATOM      7  C   UNL     1       0.031  -0.386   2.435  0.00  0.00    +0.181 A 
ATOM      8  N   UNL     1       0.014   0.839   2.924  0.00  0.00    -0.222 NA
ATOM      9  C   UNL     1       0.025   1.060   4.229  0.00  0.00    +0.080 A 
ATOM     10  C   UNL     1       0.054  -0.004   5.089  0.00  0.00    +0.077 A 
ATOM     11  S   UNL     1       0.059  -1.366   3.930  0.00  0.00    -0.057 S 
ENDROOT
BRANCH   9  12
ATOM     12  C   UNL     1       0.006   2.446   4.755  0.00  0.00    +0.001 A 
ATOM     13  C   UNL     1       0.024   2.674   6.130  0.00  0.00    +0.010 A 
ATOM     14  C   UNL     1       0.006   3.966   6.613  0.00  0.00    +0.001 A 
ATOM     15  C   UNL     1      -0.030   5.035   5.735  0.00  0.00    +0.000 A 
ATOM     16  C   UNL     1      -0.048   4.815   4.370  0.00  0.00    +0.001 A 
ATOM     17  C   UNL     1      -0.025   3.527   3.875  0.00  0.00    +0.010 A 
ENDBRANCH   9  12
BRANCH   5  18
ATOM     18  N   UNL     1       0.051  -3.257   1.445  0.00  0.00    -0.267 N 
ATOM     19  C   UNL     1       0.065  -4.471   0.861  0.00  0.00    +0.242 C 
ATOM     20  O   UNL     1       0.062  -4.563  -0.353  0.00  0.00    -0.270 OA
ATOM     21  H   UNL     1       0.054  -3.183   2.412  0.00  0.00    +0.157 HD
BRANCH  19  22
ATOM     22  C   UNL     1       0.085  -5.679   1.686  0.00  0.00    +0.068 C 
ATOM     23  C   UNL     1       0.098  -6.895   1.101  0.00  0.00    +0.013 C 
BRANCH  23  24
ATOM     24  C   UNL     1       0.117  -8.109   1.930  0.00  0.00    -0.021 A 
ATOM     25  C   UNL     1       0.116  -8.006   3.326  0.00  0.00    +0.012 A 
ATOM     26  C   UNL     1       0.133  -9.145   4.100  0.00  0.00    +0.050 A 
ATOM     27  C   UNL     1       0.153 -10.398   3.501  0.00  0.00    +0.166 A 
ATOM     28  C   UNL     1       0.155 -10.509   2.109  0.00  0.00    +0.167 A 
ATOM     29  C   UNL     1       0.132  -9.372   1.326  0.00  0.00    +0.057 A 
ATOM     30  O   UNL     1       0.176 -11.833   1.778  0.00  0.00    -0.453 OA
ATOM     31  C   UNL     1       0.599 -12.520   2.970  0.00  0.00    +0.466 C 
ATOM     32  O   UNL     1       0.172 -11.652   4.036  0.00  0.00    -0.453 OA
ENDBRANCH  23  24
ENDBRANCH  19  22
ENDBRANCH   5  18
TORSDOF 4
