REMARK  Name = ZINC20367624
REMARK  11 active torsions:
REMARK  status: ('A' for Active; 'I' for Inactive)
REMARK    1  A    between atoms: C_1  and  C_2
REMARK    2  A    between atoms: C_5  and  N_8
REMARK    3  A    between atoms: C_9  and  C_11
REMARK    4  A    between atoms: C_12  and  C_40
REMARK    5  A    between atoms: C_16  and  C_18
REMARK    6  A    between atoms: C_21  and  C_23
REMARK    7  A    between atoms: C_27  and  C_30
REMARK    8  A    between atoms: C_33  and  O_38
REMARK    9  A    between atoms: C_34  and  O_36
REMARK   10  A    between atoms: O_36  and  C_37
REMARK   11  A    between atoms: O_38  and  C_39
REMARK                            x       y       z     vdW  Elec       q    Type
REMARK                         _______ _______ _______ _____ _____    ______ ____
ROOT
ATOM      1  C   UNL     1       1.223   2.450  -0.169  0.00  0.00    +0.046 C 
ATOM      2  C   UNL     1      -0.012   1.927  -0.084  0.00  0.00    +0.014 C 
ATOM      3  N   UNL     1      -1.114   2.725  -0.226  0.00  0.00    -0.321 N 
ATOM      4  C   UNL     1      -1.016   3.950  -0.825  0.00  0.00    +0.016 C 
ATOM      5  C   UNL     1       0.180   4.564  -0.940  0.00  0.00    +0.027 C 
ATOM      6  C   UNL     1       1.433   3.917  -0.405  0.00  0.00    +0.126 C 
ATOM      7  C   UNL     1       0.294   5.822  -1.558  0.00  0.00    +0.162 C 
ATOM      8  O   UNL     1       1.388   6.340  -1.659  0.00  0.00    -0.292 OA
ATOM      9  C   UNL     1      -0.915   6.537  -2.097  0.00  0.00    +0.088 C 
ATOM     10  C   UNL     1      -2.146   6.113  -1.288  0.00  0.00    +0.032 C 
ATOM     11  C   UNL     1      -2.273   4.590  -1.361  0.00  0.00    +0.059 C 
ATOM     12  C   UNL     1      -0.183   0.451   0.164  0.00  0.00    +0.061 C 
ATOM     13  H   UNL     1      -2.092   2.383   0.144  0.00  0.00    +0.152 HD
ENDROOT
BRANCH   6  14
ATOM     14  C   UNL     1       2.549   4.102  -1.401  0.00  0.00    +0.117 A 
ATOM     15  C   UNL     1       3.744   4.664  -1.147  0.00  0.00    +0.046 A 
ATOM     16  C   UNL     1       4.478   4.631  -2.355  0.00  0.00    +0.044 A 
ATOM     17  C   UNL     1       3.683   4.059  -3.277  0.00  0.00    +0.102 A 
ATOM     18  O   UNL     1       2.516   3.741  -2.694  0.00  0.00    -0.464 OA
ATOM     19  C   UNL     1       4.042   3.815  -4.721  0.00  0.00    +0.086 C 
ENDBRANCH   6  14
BRANCH  10  20
ATOM     20  C   UNL     1      -3.380   6.753  -1.870  0.00  0.00    -0.040 A 
ATOM     21  C   UNL     1      -3.726   6.511  -3.187  0.00  0.00    +0.008 A 
ATOM     22  C   UNL     1      -4.857   7.096  -3.725  0.00  0.00    +0.049 A 
ATOM     23  C   UNL     1      -5.646   7.926  -2.946  0.00  0.00    +0.161 A 
ATOM     24  C   UNL     1      -5.297   8.170  -1.621  0.00  0.00    +0.162 A 
ATOM     25  C   UNL     1      -4.165   7.577  -1.086  0.00  0.00    +0.053 A 
BRANCH  24  26
ATOM     26  O   UNL     1      -6.068   8.985  -0.852  0.00  0.00    -0.491 OA
ATOM     27  C   UNL     1      -5.649   9.190   0.498  0.00  0.00    +0.277 C 
ENDBRANCH  24  26
BRANCH  23  28
ATOM     28  O   UNL     1      -6.758   8.503  -3.475  0.00  0.00    -0.491 OA
ATOM     29  C   UNL     1      -7.054   8.208  -4.841  0.00  0.00    +0.277 C 
ENDBRANCH  23  28
ENDBRANCH  10  20
BRANCH   1  31
ATOM     30  N   UNL     1       2.719   0.804  -1.054  0.00  0.00    -0.282 N 
ATOM     31  C   UNL     1       2.348   1.600  -0.032  0.00  0.00    +0.247 C 
ATOM     32  O   UNL     1       2.980   1.590   1.009  0.00  0.00    -0.270 OA
ATOM     33  H   UNL     1       2.070   0.702  -1.936  0.00  0.00    +0.155 HD
BRANCH  30  38
ATOM     34  C   UNL     1       7.630  -2.024  -0.807  0.00  0.00    +0.044 C 
ATOM     35  C   UNL     1       6.325  -1.273  -0.872  0.00  0.00    -0.050 A 
ATOM     36  C   UNL     1       5.753  -0.989  -2.099  0.00  0.00    +0.005 A 
ATOM     37  C   UNL     1       4.557  -0.301  -2.163  0.00  0.00    +0.023 A 
ATOM     38  C   UNL     1       3.929   0.107  -0.993  0.00  0.00    +0.034 A 
ATOM     39  C   UNL     1       4.510  -0.174   0.237  0.00  0.00    +0.023 A 
ATOM     40  C   UNL     1       5.702  -0.868   0.294  0.00  0.00    +0.005 A 
ENDBRANCH  30  38
ENDBRANCH   1  31
TORSDOF 6
