REMARK  Name = ZINC28054540
REMARK  9 active torsions:
REMARK  status: ('A' for Active; 'I' for Inactive)
REMARK    1  A    between atoms: C_1  and  C_2
REMARK    2  A    between atoms: C_5  and  C_8
REMARK    3  A    between atoms: C_19  and  C_21
REMARK    4  A    between atoms: C_24  and  O_31
REMARK    5  A    between atoms: C_25  and  O_29
REMARK    6  A    between atoms: C_26  and  O_27
REMARK    7  A    between atoms: O_27  and  C_28
REMARK    8  A    between atoms: O_29  and  C_30
REMARK    9  A    between atoms: O_31  and  C_32
REMARK                            x       y       z     vdW  Elec       q    Type
REMARK                         _______ _______ _______ _____ _____    ______ ____
ROOT
ATOM      1  C   UNL     1       1.027   7.310  -0.238  0.00  0.00    +0.174 C 
ATOM      2  C   UNL     1       1.028   5.802  -0.274  0.00  0.00    +0.026 C 
ATOM      3  C   UNL     1      -0.041   5.079   0.068  0.00  0.00    +0.050 C 
ATOM      4  C   UNL     1       0.067   3.601   0.036  0.00  0.00    +0.039 A 
ATOM      5  C   UNL     1      -1.061   2.790   0.050  0.00  0.00    +0.033 A 
ATOM      6  C   UNL     1      -0.912   1.416   0.014  0.00  0.00    +0.042 A 
ATOM      7  C   UNL     1       0.352   0.851  -0.024  0.00  0.00    +0.023 A 
ATOM      8  C   UNL     1       1.479   1.652  -0.039  0.00  0.00    +0.048 A 
ATOM      9  C   UNL     1       1.345   3.027  -0.009  0.00  0.00    +0.131 A 
ATOM     10  O   UNL     1       2.426   3.847  -0.024  0.00  0.00    -0.479 OA
ATOM     11  C   UNL     1       2.289   5.091  -0.710  0.00  0.00    +0.238 C 
ATOM     12 CL   UNL     1      -2.316   0.394   0.025  0.00  0.00    -0.084 Cl
ATOM     13  N   UNL     1      -1.248   5.669   0.463  0.00  0.00    -0.282 N 
ATOM     14  C   UNL     1      -1.395   7.027   0.235  0.00  0.00    +0.240 A 
ATOM     15  N   UNL     1      -0.335   7.808  -0.101  0.00  0.00    -0.201 N 
ATOM     16  N   UNL     1      -0.854   9.091  -0.262  0.00  0.00    -0.042 NA
ATOM     17  N   UNL     1      -2.122   9.009  -0.019  0.00  0.00    -0.021 NA
ATOM     18  N   UNL     1      -2.445   7.796   0.275  0.00  0.00    -0.092 NA
ATOM     19  H   UNL     1      -2.031   5.057   0.932  0.00  0.00    +0.155 HD
ENDROOT
BRANCH   1  24
ATOM     20  C   UNL     1       4.180   9.123   4.252  0.00  0.00    +0.044 C 
ATOM     21  C   UNL     1       3.358   8.651   3.081  0.00  0.00    -0.050 A 
ATOM     22  C   UNL     1       3.711   9.016   1.796  0.00  0.00    +0.004 A 
ATOM     23  C   UNL     1       2.957   8.583   0.722  0.00  0.00    +0.006 A 
ATOM     24  C   UNL     1       1.849   7.783   0.933  0.00  0.00    -0.019 A 
ATOM     25  C   UNL     1       1.492   7.422   2.218  0.00  0.00    +0.006 A 
ATOM     26  C   UNL     1       2.249   7.852   3.292  0.00  0.00    +0.004 A 
ENDBRANCH   1  24
BRANCH  11  27
ATOM     27  C   UNL     1       2.229   4.837  -2.194  0.00  0.00    +0.042 A 
ATOM     28  C   UNL     1       1.778   3.619  -2.667  0.00  0.00    +0.015 A 
ATOM     29  C   UNL     1       1.715   3.383  -4.028  0.00  0.00    +0.050 A 
ATOM     30  C   UNL     1       2.116   4.364  -4.923  0.00  0.00    +0.165 A 
ATOM     31  C   UNL     1       2.576   5.587  -4.451  0.00  0.00    +0.204 A 
ATOM     32  C   UNL     1       2.631   5.822  -3.082  0.00  0.00    +0.172 A 
BRANCH  32  33
ATOM     33  O   UNL     1       3.080   7.018  -2.615  0.00  0.00    -0.491 OA
ATOM     34  C   UNL     1       4.494   7.173  -2.479  0.00  0.00    +0.277 C 
ENDBRANCH  32  33
BRANCH  31  35
ATOM     35  O   UNL     1       2.970   6.551  -5.326  0.00  0.00    -0.488 OA
ATOM     36  C   UNL     1       1.993   7.522  -5.706  0.00  0.00    +0.277 C 
ENDBRANCH  31  35
BRANCH  30  37
ATOM     37  O   UNL     1       2.060   4.128  -6.261  0.00  0.00    -0.491 OA
ATOM     38  C   UNL     1       1.577   2.848  -6.675  0.00  0.00    +0.277 C 
ENDBRANCH  30  37
ENDBRANCH  11  27
TORSDOF 5
