REMARK  Name = ZINC59914535
REMARK  12 active torsions:
REMARK  status: ('A' for Active; 'I' for Inactive)
REMARK    1  A    between atoms: C_1  and  C_2
REMARK    2  A    between atoms: C_3  and  C_11
REMARK    3  A    between atoms: C_4  and  C_10
REMARK    4  A    between atoms: N_5  and  C_7
REMARK    5  A    between atoms: C_7  and  C_8
REMARK    6  A    between atoms: C_8  and  O_9
REMARK    7  A    between atoms: N_12  and  N_13
REMARK    8  A    between atoms: C_17  and  S_20
REMARK    9  A    between atoms: N_18  and  N_19
REMARK   10  A    between atoms: S_20  and  C_21
REMARK   11  A    between atoms: C_21  and  C_22
REMARK   12  A    between atoms: N_24  and  C_25
REMARK                            x       y       z     vdW  Elec       q    Type
REMARK                         _______ _______ _______ _____ _____    ______ ____
ROOT
ATOM      1  N   UNL     1      -0.102   1.332  -4.153  0.00  0.00    -0.204 N 
ATOM      2  C   UNL     1      -0.112   2.689  -4.441  0.00  0.00    +0.254 A 
ATOM      3  N   UNL     1      -0.113   3.662  -3.563  0.00  0.00    -0.109 NA
ATOM      4  N   UNL     1      -0.124   4.876  -4.262  0.00  0.00    -0.119 NA
ATOM      5  C   UNL     1      -0.130   4.604  -5.545  0.00  0.00    +0.210 A 
ATOM      6  N   UNL     1      -0.116   3.246  -5.689  0.00  0.00    -0.211 N 
ATOM      7  H   UNL     1      -0.097   0.683  -4.875  0.00  0.00    +0.177 HD
ENDROOT
BRANCH   6   8
ATOM      8  N   UNL     1      -0.112   2.564  -6.873  0.00  0.00    -0.294 N 
ATOM      9  H   UNL     1      -1.052   2.376  -7.186  0.00  0.00    +0.163 HD
ATOM     10  H   UNL     1       0.410   3.064  -7.577  0.00  0.00    +0.163 HD
ENDBRANCH   6   8
BRANCH   1  12
ATOM     11  C   UNL     1      -0.088  -0.372  -2.552  0.00  0.00    +0.141 C 
ATOM     12  N   UNL     1      -0.098   0.898  -2.821  0.00  0.00    -0.187 NA
BRANCH  11  15
ATOM     13  C   UNL     1      -0.102   1.500   0.008  0.00  0.00    +0.068 C 
ATOM     14  C   UNL     1      -0.091  -0.007  -0.001  0.00  0.00    +0.069 A 
ATOM     15  C   UNL     1      -0.085  -0.829  -1.149  0.00  0.00    +0.038 A 
ATOM     16  C   UNL     1      -0.074  -2.137  -0.716  0.00  0.00    +0.045 A 
ATOM     17  N   UNL     1      -0.074  -2.115   0.633  0.00  0.00    -0.266 N 
ATOM     18  N   UNL     1      -0.080  -0.780   1.052  0.00  0.00    -0.176 NA
ATOM     19  C   UNL     1      -0.066  -3.366  -1.588  0.00  0.00    +0.066 C 
BRANCH  17  20
ATOM     20  C   UNL     1      -0.065  -3.289   1.509  0.00  0.00    +0.171 C 
BRANCH  20  21
ATOM     21  C   UNL     1       1.381  -3.686   1.814  0.00  0.00    +0.179 C 
BRANCH  21  22
ATOM     22  O   UNL     1       1.390  -4.831   2.669  0.00  0.00    -0.393 OA
ATOM     23  H   UNL     1       2.276  -5.140   2.904  0.00  0.00    +0.209 HD
ENDBRANCH  21  22
ENDBRANCH  20  21
ENDBRANCH  17  20
ENDBRANCH  11  15
ENDBRANCH   1  12
BRANCH   5  24
ATOM     24  S   UNL     1      -0.145   5.784  -6.854  0.00  0.00    -0.075 S 
BRANCH  24  25
ATOM     25  C   UNL     1      -0.150   7.385  -6.001  0.00  0.00    +0.173 C 
BRANCH  25  26
ATOM     26  C   UNL     1      -0.163   8.497  -7.019  0.00  0.00    +0.228 C 
ATOM     27  O   UNL     1      -0.169   8.234  -8.203  0.00  0.00    -0.275 OA
ATOM     28  N   UNL     1      -0.169   9.782  -6.613  0.00  0.00    -0.284 N 
ATOM     29  H   UNL     1      -0.230   9.992  -5.668  0.00  0.00    +0.155 HD
BRANCH  28  30
ATOM     30  C   UNL     1      -0.086  10.813  -7.556  0.00  0.00    +0.053 A 
ATOM     31  C   UNL     1      -0.689  10.671  -8.799  0.00  0.00    +0.025 A 
ATOM     32  C   UNL     1      -0.607  11.690  -9.727  0.00  0.00    +0.003 A 
ATOM     33  C   UNL     1       0.076  12.853  -9.421  0.00  0.00    +0.021 A 
ATOM     34  C   UNL     1       0.678  13.000  -8.184  0.00  0.00    +0.061 A 
ATOM     35  C   UNL     1       0.594  11.985  -7.247  0.00  0.00    +0.080 A 
ATOM     36 CL   UNL     1       1.343  12.172  -5.693  0.00  0.00    -0.080 Cl
ATOM     37 CL   UNL     1       1.534  14.462  -7.804  0.00  0.00    -0.082 Cl
ENDBRANCH  28  30
ENDBRANCH  25  26
ENDBRANCH  24  25
ENDBRANCH   5  24
TORSDOF 10
