REMARK  Name = ZINC07302490
REMARK  8 active torsions:
REMARK  status: ('A' for Active; 'I' for Inactive)
REMARK    1  A    between atoms: C_1  and  C_2
REMARK    2  A    between atoms: C_2  and  C_4
REMARK    3  A    between atoms: C_2  and  O_17
REMARK    4  A    between atoms: N_6  and  C_7
REMARK    5  A    between atoms: C_12  and  C_13
REMARK    6  A    between atoms: O_17  and  C_18
REMARK    7  A    between atoms: C_18  and  C_20
REMARK    8  A    between atoms: C_25  and  N_26
REMARK                            x       y       z     vdW  Elec       q    Type
REMARK                         _______ _______ _______ _____ _____    ______ ____
ROOT
ATOM      1  C   UNL     1      -0.090   1.526  -0.294  0.00  0.00    +0.062 C 
ATOM      2  C   UNL     1      -0.078  -0.004  -0.312  0.00  0.00    +0.259 C 
ENDROOT
BRANCH   2   3
ATOM      3  C   UNL     1       0.669  -0.515   0.892  0.00  0.00    +0.258 C 
ATOM      4  O   UNL     1       0.084  -1.151   1.744  0.00  0.00    -0.271 OA
ATOM      5  N   UNL     1       1.987  -0.267   1.023  0.00  0.00    -0.282 N 
ATOM      6  H   UNL     1       2.472   0.170   0.305  0.00  0.00    +0.155 HD
BRANCH   5   7
ATOM      7  C   UNL     1       2.656  -0.639   2.194  0.00  0.00    +0.045 A 
ATOM      8  C   UNL     1       1.954  -0.775   3.384  0.00  0.00    +0.024 A 
ATOM      9  C   UNL     1       2.617  -1.143   4.538  0.00  0.00    +0.002 A 
ATOM     10  C   UNL     1       3.980  -1.375   4.510  0.00  0.00    +0.001 A 
ATOM     11  C   UNL     1       4.683  -1.241   3.326  0.00  0.00    +0.014 A 
ATOM     12  C   UNL     1       4.024  -0.880   2.167  0.00  0.00    +0.076 A 
BRANCH  12  13
ATOM     13  C   UNL     1       4.789  -0.741   0.877  0.00  0.00    +0.419 C 
ATOM     14  F   UNL     1       6.139  -1.032   1.101  0.00  0.00    -0.166 F 
ATOM     15  F   UNL     1       4.271  -1.630  -0.071  0.00  0.00    -0.166 F 
ATOM     16  F   UNL     1       4.667   0.570   0.402  0.00  0.00    -0.166 F 
ENDBRANCH  12  13
ENDBRANCH   5   7
ENDBRANCH   2   3
BRANCH   2  17
ATOM     17  O   UNL     1      -1.422  -0.491  -0.281  0.00  0.00    -0.449 OA
BRANCH  17  18
ATOM     18  C   UNL     1      -2.030  -0.685  -1.469  0.00  0.00    +0.342 C 
ATOM     19  O   UNL     1      -1.435  -0.447  -2.502  0.00  0.00    -0.245 OA
BRANCH  18  20
ATOM     20  C   UNL     1      -3.414  -1.185  -1.514  0.00  0.00    +0.080 A 
ATOM     21  C   UNL     1      -4.138  -1.357  -0.331  0.00  0.00    +0.018 A 
ATOM     22  C   UNL     1      -5.432  -1.824  -0.380  0.00  0.00    +0.021 A 
ATOM     23  C   UNL     1      -6.023  -2.126  -1.598  0.00  0.00    +0.043 A 
ATOM     24  C   UNL     1      -5.321  -1.961  -2.776  0.00  0.00    +0.043 A 
ATOM     25  C   UNL     1      -4.016  -1.486  -2.747  0.00  0.00    +0.040 A 
ATOM     26 CL   UNL     1      -7.656  -2.715  -1.643  0.00  0.00    -0.083 Cl
BRANCH  25  27
ATOM     27  N   UNL     1      -3.309  -1.314  -3.929  0.00  0.00    -0.357 N 
ATOM     28  H   UNL     1      -2.425  -0.915  -3.912  0.00  0.00    +0.142 HD
ATOM     29  H   UNL     1      -3.700  -1.592  -4.772  0.00  0.00    +0.142 HD
ENDBRANCH  25  27
ENDBRANCH  18  20
ENDBRANCH  17  18
ENDBRANCH   2  17
TORSDOF 7
