REMARK  Name = ZINC15841698
REMARK  7 active torsions:
REMARK  status: ('A' for Active; 'I' for Inactive)
REMARK    1  A    between atoms: C_1  and  C_2
REMARK    2  A    between atoms: C_2  and  C_3
REMARK    3  A    between atoms: C_6  and  N_9
REMARK    4  A    between atoms: C_25  and  C_26
REMARK    5  A    between atoms: C_25  and  C_28
REMARK    6  A    between atoms: C_26  and  C_27
REMARK    7  A    between atoms: C_28  and  C_29
REMARK                            x       y       z     vdW  Elec       q    Type
REMARK                         _______ _______ _______ _____ _____    ______ ____
ROOT
ATOM      1  N   UNL     1       1.544  -4.206  -1.355  0.00  0.00    -0.229 N 
ATOM      2  C   UNL     1       1.678  -2.869  -1.470  0.00  0.00    +0.265 A 
ATOM      3  O   UNL     1       2.754  -2.338  -1.258  0.00  0.00    -0.267 OA
ATOM      4  C   UNL     1       0.561  -2.091  -1.839  0.00  0.00    +0.048 A 
ATOM      5  C   UNL     1      -0.624  -2.716  -2.092  0.00  0.00    +0.060 A 
ATOM      6  N   UNL     1      -0.720  -4.080  -1.947  0.00  0.00    -0.306 N 
ATOM      7  H   UNL     1      -1.567  -4.526  -2.107  0.00  0.00    +0.170 HD
ATOM      8  C   UNL     1       0.359  -4.800  -1.583  0.00  0.00    +0.334 A 
ATOM      9  O   UNL     1       0.260  -6.005  -1.459  0.00  0.00    -0.246 OA
ATOM     10  C   UNL     1      -1.787  -1.919  -2.524  0.00  0.00    +0.002 A 
ATOM     11  C   UNL     1      -3.076  -2.449  -2.474  0.00  0.00    +0.010 A 
ATOM     12  C   UNL     1      -4.149  -1.675  -2.868  0.00  0.00    +0.001 A 
ATOM     13  C   UNL     1      -3.946  -0.379  -3.310  0.00  0.00    +0.000 A 
ATOM     14  C   UNL     1      -2.668   0.149  -3.368  0.00  0.00    +0.004 A 
ATOM     15  C   UNL     1      -1.587  -0.616  -2.986  0.00  0.00    -0.037 A 
ATOM     16  C   UNL     1      -0.188  -0.067  -3.089  0.00  0.00    +0.047 C 
ATOM     17  C   UNL     1       0.677  -0.596  -1.949  0.00  0.00    +0.006 C 
ENDROOT
BRANCH   1  21
ATOM     18  C   UNL     1       4.838  -6.522  -0.279  0.00  0.00    -0.047 A 
ATOM     19  C   UNL     1       4.312  -6.620  -1.554  0.00  0.00    +0.005 A 
ATOM     20  C   UNL     1       3.221  -5.854  -1.913  0.00  0.00    +0.026 A 
ATOM     21  C   UNL     1       2.651  -4.984  -0.993  0.00  0.00    +0.054 A 
ATOM     22  C   UNL     1       3.185  -4.884   0.285  0.00  0.00    +0.026 A 
ATOM     23  C   UNL     1       4.273  -5.657   0.640  0.00  0.00    +0.005 A 
BRANCH  18  25
ATOM     24  C   UNL     1       7.316  -6.591  -0.204  0.00  0.00    +0.009 C 
ATOM     25  C   UNL     1       6.029  -7.359   0.110  0.00  0.00    +0.032 C 
ENDBRANCH  18  25
ENDBRANCH   1  21
BRANCH  17  26
ATOM     26  C   UNL     1       0.223   0.042  -0.634  0.00  0.00    +0.009 C 
ATOM     27  C   UNL     1       0.463   1.552  -0.691  0.00  0.00    +0.005 C 
ENDBRANCH  17  26
BRANCH  17  28
ATOM     28  C   UNL     1       2.138  -0.223  -2.212  0.00  0.00    +0.009 C 
ATOM     29  C   UNL     1       2.629  -0.940  -3.470  0.00  0.00    +0.005 C 
ENDBRANCH  17  28
TORSDOF 4
