REMARK  Name = ZINC15224456
REMARK  3 active torsions:
REMARK  status: ('A' for Active; 'I' for Inactive)
REMARK    1  A    between atoms: C_4  and  C_7
REMARK    2  A    between atoms: C_7  and  C_9
REMARK    3  A    between atoms: C_15  and  C_17
REMARK                            x       y       z     vdW  Elec       q    Type
REMARK                         _______ _______ _______ _____ _____    ______ ____
ROOT
ATOM      1  C   UNL     1       0.113   1.579  -2.299  0.00  0.00    +0.351 C 
ATOM      2  N   UNL     1      -0.798   1.500  -1.149  0.00  0.00    -0.202 N 
ATOM      3  C   UNL     1      -0.465   0.663   0.026  0.00  0.00    +0.136 C 
ATOM      4  C   UNL     1      -1.421   1.171   1.114  0.00  0.00    +0.087 C 
ATOM      5  C   UNL     1      -2.399   2.053   0.317  0.00  0.00    +0.075 C 
ATOM      6  N   UNL     1      -1.985   2.165  -0.906  0.00  0.00    -0.184 NA
ATOM      7  C   UNL     1       0.974   0.953   0.361  0.00  0.00    +0.018 A 
ATOM      8  C   UNL     1       1.465   0.590   1.601  0.00  0.00    +0.024 A 
ATOM      9  C   UNL     1       2.787   0.830   1.927  0.00  0.00    +0.018 A 
ATOM     10  C   UNL     1       3.621   1.435   1.004  0.00  0.00    +0.019 A 
ATOM     11  C   UNL     1       3.133   1.805  -0.231  0.00  0.00    +0.047 A 
ATOM     12  C   UNL     1       1.798   1.576  -0.564  0.00  0.00    +0.129 A 
ATOM     13  O   UNL     1       1.377   2.010  -1.780  0.00  0.00    -0.462 OA
ATOM     14 BR   UNL     1       3.452   0.334   3.626  0.00  0.00    -0.050 Br
ENDROOT
BRANCH   5  15
ATOM     15  C   UNL     1      -3.610   2.677   0.863  0.00  0.00    +0.035 A 
ATOM     16  C   UNL     1      -4.537   3.484   0.229  0.00  0.00    +0.017 A 
ATOM     17  C   UNL     1      -5.603   3.955   0.961  0.00  0.00    +0.008 A 
ATOM     18  C   UNL     1      -5.712   3.616   2.271  0.00  0.00    +0.046 A 
ATOM     19  S   UNL     1      -4.275   2.585   2.517  0.00  0.00    -0.095 S 
ENDBRANCH   5  15
BRANCH   1  20
ATOM     20  C   UNL     1       0.253   0.224  -2.942  0.00  0.00    +0.223 C 
ATOM     21  O   UNL     1      -0.573  -0.637  -2.729  0.00  0.00    -0.286 OA
BRANCH  20  25
ATOM     22  C   UNL     1       3.539  -0.579  -5.503  0.00  0.00    +0.000 A 
ATOM     23  C   UNL     1       2.666  -1.598  -5.162  0.00  0.00    +0.001 A 
ATOM     24  C   UNL     1       1.596  -1.345  -4.330  0.00  0.00    +0.011 A 
ATOM     25  C   UNL     1       1.393  -0.055  -3.830  0.00  0.00    +0.023 A 
ATOM     26  C   UNL     1       2.276   0.970  -4.183  0.00  0.00    +0.011 A 
ATOM     27  C   UNL     1       3.345   0.700  -5.011  0.00  0.00    +0.001 A 
ENDBRANCH  20  25
ENDBRANCH   1  20
TORSDOF 3
