REMARK  Name = ZINC28296965
REMARK  8 active torsions:
REMARK  status: ('A' for Active; 'I' for Inactive)
REMARK    1  A    between atoms: C_3  and  C_11
REMARK    2  A    between atoms: C_5  and  C_7
REMARK    3  A    between atoms: C_14  and  C_16
REMARK    4  A    between atoms: N_20  and  C_24
REMARK    5  A    between atoms: C_24  and  C_26
REMARK    6  A    between atoms: C_24  and  C_31
REMARK    7  A    between atoms: C_26  and  C_27
REMARK    8  A    between atoms: C_27  and  C_28
REMARK                            x       y       z     vdW  Elec       q    Type
REMARK                         _______ _______ _______ _____ _____    ______ ____
ROOT
ATOM      1  C   UNL     1       7.210   2.427  -0.051  0.00  0.00    +0.066 C 
ATOM      2  C   UNL     1       7.742   1.174   0.041  0.00  0.00    +0.080 C 
ATOM      3  C   UNL     1       7.066  -0.134   0.061  0.00  0.00    +0.259 C 
ATOM      4  O   UNL     1       5.853  -0.227  -0.008  0.00  0.00    -0.269 OA
ATOM      5  N   UNL     1       7.839  -1.202   0.157  0.00  0.00    -0.241 N 
ATOM      6  C   UNL     1       9.181  -1.095   0.234  0.00  0.00    +0.121 C 
ATOM      7  S   UNL     1      10.343  -2.346   0.361  0.00  0.00    -0.027 S 
ATOM      8  S   UNL     1       9.453   0.668   0.161  0.00  0.00    -0.061 S 
ENDROOT
BRANCH   1  12
ATOM      9  C   UNL     1       3.715   2.134  -0.686  0.00  0.00    +0.136 A 
ATOM     10  C   UNL     1       3.806   3.493  -0.574  0.00  0.00    +0.050 A 
ATOM     11  C   UNL     1       5.146   3.795  -0.317  0.00  0.00    +0.050 A 
ATOM     12  C   UNL     1       5.827   2.592  -0.282  0.00  0.00    +0.130 A 
ATOM     13  O   UNL     1       4.937   1.602  -0.504  0.00  0.00    -0.455 OA
BRANCH   9  16
ATOM     14  C   UNL     1       0.113   1.331  -1.374  0.00  0.00    +0.001 A 
ATOM     15  C   UNL     1       1.264   2.047  -1.122  0.00  0.00    +0.011 A 
ATOM     16  C   UNL     1       2.478   1.375  -0.957  0.00  0.00    +0.018 A 
ATOM     17  C   UNL     1       2.516  -0.018  -1.049  0.00  0.00    +0.024 A 
ATOM     18  C   UNL     1       1.356  -0.721  -1.302  0.00  0.00    +0.055 A 
ATOM     19  C   UNL     1       0.157  -0.049  -1.464  0.00  0.00    +0.012 A 
BRANCH  18  20
ATOM     20  C   UNL     1       1.395  -2.224  -1.402  0.00  0.00    +0.417 C 
ATOM     21  F   UNL     1       0.108  -2.707  -1.661  0.00  0.00    -0.166 F 
ATOM     22  F   UNL     1       2.252  -2.601  -2.441  0.00  0.00    -0.166 F 
ATOM     23  F   UNL     1       1.860  -2.760  -0.196  0.00  0.00    -0.166 F 
ENDBRANCH  18  20
ENDBRANCH   9  16
ENDBRANCH   1  12
BRANCH   5  24
ATOM     24  C   UNL     1       7.224  -2.532   0.183  0.00  0.00    +0.196 C 
BRANCH  24  25
ATOM     25  C   UNL     1       7.582  -3.227   1.471  0.00  0.00    +0.376 C 
ATOM     26  O   UNL     1       8.280  -2.669   2.284  0.00  0.00    -0.244 OA
ATOM     27  O   UNL     1       7.127  -4.465   1.715  0.00  0.00    -0.244 OA
ENDBRANCH  24  25
BRANCH  24  28
ATOM     28  C   UNL     1       7.738  -3.354  -1.001  0.00  0.00    +0.046 C 
BRANCH  28  29
ATOM     29  C   UNL     1       7.267  -2.715  -2.309  0.00  0.00    +0.127 C 
BRANCH  29  30
ATOM     30  C   UNL     1       7.773  -3.525  -3.474  0.00  0.00    +0.356 C 
ATOM     31  O   UNL     1       8.442  -4.512  -3.279  0.00  0.00    -0.246 OA
ATOM     32  O   UNL     1       7.481  -3.150  -4.729  0.00  0.00    -0.246 OA
ENDBRANCH  29  30
ENDBRANCH  28  29
ENDBRANCH  24  28
ENDBRANCH   5  24
TORSDOF 8
