REMARK  Name = ZINC13274033
REMARK  8 active torsions:
REMARK  status: ('A' for Active; 'I' for Inactive)
REMARK    1  A    between atoms: C_4  and  N_9
REMARK    2  A    between atoms: C_5  and  C_7
REMARK    3  A    between atoms: N_9  and  S_10
REMARK    4  A    between atoms: S_10  and  C_13
REMARK    5  A    between atoms: C_16  and  O_22
REMARK    6  A    between atoms: C_17  and  N_19
REMARK    7  A    between atoms: O_22  and  C_23
REMARK    8  A    between atoms: C_26  and  C_30
REMARK                            x       y       z     vdW  Elec       q    Type
REMARK                         _______ _______ _______ _____ _____    ______ ____
ROOT
ATOM      1  C   UNL     1       2.322   1.572  -0.455  0.00  0.00    +0.111 A 
ATOM      2  C   UNL     1       1.204   2.387  -0.478  0.00  0.00    +0.032 A 
ATOM      3  C   UNL     1      -0.058   1.829  -0.534  0.00  0.00    +0.050 A 
ATOM      4  C   UNL     1      -0.204   0.449  -0.567  0.00  0.00    +0.159 A 
ATOM      5  C   UNL     1       0.918  -0.366  -0.544  0.00  0.00    +0.170 A 
ATOM      6  C   UNL     1       2.179   0.197  -0.487  0.00  0.00    +0.065 A 
ENDROOT
BRANCH   1   7
ATOM      7  S   UNL     1       3.930   2.287  -0.383  0.00  0.00    +0.072 S 
ATOM      8  O   UNL     1       3.776   3.579   0.189  0.00  0.00    -0.150 OA
ATOM      9  O   UNL     1       4.788   1.303   0.179  0.00  0.00    -0.150 OA
BRANCH   7  10
ATOM     10  N   UNL     1       4.434   2.518  -1.944  0.00  0.00    -0.215 N 
ATOM     11  H   UNL     1       5.235   2.077  -2.265  0.00  0.00    +0.174 HD
BRANCH  10  15
ATOM     12  C   UNL     1       2.255   4.995  -4.488  0.00  0.00    +0.001 A 
ATOM     13  C   UNL     1       2.371   5.304  -3.142  0.00  0.00    +0.002 A 
ATOM     14  C   UNL     1       3.088   4.483  -2.296  0.00  0.00    +0.025 A 
ATOM     15  C   UNL     1       3.708   3.343  -2.792  0.00  0.00    +0.062 A 
ATOM     16  C   UNL     1       3.592   3.027  -4.155  0.00  0.00    +0.085 A 
ATOM     17  C   UNL     1       2.858   3.867  -4.998  0.00  0.00    +0.017 A 
BRANCH  16  18
ATOM     18  C   UNL     1       4.239   1.819  -4.694  0.00  0.00    +0.388 C 
ATOM     19  O   UNL     1       4.876   1.091  -3.958  0.00  0.00    -0.241 OA
ATOM     20  O   UNL     1       4.125   1.520  -6.003  0.00  0.00    -0.241 OA
ENDBRANCH  16  18
ENDBRANCH  10  15
ENDBRANCH   7  10
ENDBRANCH   1   7
BRANCH   5  21
ATOM     21  N   UNL     1       0.766  -1.838  -0.578  0.00  0.00    +0.060 N 
ATOM     22  O   UNL     1       1.751  -2.553  -0.558  0.00  0.00    -0.126 OA
ATOM     23  O   UNL     1      -0.346  -2.334  -0.627  0.00  0.00    -0.126 OA
ENDBRANCH   5  21
BRANCH   4  24
ATOM     24  O   UNL     1      -1.445  -0.102  -0.623  0.00  0.00    -0.452 OA
BRANCH  24  25
ATOM     25  C   UNL     1      -2.515   0.728  -0.539  0.00  0.00    +0.147 A 
ATOM     26  C   UNL     1      -3.104   0.978   0.696  0.00  0.00    +0.048 A 
ATOM     27  C   UNL     1      -4.189   1.819   0.785  0.00  0.00    +0.019 A 
ATOM     28  C   UNL     1      -4.701   2.424  -0.367  0.00  0.00    +0.065 A 
ATOM     29  C   UNL     1      -4.107   2.170  -1.607  0.00  0.00    +0.038 A 
ATOM     30  C   UNL     1      -3.017   1.330  -1.688  0.00  0.00    +0.084 A 
ATOM     31 CL   UNL     1      -2.274   1.020  -3.225  0.00  0.00    -0.080 Cl
BRANCH  28  32
ATOM     32  C   UNL     1      -5.864   3.325  -0.275  0.00  0.00    +0.387 C 
ATOM     33  O   UNL     1      -6.379   3.545   0.803  0.00  0.00    -0.241 OA
ATOM     34  O   UNL     1      -6.355   3.907  -1.387  0.00  0.00    -0.241 OA
ENDBRANCH  28  32
ENDBRANCH  24  25
ENDBRANCH   4  24
TORSDOF 8
