REMARK  Name = ZINC60217553
REMARK  9 active torsions:
REMARK  status: ('A' for Active; 'I' for Inactive)
REMARK    1  A    between atoms: C_1  and  C_2
REMARK    2  A    between atoms: C_3  and  C_27
REMARK    3  A    between atoms: C_8  and  C_12
REMARK    4  A    between atoms: C_13  and  C_14
REMARK    5  A    between atoms: C_16  and  C_23
REMARK    6  A    between atoms: C_17  and  O_22
REMARK    7  A    between atoms: C_18  and  O_20
REMARK    8  A    between atoms: O_20  and  C_21
REMARK    9  A    between atoms: C_23  and  C_24
REMARK                            x       y       z     vdW  Elec       q    Type
REMARK                         _______ _______ _______ _____ _____    ______ ____
ROOT
ATOM      1  C   UNL     1      -0.754   1.062   0.255  0.00  0.00    +0.052 C 
ATOM      2  C   UNL     1      -0.607  -0.438   0.222  0.00  0.00    -0.003 A 
ATOM      3  C   UNL     1      -1.144  -1.313  -0.661  0.00  0.00    +0.007 A 
ATOM      4  C   UNL     1      -0.865  -2.736  -0.499  0.00  0.00    +0.082 A 
ATOM      5  C   UNL     1      -1.303  -3.838  -1.280  0.00  0.00    +0.282 A 
ATOM      6  O   UNL     1      -2.101  -3.638  -2.356  0.00  0.00    -0.265 OA
ATOM      7  N   UNL     1      -0.926  -5.058  -0.949  0.00  0.00    -0.188 NA
ATOM      8  C   UNL     1      -0.142  -5.294   0.102  0.00  0.00    +0.176 A 
ATOM      9  N   UNL     1       0.298  -4.301   0.869  0.00  0.00    -0.219 NA
ATOM     10  C   UNL     1      -0.037  -3.056   0.600  0.00  0.00    +0.117 A 
ATOM     11  S   UNL     1       0.320  -1.481   1.331  0.00  0.00    -0.073 S 
ENDROOT
BRANCH   3  12
ATOM     12  C   UNL     1      -2.000  -0.835  -1.773  0.00  0.00    -0.016 A 
ATOM     13  C   UNL     1      -3.328  -1.252  -1.864  0.00  0.00    +0.008 A 
ATOM     14  C   UNL     1      -4.120  -0.803  -2.901  0.00  0.00    +0.001 A 
ATOM     15  C   UNL     1      -3.599   0.059  -3.849  0.00  0.00    +0.000 A 
ATOM     16  C   UNL     1      -2.283   0.476  -3.764  0.00  0.00    +0.001 A 
ATOM     17  C   UNL     1      -1.483   0.039  -2.728  0.00  0.00    +0.008 A 
ENDBRANCH   3  12
BRANCH   8  18
ATOM     18  C   UNL     1       0.244  -6.679   0.420  0.00  0.00    +0.086 C 
ATOM     19  C   UNL     1      -0.668  -7.665   0.348  0.00  0.00    +0.031 C 
ATOM     20 CL   UNL     1       1.877  -7.039   0.887  0.00  0.00    -0.080 Cl
BRANCH  19  21
ATOM     21  C   UNL     1      -2.069  -7.350   0.020  0.00  0.00    -0.020 A 
ATOM     22  C   UNL     1      -2.663  -6.190   0.526  0.00  0.00    +0.015 A 
ATOM     23  C   UNL     1      -3.974  -5.897   0.218  0.00  0.00    +0.002 A 
ATOM     24  C   UNL     1      -4.707  -6.750  -0.594  0.00  0.00    +0.162 A 
ATOM     25  C   UNL     1      -4.122  -7.909  -1.102  0.00  0.00    +0.162 A 
ATOM     26  C   UNL     1      -2.806  -8.207  -0.802  0.00  0.00    +0.057 A 
BRANCH  25  27
ATOM     27  O   UNL     1      -4.844  -8.743  -1.897  0.00  0.00    -0.491 OA
ATOM     28  C   UNL     1      -4.218  -9.964  -2.294  0.00  0.00    +0.277 C 
ENDBRANCH  25  27
BRANCH  24  29
ATOM     29  O   UNL     1      -6.000  -6.457  -0.894  0.00  0.00    -0.503 OA
ATOM     30  H   UNL     1      -6.107  -5.924  -1.694  0.00  0.00    +0.292 HD
ENDBRANCH  24  29
BRANCH  23  31
ATOM     31  C   UNL     1      -4.613  -4.646   0.764  0.00  0.00    +0.065 C 
BRANCH  31  32
ATOM     32  C   UNL     1      -5.321  -4.966   2.056  0.00  0.00    -0.030 C 
ATOM     33  C   UNL     1      -5.036  -4.293   3.143  0.00  0.00    +0.004 C 
ENDBRANCH  31  32
ENDBRANCH  23  31
ENDBRANCH  19  21
ENDBRANCH   8  18
TORSDOF 7
