REMARK  Name = ZINC00938972
REMARK  3 active torsions:
REMARK  status: ('A' for Active; 'I' for Inactive)
REMARK    1  A    between atoms: C_1  and  C_2
REMARK    2  A    between atoms: N_13  and  C_18
REMARK    3  A    between atoms: N_16  and  N_17
REMARK                            x       y       z     vdW  Elec       q    Type
REMARK                         _______ _______ _______ _____ _____    ______ ____
ROOT
ATOM      1  C   UNL     1      -0.422   3.951  -2.444  0.00  0.00    +0.008 C 
ATOM      2  C   UNL     1      -0.130   2.494  -2.081  0.00  0.00    -0.009 C 
ATOM      3  C   UNL     1      -1.377   1.641  -2.334  0.00  0.00    +0.008 C 
ATOM      4  C   UNL     1      -1.178   0.244  -1.746  0.00  0.00    +0.037 C 
ATOM      5  C   UNL     1       0.131  -0.335  -2.277  0.00  0.00    -0.023 A 
ATOM      6  C   UNL     1       1.075   0.475  -2.808  0.00  0.00    -0.004 A 
ATOM      7  S   UNL     1       2.399  -0.606  -3.287  0.00  0.00    -0.073 S 
ATOM      8  C   UNL     1       1.687  -2.138  -2.775  0.00  0.00    +0.118 A 
ATOM      9  C   UNL     1       0.433  -1.757  -2.245  0.00  0.00    +0.076 A 
ATOM     10  C   UNL     1      -0.405  -2.800  -1.735  0.00  0.00    +0.268 A 
ATOM     11  O   UNL     1      -1.504  -2.572  -1.258  0.00  0.00    -0.266 OA
ATOM     12  N   UNL     1       0.097  -4.055  -1.814  0.00  0.00    -0.248 N 
ATOM     13  C   UNL     1       1.322  -4.331  -2.343  0.00  0.00    +0.218 A 
ATOM     14  N   UNL     1       2.123  -3.391  -2.824  0.00  0.00    -0.207 NA
ATOM     15  N   UNL     1       1.745  -5.637  -2.379  0.00  0.00    -0.253 N 
ATOM     16  C   UNL     1       1.014   1.964  -2.957  0.00  0.00    +0.046 C 
ATOM     17  H   UNL     1       1.177  -6.340  -2.027  0.00  0.00    +0.169 HD
ENDROOT
BRANCH  12  18
ATOM     18  C   UNL     1      -0.678  -5.117  -1.331  0.00  0.00    +0.053 A 
ATOM     19  C   UNL     1      -0.564  -5.514  -0.005  0.00  0.00    +0.026 A 
ATOM     20  C   UNL     1      -1.334  -6.558   0.470  0.00  0.00    +0.002 A 
ATOM     21  C   UNL     1      -2.208  -7.216  -0.376  0.00  0.00    +0.000 A 
ATOM     22  C   UNL     1      -2.319  -6.826  -1.698  0.00  0.00    +0.002 A 
ATOM     23  C   UNL     1      -1.556  -5.779  -2.178  0.00  0.00    +0.026 A 
ENDBRANCH  12  18
BRANCH  15  24
ATOM     24  N   UNL     1       2.965  -5.946  -2.910  0.00  0.00    -0.254 NA
ATOM     25  H   UNL     1       3.700  -5.432  -2.449  0.00  0.00    +0.140 HD
ATOM     26  H   UNL     1       3.137  -6.939  -2.868  0.00  0.00    +0.140 HD
ENDBRANCH  15  24
TORSDOF 2
