REMARK  Name = ZINC34923299
REMARK  12 active torsions:
REMARK  status: ('A' for Active; 'I' for Inactive)
REMARK    1  A    between atoms: C_1  and  C_2
REMARK    2  A    between atoms: C_2  and  C_3
REMARK    3  A    between atoms: C_4  and  C_33
REMARK    4  A    between atoms: C_5  and  C_25
REMARK    5  A    between atoms: C_8  and  C_13
REMARK    6  A    between atoms: C_14  and  N_16
REMARK    7  A    between atoms: N_16  and  C_17
REMARK    8  A    between atoms: C_17  and  C_18
REMARK    9  A    between atoms: C_28  and  C_32
REMARK   10  A    between atoms: C_30  and  C_31
REMARK   11  A    between atoms: C_33  and  O_35
REMARK   12  A    between atoms: O_35  and  C_36
REMARK                            x       y       z     vdW  Elec       q    Type
REMARK                         _______ _______ _______ _____ _____    ______ ____
ROOT
ATOM      1  C   UNL     1       0.720  -1.245  -1.802  0.00  0.00    +0.056 C 
ATOM      2  C   UNL     1       2.058  -1.354  -1.477  0.00  0.00    +0.083 C 
ATOM      3  C   UNL     1       3.049  -1.507  -2.610  0.00  0.00    +0.150 C 
ATOM      4  N   UNL     1       2.499  -1.528  -3.991  0.00  0.00    -0.267 N 
ATOM      5  C   UNL     1       3.211  -1.658  -5.167  0.00  0.00    +0.048 C 
ATOM      6  C   UNL     1       2.514  -1.653  -6.325  0.00  0.00    +0.072 C 
ATOM      7  S   UNL     1       0.840  -1.464  -5.748  0.00  0.00    -0.060 S 
ATOM      8  C   UNL     1       1.142  -1.405  -4.098  0.00  0.00    +0.166 C 
ATOM      9  N   UNL     1       0.332  -1.280  -3.066  0.00  0.00    -0.229 NA
ENDROOT
BRANCH   3  10
ATOM     10  C   UNL     1       3.806  -2.792  -2.393  0.00  0.00    -0.019 A 
ATOM     11  C   UNL     1       3.354  -3.966  -2.967  0.00  0.00    +0.006 A 
ATOM     12  C   UNL     1       4.049  -5.144  -2.769  0.00  0.00    +0.004 A 
ATOM     13  C   UNL     1       5.195  -5.149  -1.996  0.00  0.00    -0.050 A 
ATOM     14  C   UNL     1       5.648  -3.976  -1.423  0.00  0.00    +0.007 A 
ATOM     15  C   UNL     1       4.955  -2.796  -1.625  0.00  0.00    -0.045 A 
ATOM     16  C   UNL     1       5.451  -1.516  -1.005  0.00  0.00    +0.044 C 
ATOM     17  C   UNL     1       5.952  -6.434  -1.779  0.00  0.00    +0.044 C 
ENDBRANCH   3  10
BRANCH   5  18
ATOM     18  C   UNL     1       4.674  -1.795  -5.160  0.00  0.00    +0.091 C 
ATOM     19  C   UNL     1       5.331  -2.064  -6.304  0.00  0.00    +0.239 C 
ATOM     20  O   UNL     1       4.659  -2.095  -7.481  0.00  0.00    -0.271 OA
BRANCH  19  21
ATOM     21  N   UNL     1       6.694  -2.309  -6.279  0.00  0.00    -0.308 N 
ATOM     22  H   UNL     1       7.175  -2.287  -5.438  0.00  0.00    +0.149 HD
BRANCH  21  23
ATOM     23  C   UNL     1       7.408  -2.602  -7.524  0.00  0.00    +0.142 C 
BRANCH  23  24
ATOM     24  C   UNL     1       8.868  -2.828  -7.224  0.00  0.00    +0.005 A 
ATOM     25  C   UNL     1       9.782  -1.813  -7.434  0.00  0.00    +0.008 A 
ATOM     26  C   UNL     1      11.121  -2.020  -7.159  0.00  0.00    +0.000 A 
ATOM     27  C   UNL     1      11.547  -3.243  -6.674  0.00  0.00    +0.003 A 
ATOM     28  C   UNL     1      10.634  -4.260  -6.464  0.00  0.00    +0.038 A 
ATOM     29  C   UNL     1       9.292  -4.051  -6.734  0.00  0.00    +0.128 A 
ATOM     30  F   UNL     1       8.399  -5.042  -6.524  0.00  0.00    -0.205 F 
ENDBRANCH  23  24
ENDBRANCH  21  23
ENDBRANCH  19  21
ENDBRANCH   5  18
BRANCH   1  32
ATOM     31  C   UNL     1      -0.538   0.396  -0.433  0.00  0.00    +0.010 C 
ATOM     32  C   UNL     1      -0.306  -1.091  -0.709  0.00  0.00    +0.053 C 
ENDBRANCH   1  32
BRANCH   2  33
ATOM     33  C   UNL     1       2.484  -1.324  -0.143  0.00  0.00    +0.339 C 
ATOM     34  O   UNL     1       2.901  -0.285   0.340  0.00  0.00    -0.245 OA
BRANCH  33  35
ATOM     35  O   UNL     1       2.432  -2.446   0.608  0.00  0.00    -0.465 OA
ATOM     36  C   UNL     1       2.814  -2.326   1.980  0.00  0.00    +0.280 C 
ENDBRANCH  33  35
ENDBRANCH   2  33
TORSDOF 8
