REMARK  Name = ZINC38965114
REMARK  3 active torsions:
REMARK  status: ('A' for Active; 'I' for Inactive)
REMARK    1  A    between atoms: C_4  and  C_8
REMARK    2  A    between atoms: N_9  and  N_10
REMARK    3  A    between atoms: C_11  and  C_17
REMARK                            x       y       z     vdW  Elec       q    Type
REMARK                         _______ _______ _______ _____ _____    ______ ____
ROOT
ATOM      1  N   UNL     1       6.030  -0.696   0.043  0.00  0.00    -0.175 N 
ATOM      2  C   UNL     1       7.367  -0.088   0.156  0.00  0.00    +0.230 C 
ATOM      3  N   UNL     1       8.277  -1.245   0.216  0.00  0.00    -0.242 N 
ATOM      4  N   UNL     1       7.466  -2.384   0.140  0.00  0.00    -0.160 NA
ATOM      5  C   UNL     1       6.217  -2.069   0.049  0.00  0.00    +0.206 C 
ATOM      6  S   UNL     1       4.909  -3.243  -0.060  0.00  0.00    -0.011 SA
ATOM      7  H   UNL     1       9.244  -1.222   0.294  0.00  0.00    +0.170 HD
ENDROOT
BRANCH   2   8
ATOM      8  C   UNL     1       7.470   0.747   1.434  0.00  0.00    +0.197 C 
ATOM      9  C   UNL     1       8.822   1.424   1.524  0.00  0.00    -0.017 C 
ATOM     10  C   UNL     1       8.550   2.728   1.521  0.00  0.00    +0.065 C 
ATOM     11  C   UNL     1       9.841   3.523   1.607  0.00  0.00    +0.057 C 
ATOM     12  C   UNL     1      10.903   2.514   2.095  0.00  0.00    +0.011 C 
ATOM     13  C   UNL     1      10.306   1.173   1.614  0.00  0.00    +0.035 C 
ATOM     14  N   UNL     1       7.205   2.920   1.441  0.00  0.00    -0.158 NA
ATOM     15  N   UNL     1       6.534   1.884   1.391  0.00  0.00    -0.176 NA
ENDBRANCH   2   8
BRANCH   1  17
ATOM     16  C   UNL     1       3.710  -0.682  -0.253  0.00  0.00    +0.141 C 
ATOM     17  N   UNL     1       4.807  -0.018  -0.046  0.00  0.00    -0.184 NA
BRANCH  16  21
ATOM     18  C   UNL     1      -0.030   1.327  -0.196  0.00  0.00    +0.018 A 
ATOM     19  C   UNL     1       1.136   2.039   0.026  0.00  0.00    +0.040 A 
ATOM     20  C   UNL     1       2.357   1.393   0.009  0.00  0.00    +0.132 A 
ATOM     21  C   UNL     1       2.412   0.015  -0.233  0.00  0.00    +0.031 A 
ATOM     22  C   UNL     1       1.230  -0.695  -0.456  0.00  0.00    +0.027 A 
ATOM     23  C   UNL     1       0.018  -0.035  -0.436  0.00  0.00    +0.019 A 
ATOM     24 BR   UNL     1      -1.583  -0.996  -0.737  0.00  0.00    -0.050 Br
ATOM     25  F   UNL     1       3.494   2.088   0.225  0.00  0.00    -0.205 F 
ENDBRANCH  16  21
ENDBRANCH   1  17
TORSDOF 3
