REMARK  Name = ZINC02137605
REMARK  5 active torsions:
REMARK  status: ('A' for Active; 'I' for Inactive)
REMARK    1  A    between atoms: C_1  and  C_2
REMARK    2  A    between atoms: C_2  and  C_3
REMARK    3  A    between atoms: C_6  and  C_9
REMARK    4  A    between atoms: N_15  and  C_30
REMARK    5  A    between atoms: C_18  and  C_29
REMARK                            x       y       z     vdW  Elec       q    Type
REMARK                         _______ _______ _______ _____ _____    ______ ____
ROOT
ATOM      1  C   UNL     1      -0.412  -5.867  -1.232  0.00  0.00    +0.069 C 
ATOM      2  C   UNL     1       0.917  -5.270  -1.717  0.00  0.00    +0.123 C 
ATOM      3  N   UNL     1       1.232  -4.128  -0.857  0.00  0.00    -0.265 N 
ATOM      4  C   UNL     1       1.290  -2.825  -1.135  0.00  0.00    +0.317 C 
ATOM      5  O   UNL     1       1.346  -2.371  -2.261  0.00  0.00    -0.252 OA
ATOM      6  N   UNL     1       1.284  -2.077  -0.021  0.00  0.00    -0.191 N 
ATOM      7  C   UNL     1       1.318  -2.841   1.093  0.00  0.00    +0.257 C 
ATOM      8  O   UNL     1       1.255  -2.465   2.243  0.00  0.00    -0.272 OA
ATOM      9  C   UNL     1       1.451  -4.263   0.602  0.00  0.00    +0.153 C 
ATOM     10  C   UNL     1       0.321  -5.131   1.100  0.00  0.00    +0.054 A 
ATOM     11  C   UNL     1      -0.479  -5.842   0.273  0.00  0.00    -0.008 A 
ATOM     12  C   UNL     1      -1.422  -6.552   1.121  0.00  0.00    +0.004 A 
ATOM     13  C   UNL     1      -2.466  -7.436   0.834  0.00  0.00    +0.010 A 
ATOM     14  C   UNL     1      -3.172  -7.929   1.904  0.00  0.00    +0.001 A 
ATOM     15  C   UNL     1      -2.873  -7.574   3.209  0.00  0.00    +0.002 A 
ATOM     16  C   UNL     1      -1.844  -6.702   3.521  0.00  0.00    +0.026 A 
ATOM     17  C   UNL     1      -1.109  -6.188   2.454  0.00  0.00    +0.047 A 
ATOM     18  N   UNL     1      -0.053  -5.325   2.402  0.00  0.00    -0.356 N 
ATOM     19  H   UNL     1       0.370  -4.913   3.172  0.00  0.00    +0.166 HD
ATOM     20  C   UNL     1       2.820  -4.859   0.940  0.00  0.00    +0.048 C 
ENDROOT
BRANCH   6  21
ATOM     21  C   UNL     1       1.241  -0.678  -0.013  0.00  0.00    +0.053 A 
ATOM     22  C   UNL     1       2.409   0.053  -0.021  0.00  0.00    +0.024 A 
ATOM     23  C   UNL     1       2.378   1.444  -0.012  0.00  0.00    +0.002 A 
ATOM     24  C   UNL     1       1.196   2.121   0.002  0.00  0.00    +0.008 A 
ATOM     25  C   UNL     1      -0.017   1.413   0.010  0.00  0.00    -0.016 A 
ATOM     26  C   UNL     1       0.002  -0.004   0.002  0.00  0.00    +0.004 A 
ATOM     27  C   UNL     1      -1.211  -0.710   0.010  0.00  0.00    +0.010 A 
ATOM     28  C   UNL     1      -2.389  -0.026   0.025  0.00  0.00    +0.001 A 
ATOM     29  C   UNL     1      -2.409   1.367   0.033  0.00  0.00    +0.001 A 
ATOM     30  C   UNL     1      -1.252   2.084   0.031  0.00  0.00    +0.008 A 
ENDBRANCH   6  21
BRANCH   1  34
ATOM     31  C   UNL     1      -0.718  -9.904  -2.595  0.00  0.00    -0.048 A 
ATOM     32  C   UNL     1      -1.657  -8.969  -2.988  0.00  0.00    +0.004 A 
ATOM     33  C   UNL     1      -1.558  -7.662  -2.547  0.00  0.00    +0.004 A 
ATOM     34  C   UNL     1      -0.520  -7.291  -1.713  0.00  0.00    -0.038 A 
ATOM     35  C   UNL     1       0.421  -8.225  -1.323  0.00  0.00    +0.004 A 
ATOM     36  C   UNL     1       0.320  -9.533  -1.760  0.00  0.00    +0.004 A 
BRANCH  31  38
ATOM     37  C   UNL     1      -0.055 -11.484  -4.388  0.00  0.00    +0.009 C 
ATOM     38  C   UNL     1      -0.826 -11.328  -3.075  0.00  0.00    +0.032 C 
ENDBRANCH  31  38
ENDBRANCH   1  34
TORSDOF 3
