REMARK  Name = ZINC23648577
REMARK  8 active torsions:
REMARK  status: ('A' for Active; 'I' for Inactive)
REMARK    1  A    between atoms: C_3  and  O_27
REMARK    2  A    between atoms: C_6  and  C_7
REMARK    3  A    between atoms: C_10  and  S_13
REMARK    4  A    between atoms: N_11  and  N_12
REMARK    5  A    between atoms: S_13  and  C_14
REMARK    6  A    between atoms: C_14  and  C_15
REMARK    7  A    between atoms: N_17  and  C_18
REMARK    8  A    between atoms: O_27  and  C_28
REMARK                            x       y       z     vdW  Elec       q    Type
REMARK                         _______ _______ _______ _____ _____    ______ ____
ROOT
ATOM      1  C   UNL     1      -1.227  -2.002   0.103  0.00  0.00    +0.182 A 
ATOM      2  N   UNL     1       0.083  -2.089   0.099  0.00  0.00    -0.127 NA
ATOM      3  N   UNL     1       0.601  -0.913   0.076  0.00  0.00    -0.121 NA
ATOM      4  C   UNL     1      -0.346  -0.003   0.073  0.00  0.00    +0.209 A 
ATOM      5  N   UNL     1      -1.542  -0.663   0.087  0.00  0.00    -0.224 N 
ENDROOT
BRANCH   1  11
ATOM      6  C   UNL     1      -1.763  -4.396   0.536  0.00  0.00    +0.015 A 
ATOM      7  C   UNL     1      -2.658  -5.444   0.557  0.00  0.00    +0.046 A 
ATOM      8  C   UNL     1      -3.972  -5.245   0.156  0.00  0.00    +0.127 A 
ATOM      9  C   UNL     1      -4.392  -3.989  -0.261  0.00  0.00    +0.046 A 
ATOM     10  C   UNL     1      -3.505  -2.934  -0.280  0.00  0.00    +0.015 A 
ATOM     11  C   UNL     1      -2.182  -3.130   0.122  0.00  0.00    +0.021 A 
BRANCH   8  12
ATOM     12  O   UNL     1      -4.850  -6.282   0.172  0.00  0.00    -0.434 OA
BRANCH  12  13
ATOM     13  C   UNL     1      -4.352  -7.546   0.613  0.00  0.00    +0.541 C 
ATOM     14  F   UNL     1      -3.306  -7.953  -0.223  0.00  0.00    -0.166 F 
ATOM     15  F   UNL     1      -3.882  -7.431   1.926  0.00  0.00    -0.166 F 
ENDBRANCH  12  13
ENDBRANCH   8  12
ENDBRANCH   1  11
BRANCH   5  16
ATOM     16  N   UNL     1      -2.791  -0.110   0.085  0.00  0.00    -0.295 N 
ATOM     17  H   UNL     1      -2.908   0.984   0.071  0.00  0.00    +0.163 HD
ATOM     18  H   UNL     1      -3.680  -0.758   0.098  0.00  0.00    +0.163 HD
ENDBRANCH   5  16
BRANCH   4  19
ATOM     19  S   UNL     1      -0.117   1.744   0.049  0.00  0.00    -0.075 S 
BRANCH  19  20
ATOM     20  C   UNL     1       1.691   1.824   0.041  0.00  0.00    +0.173 C 
BRANCH  20  21
ATOM     21  C   UNL     1       2.130   3.265   0.019  0.00  0.00    +0.228 C 
ATOM     22  O   UNL     1       1.302   4.151   0.010  0.00  0.00    -0.275 OA
ATOM     23  N   UNL     1       3.443   3.570   0.010  0.00  0.00    -0.284 N 
ATOM     24  H   UNL     1       4.192   2.769  -0.076  0.00  0.00    +0.155 HD
BRANCH  23  25
ATOM     25  C   UNL     1       3.853   4.905   0.110  0.00  0.00    +0.053 A 
ATOM     26  C   UNL     1       3.026   5.842   0.715  0.00  0.00    +0.046 A 
ATOM     27  C   UNL     1       3.435   7.159   0.817  0.00  0.00    +0.061 A 
ATOM     28  C   UNL     1       4.664   7.545   0.307  0.00  0.00    +0.061 A 
ATOM     29  C   UNL     1       5.487   6.614  -0.301  0.00  0.00    +0.043 A 
ATOM     30  C   UNL     1       5.084   5.295  -0.401  0.00  0.00    +0.064 A 
ATOM     31 CL   UNL     1       6.118   4.127  -1.164  0.00  0.00    -0.082 Cl
ATOM     32 CL   UNL     1       5.172   9.200   0.430  0.00  0.00    -0.082 Cl
ATOM     33 CL   UNL     1       2.405   8.330   1.579  0.00  0.00    -0.082 Cl
ENDBRANCH  23  25
ENDBRANCH  20  21
ENDBRANCH  19  20
ENDBRANCH   4  19
TORSDOF 8
