REMARK  Name = ZINC21632468
REMARK  11 active torsions:
REMARK  status: ('A' for Active; 'I' for Inactive)
REMARK    1  A    between atoms: C_1  and  C_2
REMARK    2  A    between atoms: C_2  and  O_3
REMARK    3  A    between atoms: O_3  and  C_4
REMARK    4  A    between atoms: C_7  and  N_18
REMARK    5  A    between atoms: C_9  and  S_10
REMARK    6  A    between atoms: S_10  and  N_13
REMARK    7  A    between atoms: N_18  and  S_19
REMARK    8  A    between atoms: S_19  and  C_22
REMARK    9  A    between atoms: C_24  and  N_30
REMARK   10  A    between atoms: C_27  and  O_28
REMARK   11  A    between atoms: O_28  and  C_29
REMARK                            x       y       z     vdW  Elec       q    Type
REMARK                         _______ _______ _______ _____ _____    ______ ____
ROOT
ATOM      1  C   UNL     1      -7.332   5.242   2.243  0.00  0.00    +0.147 A 
ATOM      2  C   UNL     1      -6.035   4.969   1.833  0.00  0.00    +0.049 A 
ATOM      3  C   UNL     1      -5.658   3.671   1.552  0.00  0.00    +0.030 A 
ATOM      4  C   UNL     1      -6.580   2.639   1.670  0.00  0.00    +0.076 A 
ATOM      5  C   UNL     1      -7.878   2.913   2.081  0.00  0.00    +0.059 A 
ATOM      6  C   UNL     1      -8.252   4.212   2.366  0.00  0.00    +0.149 A 
ENDROOT
BRANCH   6   7
ATOM      7  S   UNL     1      -9.899   4.559   2.888  0.00  0.00    +0.064 S 
ATOM      8  O   UNL     1     -10.356   5.644   2.092  0.00  0.00    -0.153 OA
ATOM      9  O   UNL     1     -10.580   3.313   2.940  0.00  0.00    -0.153 OA
BRANCH   7  10
ATOM     10  N   UNL     1      -9.812   5.117   4.444  0.00  0.00    -0.176 NA
ATOM     11  C   UNL     1      -9.881   4.289   5.657  0.00  0.00    +0.109 C 
ATOM     12  C   UNL     1      -9.783   5.240   6.868  0.00  0.00    +0.018 C 
ATOM     13  C   UNL     1     -10.242   6.600   6.277  0.00  0.00    +0.018 C 
ATOM     14  C   UNL     1      -9.660   6.528   4.843  0.00  0.00    +0.109 C 
ENDBRANCH   7  10
ENDBRANCH   6   7
BRANCH   1  15
ATOM     15  O   UNL     1      -7.701   6.520   2.525  0.00  0.00    -0.490 OA
BRANCH  15  17
ATOM     16  C   UNL     1      -7.299   8.894   2.735  0.00  0.00    +0.048 C 
ATOM     17  C   UNL     1      -6.703   7.531   2.376  0.00  0.00    +0.226 C 
ENDBRANCH  15  17
ENDBRANCH   1  15
BRANCH   4  18
ATOM     18  N   UNL     1      -6.200   1.324   1.380  0.00  0.00    -0.098 NA
BRANCH  18  19
ATOM     19  S   UNL     1      -5.322   0.998   0.014  0.00  0.00    +0.095 S 
ATOM     20  O   UNL     1      -5.167  -0.414  -0.041  0.00  0.00    -0.148 OA
ATOM     21  O   UNL     1      -4.213   1.886   0.023  0.00  0.00    -0.148 OA
BRANCH  19  22
ATOM     22  C   UNL     1      -6.318   1.450  -1.367  0.00  0.00    +0.154 A 
ATOM     23  C   UNL     1      -5.935   2.497  -2.183  0.00  0.00    +0.065 A 
ATOM     24  C   UNL     1      -6.716   2.852  -3.266  0.00  0.00    +0.128 A 
ATOM     25  C   UNL     1      -7.885   2.164  -3.534  0.00  0.00    +0.036 A 
ATOM     26  C   UNL     1      -8.270   1.112  -2.725  0.00  0.00    +0.050 A 
ATOM     27  C   UNL     1      -7.487   0.754  -1.636  0.00  0.00    +0.147 A 
BRANCH  24  28
ATOM     28  N   UNL     1      -6.303   3.974  -4.139  0.00  0.00    +0.056 N 
ATOM     29  O   UNL     1      -5.276   4.584  -3.901  0.00  0.00    -0.126 OA
ATOM     30  O   UNL     1      -6.988   4.284  -5.097  0.00  0.00    -0.126 OA
ENDBRANCH  24  28
BRANCH  27  31
ATOM     31  O   UNL     1      -7.867  -0.276  -0.835  0.00  0.00    -0.493 OA
ATOM     32  C   UNL     1      -9.021  -1.017  -1.234  0.00  0.00    +0.277 C 
ENDBRANCH  27  31
ENDBRANCH  19  22
ENDBRANCH  18  19
ENDBRANCH   4  18
TORSDOF 9
