REMARK  Name = ZINC36304585
REMARK  16 active torsions:
REMARK  status: ('A' for Active; 'I' for Inactive)
REMARK    1  A    between atoms: C_1  and  C_2
REMARK    2  A    between atoms: C_2  and  C_3
REMARK    3  A    between atoms: C_3  and  C_4
REMARK    4  A    between atoms: C_4  and  C_6
REMARK    5  A    between atoms: C_4  and  O_37
REMARK    6  A    between atoms: C_6  and  N_7
REMARK    7  A    between atoms: N_7  and  C_8
REMARK    8  A    between atoms: N_7  and  C_30
REMARK    9  A    between atoms: C_8  and  C_9
REMARK   10  A    between atoms: C_10  and  C_29
REMARK   11  A    between atoms: N_12  and  C_23
REMARK   12  A    between atoms: C_13  and  O_14
REMARK   13  A    between atoms: O_14  and  C_15
REMARK   14  A    between atoms: C_18  and  O_21
REMARK   15  A    between atoms: O_21  and  C_22
REMARK   16  A    between atoms: C_30  and  C_31
REMARK                            x       y       z     vdW  Elec       q    Type
REMARK                         _______ _______ _______ _____ _____    ______ ____
ROOT
ATOM      1  C   UNL     1       1.584  -6.474  -3.685  0.00  0.00    +0.021 A 
ATOM      2  C   UNL     1       2.273  -7.458  -2.970  0.00  0.00    +0.065 A 
ATOM      3  N   UNL     1       1.494  -8.502  -2.846  0.00  0.00    -0.168 NA
ATOM      4  N   UNL     1       0.276  -8.222  -3.480  0.00  0.00    -0.200 N 
ATOM      5  C   UNL     1       0.351  -6.962  -3.986  0.00  0.00    +0.225 A 
ATOM      6  C   UNL     1       3.675  -7.337  -2.432  0.00  0.00    +0.068 C 
ENDROOT
BRANCH   4   7
ATOM      7  C   UNL     1      -0.825  -9.085  -3.571  0.00  0.00    +0.069 A 
ATOM      8  C   UNL     1      -2.114  -8.580  -3.472  0.00  0.00    +0.028 A 
ATOM      9  C   UNL     1      -3.197  -9.432  -3.563  0.00  0.00    +0.002 A 
ATOM     10  C   UNL     1      -2.998 -10.787  -3.752  0.00  0.00    +0.000 A 
ATOM     11  C   UNL     1      -1.715 -11.293  -3.851  0.00  0.00    +0.002 A 
ATOM     12  C   UNL     1      -0.628 -10.445  -3.767  0.00  0.00    +0.028 A 
ENDBRANCH   4   7
BRANCH   1  13
ATOM     13  C   UNL     1       2.112  -5.111  -4.051  0.00  0.00    -0.036 C 
BRANCH  13  14
ATOM     14  N   UNL     1       1.791  -4.157  -2.981  0.00  0.00    +0.386 N 
ATOM     15  H   UNL     1       0.792  -4.139  -2.835  0.00  0.00    -0.081 HD
BRANCH  14  16
ATOM     16  C   UNL     1       2.254  -2.817  -3.363  0.00  0.00    -0.047 C 
BRANCH  16  17
ATOM     17  C   UNL     1       1.425  -2.308  -4.544  0.00  0.00    +0.098 C 
BRANCH  17  18
ATOM     18  O   UNL     1       1.715  -3.091  -5.703  0.00  0.00    -0.394 OA
ATOM     19  H   UNL     1       2.643  -3.065  -5.973  0.00  0.00    +0.210 HD
ENDBRANCH  17  18
BRANCH  17  20
ATOM     20  C   UNL     1       1.773  -0.843  -4.818  0.00  0.00    +0.029 C 
BRANCH  20  22
ATOM     21  C   UNL     1       1.205   1.166  -6.189  0.00  0.00    +0.004 C 
ATOM     22  C   UNL     1       0.857  -0.298  -5.915  0.00  0.00    -0.001 C 
ENDBRANCH  20  22
ENDBRANCH  17  20
ENDBRANCH  16  17
ENDBRANCH  14  16
BRANCH  14  23
ATOM     23  C   UNL     1       2.459  -4.571  -1.739  0.00  0.00    -0.046 C 
BRANCH  23  24
ATOM     24  C   UNL     1       2.014  -3.660  -0.593  0.00  0.00    +0.102 C 
ATOM     25  C   UNL     1       2.768  -4.040   0.700  0.00  0.00    +0.032 C 
ATOM     26  C   UNL     1       1.664  -3.892   1.781  0.00  0.00    +0.030 C 
ATOM     27  C   UNL     1       0.411  -4.340   0.986  0.00  0.00    +0.160 C 
ATOM     28  O   UNL     1       0.614  -3.838  -0.347  0.00  0.00    -0.378 OA
ENDBRANCH  23  24
ENDBRANCH  14  23
ENDBRANCH  13  14
ENDBRANCH   1  13
BRANCH   5  29
ATOM     29  O   UNL     1      -0.625  -6.312  -4.670  0.00  0.00    -0.438 OA
BRANCH  29  30
ATOM     30  C   UNL     1      -0.723  -6.535  -6.007  0.00  0.00    +0.131 A 
ATOM     31  C   UNL     1       0.085  -7.486  -6.614  0.00  0.00    +0.050 A 
ATOM     32  C   UNL     1      -0.015  -7.712  -7.973  0.00  0.00    +0.049 A 
ATOM     33  C   UNL     1      -0.924  -6.988  -8.731  0.00  0.00    +0.120 A 
ATOM     34  C   UNL     1      -1.732  -6.037  -8.125  0.00  0.00    +0.049 A 
ATOM     35  C   UNL     1      -1.636  -5.816  -6.765  0.00  0.00    +0.050 A 
BRANCH  33  36
ATOM     36  O   UNL     1      -1.022  -7.210 -10.069  0.00  0.00    -0.495 OA
ATOM     37  C   UNL     1      -1.979  -6.429 -10.788  0.00  0.00    +0.277 C 
ENDBRANCH  33  36
ENDBRANCH  29  30
ENDBRANCH   5  29
TORSDOF 13
