REMARK  Name = ZINC17076400
REMARK  5 active torsions:
REMARK  status: ('A' for Active; 'I' for Inactive)
REMARK    1  A    between atoms: C_1  and  C_2
REMARK    2  A    between atoms: C_3  and  C_22
REMARK    3  A    between atoms: N_9  and  C_13
REMARK    4  A    between atoms: C_10  and  S_12
REMARK    5  A    between atoms: C_16  and  O_20
REMARK                            x       y       z     vdW  Elec       q    Type
REMARK                         _______ _______ _______ _____ _____    ______ ____
ROOT
ATOM      1  C   UNL     1       6.308   3.417  -1.596  0.00  0.00    +0.045 C 
ATOM      2  C   UNL     1       5.702   2.171  -1.002  0.00  0.00    -0.026 A 
ATOM      3  C   UNL     1       6.421   1.043  -0.915  0.00  0.00    -0.008 A 
ATOM      4  S   UNL     1       5.290  -0.112  -0.163  0.00  0.00    -0.073 S 
ATOM      5  C   UNL     1       3.883   0.955   0.014  0.00  0.00    +0.117 A 
ATOM      6  C   UNL     1       4.332   2.179  -0.518  0.00  0.00    +0.076 A 
ATOM      7  C   UNL     1       3.383   3.249  -0.505  0.00  0.00    +0.268 A 
ATOM      8  O   UNL     1       3.682   4.346  -0.946  0.00  0.00    -0.267 OA
ATOM      9  N   UNL     1       2.154   3.029  -0.002  0.00  0.00    -0.256 N 
ATOM     10  C   UNL     1       1.800   1.806   0.495  0.00  0.00    +0.174 A 
ATOM     11  N   UNL     1       2.658   0.805   0.501  0.00  0.00    -0.216 NA
ATOM     12  C   UNL     1       7.844   0.807  -1.350  0.00  0.00    +0.052 C 
ENDROOT
BRANCH   9  13
ATOM     13  C   UNL     1       1.219   4.074   0.012  0.00  0.00    +0.055 A 
ATOM     14  C   UNL     1       0.371   4.262  -1.071  0.00  0.00    +0.050 A 
ATOM     15  C   UNL     1      -0.553   5.289  -1.056  0.00  0.00    +0.086 A 
ATOM     16  C   UNL     1      -0.627   6.139   0.039  0.00  0.00    +0.153 A 
ATOM     17  C   UNL     1       0.224   5.955   1.120  0.00  0.00    +0.086 A 
ATOM     18  C   UNL     1       1.145   4.925   1.107  0.00  0.00    +0.050 A 
ATOM     19 CL   UNL     1       0.131   7.018   2.489  0.00  0.00    -0.080 Cl
ATOM     20 CL   UNL     1      -1.617   5.520  -2.408  0.00  0.00    -0.080 Cl
BRANCH  16  21
ATOM     21  O   UNL     1      -1.533   7.154   0.052  0.00  0.00    -0.504 OA
ATOM     22  H   UNL     1      -1.201   7.982  -0.320  0.00  0.00    +0.292 HD
ENDBRANCH  16  21
ENDBRANCH   9  13
BRANCH  10  23
ATOM     23  S   UNL     1       0.180   1.567   1.144  0.00  0.00    -0.105 S 
ATOM     24  H   UNL     1       0.266   0.212   1.524  0.00  0.00    +0.110 HD
ENDBRANCH  10  23
TORSDOF 3
