REMARK  Name = ZINC01878000
REMARK  13 active torsions:
REMARK  status: ('A' for Active; 'I' for Inactive)
REMARK    1  A    between atoms: C_1  and  C_2
REMARK    2  A    between atoms: C_2  and  C_3
REMARK    3  A    between atoms: C_3  and  C_4
REMARK    4  A    between atoms: C_4  and  O_5
REMARK    5  A    between atoms: O_5  and  C_6
REMARK    6  A    between atoms: C_6  and  C_8
REMARK    7  A    between atoms: C_12  and  N_13
REMARK    8  A    between atoms: C_14  and  C_16
REMARK    9  A    between atoms: C_16  and  C_33
REMARK   10  A    between atoms: C_17  and  C_18
REMARK   11  A    between atoms: C_21  and  C_23
REMARK   12  A    between atoms: C_26  and  S_29
REMARK   13  A    between atoms: S_29  and  C_30
REMARK                            x       y       z     vdW  Elec       q    Type
REMARK                         _______ _______ _______ _____ _____    ______ ____
ROOT
ATOM      1  N   UNL     1       0.135  -4.478  -5.192  0.00  0.00    -0.275 N 
ATOM      2  C   UNL     1      -0.380  -4.806  -6.394  0.00  0.00    +0.259 C 
ATOM      3  O   UNL     1       0.344  -5.250  -7.266  0.00  0.00    -0.269 OA
ATOM      4  H   UNL     1      -0.443  -4.123  -4.498  0.00  0.00    +0.156 HD
ENDROOT
BRANCH   1   9
ATOM      5  C   UNL     1       2.186  -4.367  -3.783  0.00  0.00    +0.091 A 
ATOM      6  C   UNL     1       3.612  -4.643  -3.783  0.00  0.00    -0.021 A 
ATOM      7  C   UNL     1       4.079  -5.141  -4.947  0.00  0.00    -0.004 A 
ATOM      8  S   UNL     1       2.659  -5.236  -5.997  0.00  0.00    -0.077 S 
ATOM      9  C   UNL     1       1.487  -4.647  -4.949  0.00  0.00    +0.087 A 
ATOM     10  C   UNL     1       5.493  -5.522  -5.260  0.00  0.00    +0.043 C 
ATOM     11  C   UNL     1       6.406  -4.910  -4.187  0.00  0.00    +0.005 C 
ATOM     12  C   UNL     1       5.819  -5.213  -2.805  0.00  0.00    +0.005 C 
ATOM     13  C   UNL     1       4.536  -4.406  -2.597  0.00  0.00    +0.037 C 
BRANCH   5  14
ATOM     14  C   UNL     1       1.513  -3.823  -2.602  0.00  0.00    +0.342 C 
ATOM     15  O   UNL     1       1.049  -4.575  -1.766  0.00  0.00    -0.245 OA
BRANCH  14  16
ATOM     16  O   UNL     1       1.408  -2.488  -2.441  0.00  0.00    -0.461 OA
BRANCH  16  17
ATOM     17  C   UNL     1       0.739  -2.027  -1.265  0.00  0.00    +0.232 C 
BRANCH  17  18
ATOM     18  C   UNL     1       0.718  -0.497  -1.257  0.00  0.00    +0.041 C 
BRANCH  18  20
ATOM     19  C   UNL     1      -0.019   1.526   0.010  0.00  0.00    +0.004 C 
ATOM     20  C   UNL     1       0.002  -0.004   0.002  0.00  0.00    -0.000 C 
ENDBRANCH  18  20
ENDBRANCH  17  18
ENDBRANCH  16  17
ENDBRANCH  14  16
ENDBRANCH   5  14
ENDBRANCH   1   9
BRANCH   2  21
ATOM     21  C   UNL     1      -1.812  -4.626  -6.652  0.00  0.00    +0.117 C 
ATOM     22  C   UNL     1      -2.343  -4.964  -7.891  0.00  0.00    +0.070 C 
BRANCH  22  23
ATOM     23  C   UNL     1      -3.713  -4.792  -8.138  0.00  0.00    +0.130 A 
ATOM     24  C   UNL     1      -4.371  -5.093  -9.323  0.00  0.00    +0.050 A 
ATOM     25  C   UNL     1      -5.712  -4.769  -9.133  0.00  0.00    +0.050 A 
ATOM     26  C   UNL     1      -5.832  -4.284  -7.846  0.00  0.00    +0.136 A 
ATOM     27  O   UNL     1      -4.621  -4.311  -7.262  0.00  0.00    -0.455 OA
BRANCH  26  28
ATOM     28  C   UNL     1      -7.080  -3.821  -7.215  0.00  0.00    +0.017 A 
ATOM     29  C   UNL     1      -8.282  -3.855  -7.930  0.00  0.00    +0.012 A 
ATOM     30  C   UNL     1      -9.446  -3.421  -7.338  0.00  0.00    +0.015 A 
ATOM     31  C   UNL     1      -9.429  -2.948  -6.028  0.00  0.00    +0.013 A 
ATOM     32  C   UNL     1      -8.234  -2.912  -5.313  0.00  0.00    +0.015 A 
ATOM     33  C   UNL     1      -7.067  -3.350  -5.897  0.00  0.00    +0.012 A 
BRANCH  31  34
ATOM     34  S   UNL     1     -10.921  -2.393  -5.274  0.00  0.00    -0.056 S 
BRANCH  34  35
ATOM     35  C   UNL     1     -10.409  -1.884  -3.610  0.00  0.00    +0.404 C 
ATOM     36  F   UNL     1      -9.854  -2.978  -2.938  0.00  0.00    -0.197 F 
ATOM     37  F   UNL     1      -9.457  -0.864  -3.707  0.00  0.00    -0.197 F 
ENDBRANCH  34  35
ENDBRANCH  31  34
ENDBRANCH  26  28
ENDBRANCH  22  23
BRANCH  21  38
ATOM     38  C   UNL     1      -2.664  -4.103  -5.627  0.00  0.00    +0.104 C 
ATOM     39  N   UNL     1      -3.340  -3.687  -4.814  0.00  0.00    -0.191 NA
ENDBRANCH  21  38
ENDBRANCH   2  21
TORSDOF 12
