REMARK  Name = ZINC63362292
REMARK  7 active torsions:
REMARK  status: ('A' for Active; 'I' for Inactive)
REMARK    1  A    between atoms: C_1  and  C_2
REMARK    2  A    between atoms: C_5  and  N_8
REMARK    3  A    between atoms: C_9  and  C_11
REMARK    4  A    between atoms: C_14  and  N_17
REMARK    5  A    between atoms: C_20  and  C_38
REMARK    6  A    between atoms: C_26  and  O_31
REMARK    7  A    between atoms: O_31  and  C_32
REMARK                            x       y       z     vdW  Elec       q    Type
REMARK                         _______ _______ _______ _____ _____    ______ ____
ROOT
ATOM      1  N   UNL     1      -3.879  -0.960   8.250  0.00  0.00    -0.192 N 
ATOM      2  C   UNL     1      -3.885  -1.620   9.426  0.00  0.00    +0.253 C 
ATOM      3  O   UNL     1      -3.367  -2.689   9.667  0.00  0.00    -0.272 OA
ATOM      4  C   UNL     1      -4.671  -0.750  10.382  0.00  0.00    +0.137 C 
ATOM      5  C   UNL     1      -5.919  -1.496  10.869  0.00  0.00    +0.139 C 
ATOM      6  C   UNL     1      -6.898  -0.431  11.349  0.00  0.00    -0.034 C 
ATOM      7  C   UNL     1      -7.171  -0.719  12.617  0.00  0.00    +0.003 A 
ATOM      8  C   UNL     1      -8.085  -0.098  13.588  0.00  0.00    +0.055 A 
ATOM      9  C   UNL     1      -8.115  -0.645  14.834  0.00  0.00    +0.121 A 
ATOM     10  C   UNL     1      -7.339  -1.746  15.226  0.00  0.00    +0.047 A 
ATOM     11  C   UNL     1      -6.471  -2.397  14.411  0.00  0.00    +0.029 A 
ATOM     12  C   UNL     1      -6.352  -1.898  13.034  0.00  0.00    +0.043 A 
ATOM     13  N   UNL     1      -5.620  -2.330  12.036  0.00  0.00    -0.375 N 
ATOM     14  C   UNL     1      -7.350   0.725  10.489  0.00  0.00    +0.052 C 
ATOM     15  C   UNL     1      -6.082   1.404   9.935  0.00  0.00    +0.115 C 
ATOM     16  N   UNL     1      -5.143   0.358   9.520  0.00  0.00    -0.268 N 
ATOM     17  C   UNL     1      -4.572   0.184   8.321  0.00  0.00    +0.316 C 
ATOM     18  O   UNL     1      -4.675   0.973   7.402  0.00  0.00    -0.252 OA
ATOM     19  C   UNL     1      -3.807  -0.248  11.540  0.00  0.00    +0.044 C 
ATOM     20  H   UNL     1      -4.990  -3.067  12.060  0.00  0.00    +0.160 HD
ENDROOT
BRANCH   1  24
ATOM     21  C   UNL     1      -1.926  -2.303   4.820  0.00  0.00    +0.037 A 
ATOM     22  C   UNL     1      -2.732  -1.163   4.766  0.00  0.00    +0.015 A 
ATOM     23  C   UNL     1      -3.376  -0.722   5.901  0.00  0.00    +0.025 A 
ATOM     24  C   UNL     1      -3.224  -1.410   7.100  0.00  0.00    +0.045 A 
ATOM     25  C   UNL     1      -2.422  -2.545   7.158  0.00  0.00    +0.025 A 
ATOM     26  C   UNL     1      -1.780  -2.995   6.025  0.00  0.00    +0.015 A 
BRANCH  21  28
ATOM     27  N   UNL     1      -1.377  -2.111   2.444  0.00  0.00    -0.308 N 
ATOM     28  C   UNL     1      -1.235  -2.779   3.606  0.00  0.00    +0.244 C 
ATOM     29  O   UNL     1      -0.538  -3.775   3.653  0.00  0.00    -0.270 OA
ATOM     30  H   UNL     1      -1.933  -1.317   2.406  0.00  0.00    +0.149 HD
BRANCH  27  35
ATOM     31  C   UNL     1      -0.114   1.511  -0.038  0.00  0.00    +0.007 C 
ATOM     32  C   UNL     1      -0.068  -0.018  -0.032  0.00  0.00    -0.014 C 
ATOM     33  C   UNL     1      -1.494  -0.572  -0.007  0.00  0.00    +0.005 C 
ATOM     34  C   UNL     1      -1.448  -2.101  -0.001  0.00  0.00    +0.022 C 
ATOM     35  C   UNL     1      -0.691  -2.583   1.238  0.00  0.00    +0.073 C 
ATOM     36  C   UNL     1       0.735  -2.030   1.213  0.00  0.00    +0.022 C 
ATOM     37  C   UNL     1       0.689  -0.501   1.207  0.00  0.00    +0.005 C 
ENDBRANCH  27  35
ENDBRANCH  21  28
ENDBRANCH   1  24
BRANCH   9  38
ATOM     38  O   UNL     1      -8.949  -0.092  15.754  0.00  0.00    -0.495 OA
ATOM     39  C   UNL     1      -8.964  -0.684  17.055  0.00  0.00    +0.277 C 
ENDBRANCH   9  38
TORSDOF 4
