REMARK  Name = ZINC40849865
REMARK  10 active torsions:
REMARK  status: ('A' for Active; 'I' for Inactive)
REMARK    1  A    between atoms: C_1  and  C_2
REMARK    2  A    between atoms: C_2  and  C_3
REMARK    3  A    between atoms: C_3  and  C_4
REMARK    4  A    between atoms: C_6  and  S_17
REMARK    5  A    between atoms: C_11  and  C_16
REMARK    6  A    between atoms: C_13  and  C_15
REMARK    7  A    between atoms: S_17  and  C_18
REMARK    8  A    between atoms: C_18  and  C_19
REMARK    9  A    between atoms: C_19  and  C_20
REMARK   10  A    between atoms: N_22  and  C_23
REMARK                            x       y       z     vdW  Elec       q    Type
REMARK                         _______ _______ _______ _____ _____    ______ ____
ROOT
ATOM      1  C   UNL     1       0.731  -2.004  -1.262  0.00  0.00    +0.048 A 
ATOM      2  C   UNL     1       0.227  -2.703  -2.342  0.00  0.00    +0.058 A 
ATOM      3  C   UNL     1       0.271  -4.099  -2.309  0.00  0.00    +0.103 A 
ATOM      4  N   UNL     1       0.794  -4.703  -1.246  0.00  0.00    -0.204 NA
ATOM      5  C   UNL     1       1.266  -3.996  -0.233  0.00  0.00    +0.253 A 
ATOM      6  N   UNL     1       1.242  -2.672  -0.239  0.00  0.00    -0.216 NA
ATOM      7  N   UNL     1       1.807  -4.661   0.867  0.00  0.00    -0.202 N 
ATOM      8  C   UNL     1       1.912  -6.008   1.017  0.00  0.00    +0.045 A 
ATOM      9  C   UNL     1       2.490  -6.242   2.217  0.00  0.00    +0.048 A 
ATOM     10  C   UNL     1       2.747  -5.006   2.821  0.00  0.00    +0.061 A 
ATOM     11  N   UNL     1       2.345  -4.060   2.013  0.00  0.00    -0.169 NA
ATOM     12  C   UNL     1       3.385  -4.800   4.171  0.00  0.00    +0.067 C 
ATOM     13  C   UNL     1       1.464  -7.051   0.025  0.00  0.00    +0.066 C 
ENDROOT
BRANCH   1  14
ATOM     14  C   UNL     1       0.705  -0.497  -1.252  0.00  0.00    +0.055 C 
BRANCH  14  16
ATOM     15  C   UNL     1      -0.031   1.521   0.023  0.00  0.00    +0.004 C 
ATOM     16  C   UNL     1      -0.005  -0.008   0.012  0.00  0.00    +0.003 C 
ENDBRANCH  14  16
ENDBRANCH   1  14
BRANCH   3  17
ATOM     17  S   UNL     1      -0.356  -5.045  -3.657  0.00  0.00    -0.105 S 
BRANCH  17  18
ATOM     18  C   UNL     1      -0.079  -6.766  -3.152  0.00  0.00    +0.085 C 
BRANCH  18  19
ATOM     19  C   UNL     1      -0.586  -7.706  -4.247  0.00  0.00    +0.107 C 
BRANCH  19  20
ATOM     20  C   UNL     1      -0.355  -9.136  -3.828  0.00  0.00    +0.218 C 
ATOM     21  O   UNL     1       0.164  -9.378  -2.759  0.00  0.00    -0.275 OA
ATOM     22  N   UNL     1      -0.725 -10.144  -4.641  0.00  0.00    -0.285 N 
ATOM     23  H   UNL     1      -1.200  -9.954  -5.465  0.00  0.00    +0.155 HD
BRANCH  22  24
ATOM     24  C   UNL     1      -0.424 -11.468  -4.297  0.00  0.00    +0.036 A 
ATOM     25  C   UNL     1      -0.101 -12.387  -5.286  0.00  0.00    +0.026 A 
ATOM     26  C   UNL     1       0.196 -13.693  -4.945  0.00  0.00    +0.043 A 
ATOM     27  C   UNL     1       0.172 -14.086  -3.618  0.00  0.00    +0.159 A 
ATOM     28  C   UNL     1      -0.151 -13.170  -2.628  0.00  0.00    +0.160 A 
ATOM     29  C   UNL     1      -0.443 -11.861  -2.966  0.00  0.00    +0.064 A 
ATOM     30  F   UNL     1      -0.174 -13.555  -1.333  0.00  0.00    -0.202 F 
ATOM     31  F   UNL     1       0.462 -15.363  -3.287  0.00  0.00    -0.202 F 
ENDBRANCH  22  24
ENDBRANCH  19  20
ENDBRANCH  18  19
ENDBRANCH  17  18
ENDBRANCH   3  17
TORSDOF 7
