REMARK  Name = ZINC39303597
REMARK  8 active torsions:
REMARK  status: ('A' for Active; 'I' for Inactive)
REMARK    1  A    between atoms: C_1  and  C_2
REMARK    2  A    between atoms: C_5  and  C_8
REMARK    3  A    between atoms: C_16  and  C_18
REMARK    4  A    between atoms: C_18  and  C_20
REMARK    5  A    between atoms: C_18  and  N_25
REMARK    6  A    between atoms: N_25  and  C_26
REMARK    7  A    between atoms: C_26  and  C_27
REMARK    8  A    between atoms: C_26  and  C_33
REMARK                            x       y       z     vdW  Elec       q    Type
REMARK                         _______ _______ _______ _____ _____    ______ ____
ROOT
ATOM      1  C   UNL     1      -0.326  -8.438   4.452  0.00  0.00    +0.055 C 
ENDROOT
BRANCH   1  10
ATOM      2  C   UNL     1      -1.794  -5.204  -0.565  0.00  0.00    +0.247 C 
ATOM      3  O   UNL     1      -2.136  -6.013  -1.405  0.00  0.00    -0.270 OA
ATOM      4  N   UNL     1      -1.236  -5.625   0.587  0.00  0.00    -0.295 N 
ATOM      5  C   UNL     1      -0.944  -4.673   1.668  0.00  0.00    +0.127 C 
ATOM      6  C   UNL     1      -1.632  -5.159   2.949  0.00  0.00    +0.126 C 
ATOM      7  N   UNL     1      -1.306  -6.578   3.148  0.00  0.00    -0.300 N 
ATOM      8  C   UNL     1      -1.598  -7.530   2.067  0.00  0.00    +0.126 C 
ATOM      9  C   UNL     1      -0.915  -7.045   0.788  0.00  0.00    +0.127 C 
ATOM     10  C   UNL     1      -0.748  -6.999   4.301  0.00  0.00    +0.206 C 
ATOM     11  O   UNL     1      -0.585  -6.220   5.215  0.00  0.00    -0.277 OA
BRANCH   2  16
ATOM     12  C   UNL     1      -2.555   0.421  -1.507  0.00  0.00    +0.044 C 
ATOM     13  C   UNL     1      -2.356  -1.052  -1.261  0.00  0.00    -0.050 A 
ATOM     14  C   UNL     1      -3.255  -1.965  -1.782  0.00  0.00    +0.004 A 
ATOM     15  C   UNL     1      -3.078  -3.315  -1.560  0.00  0.00    +0.013 A 
ATOM     16  C   UNL     1      -1.989  -3.759  -0.808  0.00  0.00    +0.037 A 
ATOM     17  C   UNL     1      -1.086  -2.832  -0.285  0.00  0.00    +0.013 A 
ATOM     18  C   UNL     1      -1.271  -1.485  -0.519  0.00  0.00    +0.004 A 
ENDBRANCH   2  16
ENDBRANCH   1  10
BRANCH   1  19
ATOM     19  C   UNL     1       1.004  -8.646   3.773  0.00  0.00    -0.015 A 
ATOM     20  C   UNL     1       2.232  -8.218   4.153  0.00  0.00    +0.010 A 
ATOM     21  C   UNL     1       3.324  -8.531   3.366  0.00  0.00    +0.008 A 
ATOM     22  C   UNL     1       3.134  -9.256   2.237  0.00  0.00    +0.045 A 
ATOM     23  S   UNL     1       1.370  -9.526   2.264  0.00  0.00    -0.103 S 
ENDBRANCH   1  19
BRANCH   1  24
ATOM     24  N   UNL     1      -0.203  -8.764   5.879  0.00  0.00    +0.397 N 
ATOM     25  H   UNL     1       0.541  -8.217   6.287  0.00  0.00    -0.083 HD
ATOM     26  H   UNL     1      -1.071  -8.553   6.348  0.00  0.00    -0.083 HD
BRANCH  24  27
ATOM     27  C   UNL     1       0.101 -10.194   6.030  0.00  0.00    -0.009 C 
BRANCH  27  28
ATOM     28  C   UNL     1       0.325 -10.508   7.487  0.00  0.00    -0.057 A 
ATOM     29  C   UNL     1      -0.544 -10.015   8.442  0.00  0.00    +0.002 A 
ATOM     30  C   UNL     1      -0.339 -10.303   9.778  0.00  0.00    +0.000 A 
ATOM     31  C   UNL     1       0.735 -11.086  10.159  0.00  0.00    +0.000 A 
ATOM     32  C   UNL     1       1.603 -11.581   9.204  0.00  0.00    +0.000 A 
ATOM     33  C   UNL     1       1.395 -11.295   7.867  0.00  0.00    +0.002 A 
ENDBRANCH  27  28
BRANCH  27  34
ATOM     34  C   UNL     1      -1.055 -11.010   5.512  0.00  0.00    -0.057 A 
ATOM     35  C   UNL     1      -2.353 -10.605   5.758  0.00  0.00    +0.002 A 
ATOM     36  C   UNL     1      -3.413 -11.354   5.282  0.00  0.00    +0.000 A 
ATOM     37  C   UNL     1      -3.175 -12.508   4.560  0.00  0.00    +0.000 A 
ATOM     38  C   UNL     1      -1.877 -12.913   4.313  0.00  0.00    +0.000 A 
ATOM     39  C   UNL     1      -0.817 -12.162   4.785  0.00  0.00    +0.002 A 
ENDBRANCH  27  34
ENDBRANCH  24  27
ENDBRANCH   1  24
TORSDOF 7
