REMARK  Name = ZINC64426936
REMARK  2 active torsions:
REMARK  status: ('A' for Active; 'I' for Inactive)
REMARK    1  A    between atoms: C_6  and  N_10
REMARK    2  A    between atoms: C_11  and  C_13
REMARK                            x       y       z     vdW  Elec       q    Type
REMARK                         _______ _______ _______ _____ _____    ______ ____
ROOT
ATOM      1  C   UNL     1       3.652  -4.637  -2.561  0.00  0.00    +0.092 C 
ATOM      2  C   UNL     1       3.673  -6.147  -2.313  0.00  0.00    +0.016 C 
ATOM      3  C   UNL     1       4.381  -6.847  -3.475  0.00  0.00    +0.020 C 
ATOM      4  C   UNL     1       3.611  -6.580  -4.773  0.00  0.00    +0.106 C 
ATOM      5  N   UNL     1       3.461  -5.129  -4.943  0.00  0.00    -0.313 N 
ATOM      6  C   UNL     1       2.874  -4.345  -3.848  0.00  0.00    +0.119 C 
ATOM      7  C   UNL     1       3.867  -4.507  -6.121  0.00  0.00    +0.144 A 
ATOM      8  C   UNL     1       4.219  -5.275  -7.232  0.00  0.00    +0.049 A 
ATOM      9  C   UNL     1       4.616  -4.611  -8.380  0.00  0.00    +0.053 A 
ATOM     10  C   UNL     1       4.640  -3.217  -8.354  0.00  0.00    +0.176 A 
ATOM     11  N   UNL     1       4.290  -2.572  -7.255  0.00  0.00    -0.128 NA
ATOM     12  N   UNL     1       3.916  -3.186  -6.191  0.00  0.00    -0.132 NA
ATOM     13  N   UNL     1       5.035  -2.502  -9.491  0.00  0.00    -0.220 N 
ATOM     14  C   UNL     1       5.109  -1.150  -9.600  0.00  0.00    +0.116 A 
ATOM     15  C   UNL     1       5.532  -0.863 -10.853  0.00  0.00    +0.041 A 
ATOM     16  C   UNL     1       5.723  -2.072 -11.532  0.00  0.00    +0.135 A 
ATOM     17  N   UNL     1       5.431  -3.053 -10.716  0.00  0.00    -0.173 NA
ENDROOT
BRANCH   1  19
ATOM     18  N   UNL     1       2.849  -2.606  -1.401  0.00  0.00    -0.278 N 
ATOM     19  C   UNL     1       2.982  -3.947  -1.401  0.00  0.00    +0.220 C 
ATOM     20  O   UNL     1       2.564  -4.598  -0.467  0.00  0.00    -0.275 OA
ATOM     21  H   UNL     1       3.183  -2.085  -2.148  0.00  0.00    +0.152 HD
BRANCH  18  27
ATOM     22  C   UNL     1      -1.361   0.949  -0.663  0.00  0.00    +0.002 A 
ATOM     23  C   UNL     1      -0.321   1.895  -0.626  0.00  0.00    +0.002 A 
ATOM     24  C   UNL     1       0.976   1.545  -0.514  0.00  0.00    +0.027 A 
ATOM     25  C   UNL     1       1.338   0.124  -0.426  0.00  0.00    +0.061 A 
ATOM     26  N   UNL     1       2.479  -0.493  -0.314  0.00  0.00    -0.348 N 
ATOM     27  C   UNL     1       2.198  -1.934  -0.273  0.00  0.00    +0.269 C 
ATOM     28  N   UNL     1       0.740  -2.075  -0.376  0.00  0.00    -0.348 N 
ATOM     29  C   UNL     1       0.237  -0.877  -0.465  0.00  0.00    +0.061 A 
ATOM     30  C   UNL     1      -1.139  -0.379  -0.589  0.00  0.00    +0.027 A 
ATOM     31  H   UNL     1       3.354  -0.078  -0.267  0.00  0.00    +0.163 HD
ATOM     32  H   UNL     1       0.243  -2.908  -0.378  0.00  0.00    +0.163 HD
ENDBRANCH  18  27
ENDBRANCH   1  19
TORSDOF 2
