REMARK  Name = ZINC39589020
REMARK  8 active torsions:
REMARK  status: ('A' for Active; 'I' for Inactive)
REMARK    1  A    between atoms: C_4  and  C_7
REMARK    2  A    between atoms: C_7  and  C_9
REMARK    3  A    between atoms: C_7  and  O_22
REMARK    4  A    between atoms: N_11  and  C_12
REMARK    5  A    between atoms: C_15  and  N_19
REMARK    6  A    between atoms: O_22  and  C_23
REMARK    7  A    between atoms: C_23  and  C_25
REMARK    8  A    between atoms: C_25  and  C_26
REMARK                            x       y       z     vdW  Elec       q    Type
REMARK                         _______ _______ _______ _____ _____    ______ ____
ROOT
ATOM      1  C   UNL     1       3.728  -0.708  -0.041  0.00  0.00    +0.292 C 
ENDROOT
BRANCH   1   5
ATOM      2  C   UNL     1       0.003   1.383  -0.024  0.00  0.00    +0.000 A 
ATOM      3  C   UNL     1       1.192   2.088  -0.023  0.00  0.00    +0.000 A 
ATOM      4  C   UNL     1       2.397   1.412  -0.029  0.00  0.00    +0.008 A 
ATOM      5  C   UNL     1       2.414   0.029  -0.034  0.00  0.00    +0.002 A 
ATOM      6  C   UNL     1       1.225  -0.676  -0.034  0.00  0.00    +0.008 A 
ATOM      7  C   UNL     1       0.020   0.000  -0.030  0.00  0.00    +0.000 A 
ENDBRANCH   1   5
BRANCH   1   8
ATOM      8  C   UNL     1       4.050  -1.175   1.355  0.00  0.00    +0.263 C 
ATOM      9  O   UNL     1       4.097  -2.362   1.602  0.00  0.00    -0.271 OA
ATOM     10  N   UNL     1       4.285  -0.274   2.329  0.00  0.00    -0.281 N 
ATOM     11  H   UNL     1       4.312   0.672   2.119  0.00  0.00    +0.155 HD
BRANCH  10  12
ATOM     12  C   UNL     1       4.490  -0.704   3.645  0.00  0.00    +0.048 A 
ATOM     13  C   UNL     1       5.149  -1.901   3.891  0.00  0.00    +0.026 A 
ATOM     14  C   UNL     1       5.351  -2.323   5.191  0.00  0.00    +0.034 A 
ATOM     15  C   UNL     1       4.896  -1.555   6.247  0.00  0.00    +0.127 A 
ATOM     16  C   UNL     1       4.240  -0.362   6.006  0.00  0.00    +0.049 A 
ATOM     17  C   UNL     1       4.041   0.069   4.708  0.00  0.00    +0.041 A 
ATOM     18 BR   UNL     1       3.150   1.704   4.380  0.00  0.00    -0.048 Br
BRANCH  15  19
ATOM     19  N   UNL     1       5.113  -2.011   7.639  0.00  0.00    +0.056 N 
ATOM     20  O   UNL     1       5.687  -3.054   7.851  0.00  0.00    -0.126 OA
ATOM     21  O   UNL     1       4.717  -1.340   8.563  0.00  0.00    -0.126 OA
ENDBRANCH  15  19
ENDBRANCH  10  12
ENDBRANCH   1   8
BRANCH   1  22
ATOM     22  O   UNL     1       3.636  -1.838  -0.912  0.00  0.00    -0.447 OA
BRANCH  22  23
ATOM     23  C   UNL     1       3.970  -1.645  -2.198  0.00  0.00    +0.313 C 
ATOM     24  O   UNL     1       4.329  -0.554  -2.572  0.00  0.00    -0.250 OA
BRANCH  23  25
ATOM     25  C   UNL     1       3.897  -2.790  -3.175  0.00  0.00    +0.158 C 
BRANCH  25  26
ATOM     26  C   UNL     1       4.321  -2.313  -4.540  0.00  0.00    -0.002 A 
ATOM     27  C   UNL     1       3.370  -1.899  -5.454  0.00  0.00    +0.007 A 
ATOM     28  C   UNL     1       3.758  -1.461  -6.706  0.00  0.00    +0.000 A 
ATOM     29  C   UNL     1       5.098  -1.437  -7.046  0.00  0.00    +0.003 A 
ATOM     30  C   UNL     1       6.051  -1.851  -6.135  0.00  0.00    +0.038 A 
ATOM     31  C   UNL     1       5.663  -2.284  -4.878  0.00  0.00    +0.127 A 
ATOM     32  F   UNL     1       6.594  -2.684  -3.984  0.00  0.00    -0.205 F 
ENDBRANCH  25  26
ENDBRANCH  23  25
ENDBRANCH  22  23
ENDBRANCH   1  22
TORSDOF 8
