REMARK  Name = ZINC36497889
REMARK  13 active torsions:
REMARK  status: ('A' for Active; 'I' for Inactive)
REMARK    1  A    between atoms: C_1  and  C_2
REMARK    2  A    between atoms: C_2  and  C_3
REMARK    3  A    between atoms: C_2  and  C_4
REMARK    4  A    between atoms: C_2  and  N_5
REMARK    5  A    between atoms: C_6  and  C_8
REMARK    6  A    between atoms: C_8  and  C_10
REMARK    7  A    between atoms: C_8  and  N_22
REMARK    8  A    between atoms: C_19  and  O_20
REMARK    9  A    between atoms: O_20  and  C_21
REMARK   10  A    between atoms: N_22  and  C_23
REMARK   11  A    between atoms: C_23  and  C_24
REMARK   12  A    between atoms: C_29  and  C_31
REMARK   13  A    between atoms: C_36  and  O_37
REMARK                            x       y       z     vdW  Elec       q    Type
REMARK                         _______ _______ _______ _____ _____    ______ ____
ROOT
ATOM      1  C   UNL     1       0.446  -1.487   0.605  0.00  0.00    +0.197 C 
ENDROOT
BRANCH   1   2
ATOM      2  C   UNL     1       1.605  -2.441   0.475  0.00  0.00    +0.031 A 
ATOM      3  C   UNL     1       2.070  -3.145   1.598  0.00  0.00    -0.009 A 
ATOM      4  C   UNL     1       1.472  -2.981   2.860  0.00  0.00    +0.009 A 
ATOM      5  C   UNL     1       1.947  -3.680   3.926  0.00  0.00    +0.001 A 
ATOM      6  C   UNL     1       3.021  -4.558   3.787  0.00  0.00    +0.001 A 
ATOM      7  C   UNL     1       3.624  -4.742   2.581  0.00  0.00    +0.008 A 
ATOM      8  C   UNL     1       3.161  -4.038   1.457  0.00  0.00    -0.017 A 
ATOM      9  C   UNL     1       3.760  -4.204   0.196  0.00  0.00    +0.012 A 
ATOM     10  C   UNL     1       3.287  -3.507  -0.872  0.00  0.00    +0.046 A 
ATOM     11  C   UNL     1       2.207  -2.629  -0.737  0.00  0.00    +0.126 A 
BRANCH  11  12
ATOM     12  O   UNL     1       1.754  -1.951  -1.823  0.00  0.00    -0.495 OA
ATOM     13  C   UNL     1       2.485  -2.112  -3.040  0.00  0.00    +0.277 C 
ENDBRANCH  11  12
ENDBRANCH   1   2
BRANCH   1  15
ATOM     14  N   UNL     1      -1.364  -3.164   0.437  0.00  0.00    -0.309 N 
ATOM     15  C   UNL     1      -0.764  -2.072  -0.076  0.00  0.00    +0.239 C 
ATOM     16  O   UNL     1      -1.199  -1.559  -1.086  0.00  0.00    -0.273 OA
ATOM     17  H   UNL     1      -1.016  -3.574   1.244  0.00  0.00    +0.149 HD
BRANCH  14  19
ATOM     18  C   UNL     1      -2.173  -4.148  -1.651  0.00  0.00    +0.031 C 
ATOM     19  C   UNL     1      -2.541  -3.733  -0.225  0.00  0.00    +0.026 C 
ATOM     20  C   UNL     1      -3.656  -2.686  -0.270  0.00  0.00    +0.031 C 
ATOM     21  C   UNL     1      -3.022  -4.958   0.555  0.00  0.00    +0.031 C 
ENDBRANCH  14  19
ENDBRANCH   1  15
BRANCH   1  22
ATOM     22  N   UNL     1       0.791  -0.210  -0.025  0.00  0.00    -0.274 N 
ATOM     23  C   UNL     1      -0.179   0.671  -0.339  0.00  0.00    +0.251 C 
ATOM     24  O   UNL     1       0.089   1.668  -0.981  0.00  0.00    -0.270 OA
BRANCH  23  25
ATOM     25  C   UNL     1      -1.567   0.425   0.096  0.00  0.00    +0.078 A 
ATOM     26  C   UNL     1      -1.841  -0.556   1.052  0.00  0.00    +0.017 A 
ATOM     27  C   UNL     1      -3.139  -0.781   1.454  0.00  0.00    +0.001 A 
ATOM     28  C   UNL     1      -4.177  -0.038   0.914  0.00  0.00    +0.004 A 
ATOM     29  C   UNL     1      -3.921   0.935  -0.031  0.00  0.00    +0.046 A 
ATOM     30  C   UNL     1      -2.619   1.178  -0.444  0.00  0.00    +0.129 A 
BRANCH  30  31
ATOM     31  O   UNL     1      -2.365   2.137  -1.369  0.00  0.00    -0.506 OA
ATOM     32  H   UNL     1      -2.388   1.819  -2.282  0.00  0.00    +0.292 HD
ENDBRANCH  30  31
ENDBRANCH  23  25
BRANCH  22  33
ATOM     33  C   UNL     1       2.192   0.110  -0.314  0.00  0.00    +0.183 C 
BRANCH  33  34
ATOM     34  C   UNL     1       2.842   0.678   0.921  0.00  0.00    +0.122 A 
ATOM     35  C   UNL     1       3.543  -0.019   1.833  0.00  0.00    +0.046 A 
ATOM     36  C   UNL     1       3.968   0.903   2.817  0.00  0.00    +0.041 A 
ATOM     37  C   UNL     1       3.501   2.109   2.447  0.00  0.00    +0.195 A 
ATOM     38  O   UNL     1       2.825   1.968   1.295  0.00  0.00    -0.466 OA
ENDBRANCH  33  34
ENDBRANCH  22  33
ENDBRANCH   1  22
TORSDOF 9
