REMARK  Name = ZINC10691672
REMARK  8 active torsions:
REMARK  status: ('A' for Active; 'I' for Inactive)
REMARK    1  A    between atoms: C_4  and  C_7
REMARK    2  A    between atoms: C_7  and  C_9
REMARK    3  A    between atoms: C_7  and  C_24
REMARK    4  A    between atoms: C_9  and  N_10
REMARK    5  A    between atoms: C_11  and  C_13
REMARK    6  A    between atoms: C_13  and  O_14
REMARK    7  A    between atoms: O_14  and  C_15
REMARK    8  A    between atoms: C_20  and  N_21
REMARK                            x       y       z     vdW  Elec       q    Type
REMARK                         _______ _______ _______ _____ _____    ______ ____
ROOT
ATOM      1  C   UNL     1      -3.854  -6.167   0.004  0.00  0.00    +0.068 C 
ENDROOT
BRANCH   1   2
ATOM      2  C   UNL     1      -5.233  -6.763  -0.110  0.00  0.00    -0.013 A 
ATOM      3  C   UNL     1      -6.248  -6.598   0.753  0.00  0.00    +0.088 A 
ATOM      4  N   UNL     1      -7.348  -7.286   0.317  0.00  0.00    -0.360 N 
ATOM      5  H   UNL     1      -8.203  -7.316   0.773  0.00  0.00    +0.165 HD
ATOM      6  C   UNL     1      -7.057  -7.936  -0.861  0.00  0.00    +0.047 A 
ATOM      7  C   UNL     1      -5.719  -7.636  -1.181  0.00  0.00    +0.003 A 
ATOM      8  C   UNL     1      -5.145  -8.165  -2.338  0.00  0.00    +0.010 A 
ATOM      9  C   UNL     1      -5.885  -8.972  -3.155  0.00  0.00    +0.001 A 
ATOM     10  C   UNL     1      -7.204  -9.271  -2.844  0.00  0.00    +0.002 A 
ATOM     11  C   UNL     1      -7.791  -8.760  -1.707  0.00  0.00    +0.026 A 
ENDBRANCH   1   2
BRANCH   1  15
ATOM     12  C   UNL     1      -2.026  -7.493   3.631  0.00  0.00    +0.000 A 
ATOM     13  C   UNL     1      -1.437  -7.782   2.414  0.00  0.00    +0.000 A 
ATOM     14  C   UNL     1      -2.028  -7.353   1.240  0.00  0.00    +0.004 A 
ATOM     15  C   UNL     1      -3.209  -6.635   1.284  0.00  0.00    -0.038 A 
ATOM     16  C   UNL     1      -3.796  -6.343   2.500  0.00  0.00    +0.004 A 
ATOM     17  C   UNL     1      -3.207  -6.776   3.674  0.00  0.00    +0.000 A 
ENDBRANCH   1  15
BRANCH   1  18
ATOM     18  C   UNL     1      -3.956  -4.641   0.013  0.00  0.00    +0.117 C 
BRANCH  18  19
ATOM     19  N   UNL     1      -2.610  -4.061   0.004  0.00  0.00    -0.312 N 
ATOM     20  C   UNL     1      -2.453  -2.723   0.010  0.00  0.00    +0.251 C 
ATOM     21  O   UNL     1      -3.426  -1.998   0.023  0.00  0.00    -0.272 OA
ATOM     22  H   UNL     1      -1.833  -4.641  -0.006  0.00  0.00    +0.149 HD
BRANCH  20  23
ATOM     23  C   UNL     1      -1.069  -2.126   0.000  0.00  0.00    +0.324 C 
BRANCH  23  24
ATOM     24  O   UNL     1      -1.165  -0.701   0.009  0.00  0.00    -0.480 OA
BRANCH  24  25
ATOM     25  C   UNL     1       0.002  -0.004   0.002  0.00  0.00    +0.151 A 
ATOM     26  C   UNL     1       1.214  -0.679  -0.013  0.00  0.00    +0.048 A 
ATOM     27  C   UNL     1       2.399   0.031  -0.021  0.00  0.00    +0.004 A 
ATOM     28  C   UNL     1       2.377   1.414  -0.013  0.00  0.00    +0.002 A 
ATOM     29  C   UNL     1       1.171   2.089   0.002  0.00  0.00    +0.036 A 
ATOM     30  C   UNL     1      -0.017   1.383   0.010  0.00  0.00    +0.168 A 
BRANCH  30  31
ATOM     31  N   UNL     1      -1.308   2.106   0.020  0.00  0.00    +0.060 N 
ATOM     32  O   UNL     1      -1.324   3.324   0.026  0.00  0.00    -0.126 OA
ATOM     33  O   UNL     1      -2.355   1.483   0.021  0.00  0.00    -0.126 OA
ENDBRANCH  30  31
ENDBRANCH  24  25
ENDBRANCH  23  24
ENDBRANCH  20  23
ENDBRANCH  18  19
ENDBRANCH   1  18
TORSDOF 8
