REMARK  Name = ZINC15968096
REMARK  7 active torsions:
REMARK  status: ('A' for Active; 'I' for Inactive)
REMARK    1  A    between atoms: C_1  and  C_2
REMARK    2  A    between atoms: C_4  and  C_39
REMARK    3  A    between atoms: C_13  and  C_16
REMARK    4  A    between atoms: C_16  and  C_17
REMARK    5  A    between atoms: C_17  and  C_18
REMARK    6  A    between atoms: N_23  and  C_26
REMARK    7  A    between atoms: C_26  and  C_27
REMARK                            x       y       z     vdW  Elec       q    Type
REMARK                         _______ _______ _______ _____ _____    ______ ____
ROOT
ATOM      1  C   UNL     1      -0.018   1.503   0.010  0.00  0.00    +0.044 C 
ATOM      2  C   UNL     1       0.002  -0.004   0.002  0.00  0.00    -0.050 A 
ATOM      3  C   UNL     1       0.006  -0.691  -1.199  0.00  0.00    +0.008 A 
ATOM      4  C   UNL     1       0.025  -2.070  -1.212  0.00  0.00    -0.029 A 
ATOM      5  C   UNL     1       0.042  -2.782  -0.015  0.00  0.00    +0.042 A 
ATOM      6  C   UNL     1       0.035  -2.081   1.187  0.00  0.00    +0.004 A 
ATOM      7  C   UNL     1       0.023  -0.704   1.195  0.00  0.00    +0.011 A 
ATOM      8  C   UNL     1       0.049  -3.122   2.270  0.00  0.00    +0.136 C 
ATOM      9  C   UNL     1       1.267  -2.968   3.188  0.00  0.00    +0.122 C 
ATOM     10  C   UNL     1       0.745  -3.357   4.599  0.00  0.00    +0.107 C 
ATOM     11  C   UNL     1      -0.743  -3.709   4.388  0.00  0.00    +0.068 C 
ATOM     12  N   UNL     1      -1.134  -3.008   3.143  0.00  0.00    -0.295 NA
ATOM     13  C   UNL     1       1.525  -4.610   4.926  0.00  0.00    +0.227 C 
ATOM     14  O   UNL     1       1.424  -5.251   5.950  0.00  0.00    -0.275 OA
ATOM     15  N   UNL     1       2.342  -4.903   3.908  0.00  0.00    -0.237 N 
ATOM     16  C   UNL     1       2.286  -4.038   2.870  0.00  0.00    +0.229 C 
ATOM     17  O   UNL     1       2.938  -4.104   1.850  0.00  0.00    -0.275 OA
ATOM     18  C   UNL     1       0.069  -4.440   1.545  0.00  0.00    +0.243 C 
ATOM     19  O   UNL     1       0.087  -5.543   2.048  0.00  0.00    -0.273 OA
ATOM     20  N   UNL     1       0.064  -4.157   0.228  0.00  0.00    -0.283 N 
ATOM     21  C   UNL     1       0.029  -2.808  -2.526  0.00  0.00    +0.045 C 
ATOM     22  H   UNL     1      -1.349  -2.042   3.337  0.00  0.00    +0.123 HD
ATOM     23  H   UNL     1       0.074  -4.830  -0.470  0.00  0.00    +0.155 HD
ENDROOT
BRANCH  11  24
ATOM     24  C   UNL     1      -1.579  -3.229   5.576  0.00  0.00    +0.031 C 
BRANCH  24  25
ATOM     25  C   UNL     1      -3.025  -3.697   5.405  0.00  0.00    +0.126 C 
BRANCH  25  26
ATOM     26  C   UNL     1      -3.848  -3.223   6.575  0.00  0.00    +0.356 C 
ATOM     27  O   UNL     1      -3.326  -2.572   7.464  0.00  0.00    -0.246 OA
ATOM     28  O   UNL     1      -5.036  -3.492   6.633  0.00  0.00    -0.246 OA
ENDBRANCH  25  26
ENDBRANCH  24  25
ENDBRANCH  11  24
BRANCH  15  29
ATOM     29  C   UNL     1       3.234  -6.066   3.917  0.00  0.00    +0.151 C 
BRANCH  29  30
ATOM     30  C   UNL     1       2.518  -7.253   3.326  0.00  0.00    -0.026 A 
ATOM     31  C   UNL     1       1.784  -8.092   4.143  0.00  0.00    +0.009 A 
ATOM     32  C   UNL     1       1.125  -9.182   3.606  0.00  0.00    +0.050 A 
ATOM     33  C   UNL     1       1.199  -9.436   2.246  0.00  0.00    +0.166 A 
ATOM     34  C   UNL     1       1.939  -8.590   1.423  0.00  0.00    +0.167 A 
ATOM     35  C   UNL     1       2.592  -7.497   1.968  0.00  0.00    +0.054 A 
ATOM     36  O   UNL     1       1.857  -9.049   0.140  0.00  0.00    -0.453 OA
ATOM     37  C   UNL     1       1.399 -10.410   0.246  0.00  0.00    +0.466 C 
ATOM     38  O   UNL     1       0.654 -10.424   1.478  0.00  0.00    -0.453 OA
ENDBRANCH  29  30
ENDBRANCH  15  29
TORSDOF 5
