REMARK  Name = ZINC13422425
REMARK  9 active torsions:
REMARK  status: ('A' for Active; 'I' for Inactive)
REMARK    1  A    between atoms: C_1  and  C_2
REMARK    2  A    between atoms: C_7  and  N_8
REMARK    3  A    between atoms: C_9  and  C_11
REMARK    4  A    between atoms: C_11  and  N_12
REMARK    5  A    between atoms: C_13  and  C_15
REMARK    6  A    between atoms: C_15  and  O_16
REMARK    7  A    between atoms: O_16  and  C_17
REMARK    8  A    between atoms: C_20  and  C_25
REMARK    9  A    between atoms: C_22  and  C_23
REMARK                            x       y       z     vdW  Elec       q    Type
REMARK                         _______ _______ _______ _____ _____    ______ ____
ROOT
ATOM      1  N   UNL     1       3.897  -2.201  -0.032  0.00  0.00    -0.304 N 
ATOM      2  C   UNL     1       3.705  -0.867  -0.013  0.00  0.00    +0.251 C 
ATOM      3  O   UNL     1       4.659  -0.117  -0.010  0.00  0.00    -0.272 OA
ATOM      4  H   UNL     1       3.134  -2.800  -0.035  0.00  0.00    +0.149 HD
ENDROOT
BRANCH   1   5
ATOM      5  C   UNL     1       5.257  -2.745  -0.050  0.00  0.00    +0.200 C 
BRANCH   5   7
ATOM      6  N   UNL     1       6.333  -4.972  -0.088  0.00  0.00    -0.284 N 
ATOM      7  C   UNL     1       5.194  -4.251  -0.070  0.00  0.00    +0.234 C 
ATOM      8  O   UNL     1       4.120  -4.814  -0.069  0.00  0.00    -0.274 OA
ATOM      9  H   UNL     1       7.189  -4.524  -0.170  0.00  0.00    +0.155 HD
BRANCH   6  16
ATOM     10  C   UNL     1       8.484  -6.480  -1.182  0.00  0.00    +0.046 C 
ATOM     11  C   UNL     1       7.308  -7.141  -0.511  0.00  0.00    -0.028 A 
ATOM     12  C   UNL     1       7.255  -8.518  -0.408  0.00  0.00    +0.020 A 
ATOM     13  C   UNL     1       6.172  -9.126   0.203  0.00  0.00    +0.018 A 
ATOM     14  C   UNL     1       5.143  -8.357   0.718  0.00  0.00    +0.017 A 
ATOM     15  C   UNL     1       5.194  -6.980   0.623  0.00  0.00    +0.024 A 
ATOM     16  C   UNL     1       6.279  -6.367   0.010  0.00  0.00    +0.036 A 
ATOM     17 BR   UNL     1       6.099 -11.011   0.335  0.00  0.00    -0.050 Br
ENDBRANCH   6  16
ENDBRANCH   5   7
ENDBRANCH   1   5
BRANCH   2  18
ATOM     18  C   UNL     1       2.306  -0.307   0.005  0.00  0.00    +0.324 C 
BRANCH  18  19
ATOM     19  O   UNL     1       2.365   1.121   0.024  0.00  0.00    -0.482 OA
BRANCH  19  20
ATOM     20  C   UNL     1       1.185   1.785   0.042  0.00  0.00    +0.135 A 
ATOM     21  C   UNL     1      -0.011   1.077   0.042  0.00  0.00    +0.047 A 
ATOM     22  C   UNL     1      -1.213   1.746   0.054  0.00  0.00    +0.019 A 
ATOM     23  C   UNL     1      -1.241   3.146   0.078  0.00  0.00    +0.064 A 
ATOM     24  C   UNL     1      -0.048   3.867   0.079  0.00  0.00    +0.034 A 
ATOM     25  C   UNL     1       1.169   3.189   0.061  0.00  0.00    +0.105 A 
BRANCH  25  26
ATOM     26  C   UNL     1       2.436   3.943   0.062  0.00  0.00    +0.390 C 
ATOM     27  O   UNL     1       3.496   3.350   0.046  0.00  0.00    -0.240 OA
ATOM     28  O   UNL     1       2.418   5.291   0.080  0.00  0.00    -0.240 OA
ENDBRANCH  25  26
BRANCH  23  29
ATOM     29  C   UNL     1      -2.533   3.858   0.098  0.00  0.00    +0.387 C 
ATOM     30  O   UNL     1      -2.557   5.073   0.114  0.00  0.00    -0.241 OA
ATOM     31  O   UNL     1      -3.686   3.161   0.097  0.00  0.00    -0.241 OA
ENDBRANCH  23  29
ENDBRANCH  19  20
ENDBRANCH  18  19
ENDBRANCH   2  18
TORSDOF 8
