REMARK  Name = ZINC41586510
REMARK  8 active torsions:
REMARK  status: ('A' for Active; 'I' for Inactive)
REMARK    1  A    between atoms: C_1  and  C_2
REMARK    2  A    between atoms: C_2  and  O_3
REMARK    3  A    between atoms: O_3  and  C_4
REMARK    4  A    between atoms: C_4  and  C_6
REMARK    5  A    between atoms: N_11  and  C_13
REMARK    6  A    between atoms: C_13  and  C_14
REMARK    7  A    between atoms: C_15  and  O_33
REMARK    8  A    between atoms: C_22  and  C_23
REMARK                            x       y       z     vdW  Elec       q    Type
REMARK                         _______ _______ _______ _____ _____    ______ ____
ROOT
ATOM      1  C   UNL     1       2.641  -6.368  -4.958  0.00  0.00    +0.020 A 
ATOM      2  C   UNL     1       1.829  -6.551  -6.066  0.00  0.00    +0.122 A 
ATOM      3  C   UNL     1       2.348  -7.077  -7.245  0.00  0.00    +0.046 A 
ATOM      4  C   UNL     1       3.669  -7.419  -7.322  0.00  0.00    +0.019 A 
ATOM      5  C   UNL     1       4.498  -7.240  -6.214  0.00  0.00    +0.068 A 
ATOM      6  C   UNL     1       3.987  -6.705  -5.020  0.00  0.00    +0.144 A 
ATOM      7  O   UNL     1       4.972  -6.621  -4.100  0.00  0.00    -0.451 OA
ATOM      8  C   UNL     1       6.155  -7.064  -4.586  0.00  0.00    +0.176 C 
ATOM      9  C   UNL     1       7.332  -7.109  -3.914  0.00  0.00    +0.058 C 
ATOM     10  C   UNL     1       5.929  -7.501  -5.974  0.00  0.00    +0.231 C 
ATOM     11  O   UNL     1       6.745  -7.962  -6.753  0.00  0.00    -0.283 OA
ENDROOT
BRANCH   9  12
ATOM     12  C   UNL     1       7.426  -6.546  -2.560  0.00  0.00    -0.020 A 
ATOM     13  C   UNL     1       8.667  -6.468  -1.915  0.00  0.00    +0.009 A 
ATOM     14  C   UNL     1       8.748  -5.939  -0.646  0.00  0.00    +0.022 A 
ATOM     15  C   UNL     1       7.606  -5.484  -0.006  0.00  0.00    +0.059 A 
ATOM     16  C   UNL     1       6.374  -5.558  -0.637  0.00  0.00    +0.060 A 
ATOM     17  C   UNL     1       6.278  -6.080  -1.911  0.00  0.00    +0.029 A 
ATOM     18 CL   UNL     1       4.950  -4.985   0.173  0.00  0.00    -0.082 Cl
ATOM     19 CL   UNL     1       7.719  -4.819   1.594  0.00  0.00    -0.082 Cl
ENDBRANCH   9  12
BRANCH   2  20
ATOM     20  O   UNL     1       0.515  -6.214  -6.000  0.00  0.00    -0.506 OA
ATOM     21  H   UNL     1       0.330  -5.301  -6.259  0.00  0.00    +0.292 HD
ENDBRANCH   2  20
BRANCH   1  22
ATOM     22  C   UNL     1       2.065  -5.798  -3.688  0.00  0.00    -0.036 C 
BRANCH  22  27
ATOM     23  C   UNL     1       1.548  -2.243  -2.600  0.00  0.00    +0.081 C 
ATOM     24  C   UNL     1       3.007  -1.781  -2.622  0.00  0.00    +0.011 C 
ATOM     25  C   UNL     1       3.721  -2.432  -3.811  0.00  0.00    -0.018 C 
ATOM     26  C   UNL     1       3.596  -3.953  -3.703  0.00  0.00    -0.078 C 
ATOM     27  N   UNL     1       2.178  -4.333  -3.713  0.00  0.00    +0.383 N 
ATOM     28  C   UNL     1       1.502  -3.771  -2.538  0.00  0.00    -0.064 C 
ATOM     29  H   UNL     1       1.742  -3.979  -4.551  0.00  0.00    -0.081 HD
BRANCH  23  30
ATOM     30  C   UNL     1       0.856  -1.669  -1.391  0.00  0.00    +0.308 C 
ATOM     31  O   UNL     1       0.374  -2.406  -0.563  0.00  0.00    -0.251 OA
BRANCH  30  32
ATOM     32  O   UNL     1       0.775  -0.339  -1.232  0.00  0.00    -0.465 OA
BRANCH  32  34
ATOM     33  C   UNL     1       0.114   1.666  -0.055  0.00  0.00    +0.048 C 
ATOM     34  C   UNL     1       0.106   0.136  -0.062  0.00  0.00    +0.229 C 
ENDBRANCH  32  34
ENDBRANCH  30  32
ENDBRANCH  23  30
ENDBRANCH  22  27
ENDBRANCH   1  22
TORSDOF 7
