REMARK  Name = ZINC09044703
REMARK  7 active torsions:
REMARK  status: ('A' for Active; 'I' for Inactive)
REMARK    1  A    between atoms: C_1  and  C_2
REMARK    2  A    between atoms: C_11  and  O_21
REMARK    3  A    between atoms: C_12  and  C_14
REMARK    4  A    between atoms: O_21  and  C_22
REMARK    5  A    between atoms: C_22  and  C_24
REMARK    6  A    between atoms: C_22  and  C_25
REMARK    7  A    between atoms: N_27  and  C_28
REMARK                            x       y       z     vdW  Elec       q    Type
REMARK                         _______ _______ _______ _____ _____    ______ ____
ROOT
ATOM      1  C   UNL     1       4.253 -12.037  -3.387  0.00  0.00    +0.045 C 
ATOM      2  C   UNL     1       4.183 -10.590  -2.972  0.00  0.00    -0.029 A 
ATOM      3  C   UNL     1       4.013 -10.268  -1.643  0.00  0.00    +0.051 A 
ATOM      4  C   UNL     1       3.947  -8.936  -1.254  0.00  0.00    +0.140 A 
ATOM      5  C   UNL     1       4.056  -7.929  -2.227  0.00  0.00    +0.069 A 
ATOM      6  C   UNL     1       4.228  -8.266  -3.568  0.00  0.00    +0.035 A 
ATOM      7  C   UNL     1       4.291  -9.594  -3.934  0.00  0.00    +0.045 A 
ATOM      8 CL   UNL     1       4.505 -10.023  -5.602  0.00  0.00    -0.083 Cl
ATOM      9  C   UNL     1       3.984  -6.521  -1.793  0.00  0.00    +0.235 A 
ATOM     10  O   UNL     1       4.074  -5.605  -2.595  0.00  0.00    -0.283 OA
ATOM     11  C   UNL     1       3.808  -6.273  -0.408  0.00  0.00    +0.212 A 
ATOM     12  C   UNL     1       3.718  -7.325   0.455  0.00  0.00    +0.181 A 
ATOM     13  O   UNL     1       3.780  -8.602   0.043  0.00  0.00    -0.451 OA
ENDROOT
BRANCH  12  14
ATOM     14  C   UNL     1       3.541  -7.051   1.893  0.00  0.00    +0.021 A 
ATOM     15  C   UNL     1       4.355  -7.687   2.834  0.00  0.00    +0.013 A 
ATOM     16  C   UNL     1       4.187  -7.423   4.177  0.00  0.00    +0.021 A 
ATOM     17  C   UNL     1       3.208  -6.536   4.595  0.00  0.00    +0.041 A 
ATOM     18  C   UNL     1       2.394  -5.907   3.667  0.00  0.00    +0.021 A 
ATOM     19  C   UNL     1       2.555  -6.158   2.321  0.00  0.00    +0.013 A 
ATOM     20 CL   UNL     1       2.999  -6.213   6.287  0.00  0.00    -0.084 Cl
ENDBRANCH  12  14
BRANCH  11  21
ATOM     21  O   UNL     1       3.733  -4.997   0.057  0.00  0.00    -0.473 OA
BRANCH  21  22
ATOM     22  C   UNL     1       4.949  -4.400   0.512  0.00  0.00    +0.256 C 
ATOM     23  C   UNL     1       5.674  -3.754  -0.671  0.00  0.00    +0.062 C 
BRANCH  22  24
ATOM     24  C   UNL     1       4.637  -3.348   1.545  0.00  0.00    +0.258 C 
ATOM     25  O   UNL     1       3.484  -3.067   1.795  0.00  0.00    -0.271 OA
ATOM     26  N   UNL     1       5.639  -2.720   2.191  0.00  0.00    -0.282 N 
ATOM     27  H   UNL     1       6.561  -2.894   1.943  0.00  0.00    +0.155 HD
BRANCH  26  28
ATOM     28  C   UNL     1       5.350  -1.816   3.221  0.00  0.00    +0.034 A 
ATOM     29  C   UNL     1       4.241  -2.017   4.031  0.00  0.00    +0.026 A 
ATOM     30  C   UNL     1       3.957  -1.124   5.046  0.00  0.00    +0.040 A 
ATOM     31  C   UNL     1       4.778  -0.029   5.255  0.00  0.00    +0.124 A 
ATOM     32  C   UNL     1       5.885   0.174   4.448  0.00  0.00    +0.040 A 
ATOM     33  C   UNL     1       6.172  -0.717   3.432  0.00  0.00    +0.026 A 
ATOM     34  F   UNL     1       4.499   0.844   6.248  0.00  0.00    -0.205 F 
ENDBRANCH  26  28
ENDBRANCH  22  24
ENDBRANCH  21  22
ENDBRANCH  11  21
TORSDOF 5
