REMARK  Name = ZINC16044122
REMARK  5 active torsions:
REMARK  status: ('A' for Active; 'I' for Inactive)
REMARK    1  A    between atoms: C_1  and  C_2
REMARK    2  A    between atoms: C_5  and  C_8
REMARK    3  A    between atoms: C_17  and  C_20
REMARK    4  A    between atoms: N_25  and  S_28
REMARK    5  A    between atoms: S_28  and  C_31
REMARK                            x       y       z     vdW  Elec       q    Type
REMARK                         _______ _______ _______ _____ _____    ______ ____
ROOT
ATOM      1  C   UNL     1      -0.741   1.580  -1.204  0.00  0.00    -0.003 C 
ATOM      2  C   UNL     1      -0.013   1.103   0.054  0.00  0.00    +0.015 C 
ATOM      3  C   UNL     1      -0.745   1.621   1.294  0.00  0.00    -0.009 C 
ATOM      4  C   UNL     1      -0.772   3.150   1.270  0.00  0.00    +0.007 C 
ATOM      5  C   UNL     1      -1.500   3.627   0.011  0.00  0.00    -0.009 C 
ATOM      6  C   UNL     1      -0.768   3.110  -1.229  0.00  0.00    +0.015 C 
ATOM      7  C   UNL     1      -2.933   3.092   0.018  0.00  0.00    +0.019 C 
ATOM      8  C   UNL     1      -2.906   1.562   0.043  0.00  0.00    +0.048 C 
ATOM      9  C   UNL     1      -2.178   1.085   1.301  0.00  0.00    +0.019 C 
ATOM     10  C   UNL     1      -2.174   1.045  -1.197  0.00  0.00    +0.027 C 
ENDROOT
BRANCH   8  11
ATOM     11  C   UNL     1      -4.318   1.035   0.049  0.00  0.00    +0.222 C 
ATOM     12  O   UNL     1      -4.668   0.251   0.905  0.00  0.00    -0.275 OA
ATOM     13  N   UNL     1      -5.191   1.435  -0.897  0.00  0.00    -0.298 N 
ATOM     14  C   UNL     1      -4.752   2.297  -2.003  0.00  0.00    +0.125 C 
ATOM     15  C   UNL     1      -5.118   1.609  -3.329  0.00  0.00    +0.128 C 
ATOM     16  N   UNL     1      -6.527   1.196  -3.269  0.00  0.00    -0.173 NA
ATOM     17  C   UNL     1      -6.967   0.338  -2.160  0.00  0.00    +0.128 C 
ATOM     18  C   UNL     1      -6.600   1.022  -0.837  0.00  0.00    +0.125 C 
BRANCH  16  19
ATOM     19  S   UNL     1      -7.600   1.688  -4.431  0.00  0.00    +0.067 S 
ATOM     20  O   UNL     1      -6.835   1.987  -5.590  0.00  0.00    -0.152 OA
ATOM     21  O   UNL     1      -8.655   0.736  -4.439  0.00  0.00    -0.152 OA
BRANCH  19  22
ATOM     22  C   UNL     1      -8.299   3.210  -3.883  0.00  0.00    +0.143 A 
ATOM     23  C   UNL     1      -7.865   4.476  -4.099  0.00  0.00    +0.036 A 
ATOM     24  C   UNL     1      -8.584   5.531  -3.569  0.00  0.00    +0.010 A 
ATOM     25  C   UNL     1      -9.695   5.268  -2.839  0.00  0.00    +0.047 A 
ATOM     26  S   UNL     1      -9.758   3.485  -2.891  0.00  0.00    -0.077 S 
ENDBRANCH  19  22
ENDBRANCH  16  19
ENDBRANCH   8  11
BRANCH   1  31
ATOM     27  C   UNL     1       2.023  -0.374  -5.888  0.00  0.00    +0.044 C 
ATOM     28  C   UNL     1       1.302   0.136  -4.666  0.00  0.00    -0.050 A 
ATOM     29  C   UNL     1       0.792  -0.757  -3.742  0.00  0.00    +0.003 A 
ATOM     30  C   UNL     1       0.131  -0.289  -2.622  0.00  0.00    +0.004 A 
ATOM     31  C   UNL     1      -0.020   1.071  -2.425  0.00  0.00    -0.041 A 
ATOM     32  C   UNL     1       0.486   1.963  -3.352  0.00  0.00    +0.004 A 
ATOM     33  C   UNL     1       1.152   1.496  -4.469  0.00  0.00    +0.003 A 
ENDBRANCH   1  31
TORSDOF 4
