REMARK  Name = ZINC26841928
REMARK  8 active torsions:
REMARK  status: ('A' for Active; 'I' for Inactive)
REMARK    1  A    between atoms: C_1  and  C_2
REMARK    2  A    between atoms: C_2  and  C_3
REMARK    3  A    between atoms: C_3  and  N_4
REMARK    4  A    between atoms: N_4  and  C_5
REMARK    5  A    between atoms: C_6  and  C_17
REMARK    6  A    between atoms: C_11  and  C_16
REMARK    7  A    between atoms: N_21  and  C_25
REMARK    8  A    between atoms: C_25  and  C_26
REMARK                            x       y       z     vdW  Elec       q    Type
REMARK                         _______ _______ _______ _____ _____    ______ ____
ROOT
ATOM      1  C   UNL     1      -0.576  10.033   0.381  0.00  0.00    +0.037 C 
ATOM      2  C   UNL     1      -1.830  10.538   0.196  0.00  0.00    +0.077 C 
ATOM      3  C   UNL     1      -3.008   9.890  -0.273  0.00  0.00    +0.259 C 
ATOM      4  O   UNL     1      -2.995   8.710  -0.579  0.00  0.00    -0.269 OA
ATOM      5  N   UNL     1      -4.117  10.603  -0.367  0.00  0.00    -0.251 N 
ATOM      6  C   UNL     1      -4.130  11.913  -0.033  0.00  0.00    +0.121 C 
ATOM      7  S   UNL     1      -5.436  13.020  -0.082  0.00  0.00    -0.027 S 
ATOM      8  S   UNL     1      -2.441  12.195   0.475  0.00  0.00    -0.061 S 
ENDROOT
BRANCH   1  10
ATOM      9  C   UNL     1       0.819  12.010  -0.063  0.00  0.00    +0.134 A 
ATOM     10  C   UNL     1       0.487  10.893   0.740  0.00  0.00    +0.081 A 
ATOM     11  C   UNL     1       1.250  10.655   1.908  0.00  0.00    +0.267 A 
ATOM     12  O   UNL     1       1.003   9.702   2.627  0.00  0.00    -0.267 OA
ATOM     13  N   UNL     1       2.257  11.502   2.213  0.00  0.00    -0.267 N 
ATOM     14  C   UNL     1       2.998  11.281   3.336  0.00  0.00    +0.099 A 
ATOM     15  C   UNL     1       4.012  12.109   3.671  0.00  0.00    -0.034 A 
ATOM     16  C   UNL     1       4.316  13.212   2.861  0.00  0.00    +0.008 A 
ATOM     17  C   UNL     1       3.581  13.442   1.736  0.00  0.00    +0.047 A 
ATOM     18  C   UNL     1       2.530  12.569   1.403  0.00  0.00    +0.142 A 
ATOM     19  N   UNL     1       1.817  12.802   0.300  0.00  0.00    -0.214 NA
ATOM     20  C   UNL     1       4.818  11.847   4.917  0.00  0.00    +0.045 C 
BRANCH   9  21
ATOM     21  N   UNL     1       0.106  12.275  -1.211  0.00  0.00    -0.328 N 
ATOM     22  H   UNL     1      -0.725  11.617  -1.507  0.00  0.00    +0.147 HD
BRANCH  21  23
ATOM     23  C   UNL     1       0.453  13.433  -2.039  0.00  0.00    +0.102 C 
BRANCH  23  25
ATOM     24  C   UNL     1      -0.122  14.707  -4.109  0.00  0.00    +0.005 C 
ATOM     25  C   UNL     1      -0.486  13.498  -3.245  0.00  0.00    +0.015 C 
ENDBRANCH  23  25
ENDBRANCH  21  23
ENDBRANCH   9  21
ENDBRANCH   1  10
BRANCH   5  26
ATOM     26  C   UNL     1      -5.347   9.967  -0.846  0.00  0.00    +0.150 C 
BRANCH  26  27
ATOM     27  C   UNL     1      -6.107   9.399   0.324  0.00  0.00    -0.026 A 
ATOM     28  C   UNL     1      -5.870   8.101   0.736  0.00  0.00    +0.009 A 
ATOM     29  C   UNL     1      -6.564   7.575   1.809  0.00  0.00    +0.050 A 
ATOM     30  C   UNL     1      -7.501   8.349   2.475  0.00  0.00    +0.166 A 
ATOM     31  C   UNL     1      -7.740   9.657   2.060  0.00  0.00    +0.167 A 
ATOM     32  C   UNL     1      -7.040  10.177   0.984  0.00  0.00    +0.054 A 
ATOM     33  O   UNL     1      -8.695  10.206   2.870  0.00  0.00    -0.453 OA
ATOM     34  C   UNL     1      -8.744   9.357   4.032  0.00  0.00    +0.466 C 
ATOM     35  O   UNL     1      -8.307   8.076   3.542  0.00  0.00    -0.453 OA
ENDBRANCH  26  27
ENDBRANCH   5  26
TORSDOF 6
