REMARK  Name = ZINC33281229
REMARK  9 active torsions:
REMARK  status: ('A' for Active; 'I' for Inactive)
REMARK    1  A    between atoms: C_1  and  C_2
REMARK    2  A    between atoms: N_10  and  C_11
REMARK    3  A    between atoms: C_11  and  C_12
REMARK    4  A    between atoms: N_14  and  C_15
REMARK    5  A    between atoms: C_15  and  C_16
REMARK    6  A    between atoms: C_16  and  C_17
REMARK    7  A    between atoms: N_25  and  C_28
REMARK    8  A    between atoms: C_28  and  C_29
REMARK    9  A    between atoms: C_31  and  C_34
REMARK                            x       y       z     vdW  Elec       q    Type
REMARK                         _______ _______ _______ _____ _____    ______ ____
ROOT
ATOM      1  C   UNL     1       0.093  -3.958   4.023  0.00  0.00    +0.044 C 
ATOM      2  C   UNL     1       0.069  -2.854   2.998  0.00  0.00    -0.050 A 
ATOM      3  C   UNL     1       0.054  -1.529   3.411  0.00  0.00    +0.005 A 
ATOM      4  C   UNL     1       0.032  -0.506   2.489  0.00  0.00    +0.027 A 
ATOM      5  C   UNL     1       0.023  -0.799   1.127  0.00  0.00    +0.052 A 
ATOM      6  C   UNL     1       0.038  -2.143   0.715  0.00  0.00    +0.026 A 
ATOM      7  C   UNL     1       0.061  -3.164   1.667  0.00  0.00    +0.015 A 
ATOM      8  C   UNL     1       0.024  -2.129  -0.754  0.00  0.00    +0.103 A 
ATOM      9  C   UNL     1      -0.004  -0.789  -1.135  0.00  0.00    +0.134 A 
ATOM     10  N   UNL     1       0.002  -0.004   0.002  0.00  0.00    -0.325 N 
ATOM     11  C   UNL     1      -0.014  -0.487  -2.517  0.00  0.00    +0.279 A 
ATOM     12  O   UNL     1      -0.033   0.670  -2.902  0.00  0.00    -0.265 OA
ATOM     13  N   UNL     1      -0.008  -1.510  -3.399  0.00  0.00    -0.288 N 
ATOM     14  C   UNL     1       0.013  -2.795  -2.962  0.00  0.00    +0.203 A 
ATOM     15  N   UNL     1       0.029  -3.091  -1.694  0.00  0.00    -0.235 NA
ENDROOT
BRANCH  10  16
ATOM     16  C   UNL     1      -0.018   1.461   0.010  0.00  0.00    +0.218 C 
BRANCH  16  17
ATOM     17  C   UNL     1       1.396   1.982  -0.001  0.00  0.00    +0.233 C 
ATOM     18  O   UNL     1       2.328   1.207  -0.014  0.00  0.00    -0.274 OA
ATOM     19  N   UNL     1       1.624   3.311   0.004  0.00  0.00    -0.314 N 
ATOM     20  H   UNL     1       0.779   4.014   0.016  0.00  0.00    +0.149 HD
BRANCH  19  21
ATOM     21  C   UNL     1       2.999   3.818  -0.006  0.00  0.00    +0.108 C 
BRANCH  21  22
ATOM     22  C   UNL     1       2.978   5.348   0.002  0.00  0.00    +0.049 C 
BRANCH  22  23
ATOM     23  C   UNL     1       4.392   5.869  -0.008  0.00  0.00    -0.072 C 
ATOM     24  C   UNL     1       4.916   6.179  -1.151  0.00  0.00    -0.028 C 
ATOM     25  C   UNL     1       6.313   6.700  -1.321  0.00  0.00    +0.027 C 
ATOM     26  C   UNL     1       6.854   7.206   0.018  0.00  0.00    +0.004 C 
ATOM     27  C   UNL     1       6.612   6.124   1.078  0.00  0.00    +0.005 C 
ATOM     28  C   UNL     1       5.102   6.003   1.307  0.00  0.00    +0.030 C 
ENDBRANCH  22  23
ENDBRANCH  21  22
ENDBRANCH  19  21
ENDBRANCH  16  17
ENDBRANCH  10  16
BRANCH  13  29
ATOM     29  C   UNL     1      -0.024  -1.230  -4.837  0.00  0.00    +0.225 C 
BRANCH  29  30
ATOM     30  C   UNL     1      -1.451  -1.154  -5.317  0.00  0.00    +0.247 A 
ATOM     31  N   UNL     1      -2.202  -0.081  -5.365  0.00  0.00    -0.194 NA
ATOM     32  C   UNL     1      -3.385  -0.489  -5.858  0.00  0.00    +0.175 A 
ATOM     33  N   UNL     1      -3.295  -1.766  -6.080  0.00  0.00    -0.061 NA
ATOM     34  O   UNL     1      -2.189  -2.167  -5.782  0.00  0.00    -0.336 OA
BRANCH  32  35
ATOM     35  C   UNL     1      -4.594   0.376  -6.106  0.00  0.00    +0.060 C 
ATOM     36  C   UNL     1      -5.901  -0.327  -6.481  0.00  0.00    +0.012 C 
ATOM     37  C   UNL     1      -5.123   0.457  -7.540  0.00  0.00    +0.012 C 
ENDBRANCH  32  35
ENDBRANCH  29  30
ENDBRANCH  13  29
TORSDOF 8
