REMARK  Name = ZINC40668427
REMARK  5 active torsions:
REMARK  status: ('A' for Active; 'I' for Inactive)
REMARK    1  A    between atoms: C_1  and  C_2
REMARK    2  A    between atoms: C_2  and  C_3
REMARK    3  A    between atoms: C_3  and  C_11
REMARK    4  A    between atoms: C_4  and  C_5
REMARK    5  A    between atoms: N_13  and  C_14
REMARK                            x       y       z     vdW  Elec       q    Type
REMARK                         _______ _______ _______ _____ _____    ______ ____
ROOT
ATOM      1  C   UNL     1      -2.371  -0.945   1.406  0.00  0.00    +0.244 C 
ATOM      2  O   UNL     1      -3.528  -1.320   1.361  0.00  0.00    -0.270 OA
ATOM      3  N   UNL     1      -1.804  -0.648   2.592  0.00  0.00    -0.279 N 
ATOM      4  H   UNL     1      -0.906  -0.282   2.622  0.00  0.00    +0.155 HD
ENDROOT
BRANCH   3   5
ATOM      5  C   UNL     1      -2.511  -0.867   3.780  0.00  0.00    +0.078 A 
ATOM      6  C   UNL     1      -3.411  -1.921   3.872  0.00  0.00    +0.027 A 
ATOM      7  C   UNL     1      -4.109  -2.139   5.045  0.00  0.00    +0.004 A 
ATOM      8  C   UNL     1      -3.917  -1.309   6.134  0.00  0.00    +0.027 A 
ATOM      9  C   UNL     1      -3.022  -0.254   6.052  0.00  0.00    +0.078 A 
ATOM     10  C   UNL     1      -2.312  -0.034   4.874  0.00  0.00    +0.163 A 
ATOM     11  O   UNL     1      -1.433   1.003   4.806  0.00  0.00    -0.479 OA
ATOM     12  C   UNL     1      -1.757   2.171   5.564  0.00  0.00    +0.325 C 
ATOM     13  C   UNL     1      -2.180   1.771   6.955  0.00  0.00    +0.255 C 
ATOM     14  O   UNL     1      -1.960   2.506   7.894  0.00  0.00    -0.272 OA
ATOM     15  N   UNL     1      -2.814   0.597   7.147  0.00  0.00    -0.280 N 
ATOM     16  H   UNL     1      -3.112   0.340   8.034  0.00  0.00    +0.155 HD
ENDBRANCH   3   5
BRANCH   1  17
ATOM     17  C   UNL     1      -1.595  -0.817   0.171  0.00  0.00    +0.015 C 
ATOM     18  C   UNL     1      -2.162  -1.115  -1.015  0.00  0.00    +0.016 C 
BRANCH  18  19
ATOM     19  C   UNL     1      -1.338  -1.157  -2.235  0.00  0.00    -0.025 A 
ATOM     20  C   UNL     1      -1.504  -2.194  -3.159  0.00  0.00    +0.008 A 
ATOM     21  C   UNL     1      -0.728  -2.227  -4.298  0.00  0.00    +0.001 A 
ATOM     22  C   UNL     1       0.212  -1.237  -4.529  0.00  0.00    +0.000 A 
ATOM     23  C   UNL     1       0.382  -0.208  -3.619  0.00  0.00    +0.001 A 
ATOM     24  C   UNL     1      -0.390  -0.158  -2.478  0.00  0.00    +0.008 A 
ENDBRANCH  18  19
BRANCH  17  26
ATOM     25  C   UNL     1      -0.124   1.173   0.327  0.00  0.00    +0.009 C 
ATOM     26  C   UNL     1      -0.162  -0.353   0.226  0.00  0.00    +0.037 C 
ENDBRANCH  17  26
ENDBRANCH   1  17
TORSDOF 4
