REMARK  Name = ZINC38651597
REMARK  7 active torsions:
REMARK  status: ('A' for Active; 'I' for Inactive)
REMARK    1  A    between atoms: C_6  and  C_7
REMARK    2  A    between atoms: C_8  and  C_9
REMARK    3  A    between atoms: C_9  and  O_11
REMARK    4  A    between atoms: O_11  and  C_12
REMARK    5  A    between atoms: C_19  and  N_32
REMARK    6  A    between atoms: C_20  and  C_30
REMARK    7  A    between atoms: C_21  and  C_23
REMARK                            x       y       z     vdW  Elec       q    Type
REMARK                         _______ _______ _______ _____ _____    ______ ____
ROOT
ATOM      1  C   UNL     1      -3.704  -4.779  -0.021  0.00  0.00    +0.135 A 
ATOM      2  C   UNL     1      -4.836  -3.979  -0.083  0.00  0.00    +0.047 A 
ATOM      3  C   UNL     1      -6.089  -4.559  -0.108  0.00  0.00    +0.012 A 
ATOM      4  C   UNL     1      -6.222  -5.936  -0.072  0.00  0.00    +0.008 A 
ATOM      5  C   UNL     1      -5.094  -6.739  -0.010  0.00  0.00    +0.138 A 
ATOM      6  C   UNL     1      -3.833  -6.158   0.011  0.00  0.00    +0.093 A 
ATOM      7  O   UNL     1      -5.203  -8.090   0.026  0.00  0.00    -0.441 OA
ATOM      8  C   UNL     1      -6.366  -8.659   0.386  0.00  0.00    +0.199 C 
ATOM      9  C   UNL     1      -7.537  -7.981   0.349  0.00  0.00    +0.098 C 
ATOM     10  C   UNL     1      -7.597  -6.548  -0.101  0.00  0.00    +0.098 C 
ENDROOT
BRANCH  10  11
ATOM     11  C   UNL     1      -8.141  -6.488  -1.505  0.00  0.00    -0.035 A 
ATOM     12  C   UNL     1      -7.472  -7.126  -2.533  0.00  0.00    +0.005 A 
ATOM     13  C   UNL     1      -7.971  -7.072  -3.821  0.00  0.00    +0.015 A 
ATOM     14  C   UNL     1      -9.139  -6.378  -4.082  0.00  0.00    +0.018 A 
ATOM     15  C   UNL     1      -9.808  -5.740  -3.053  0.00  0.00    +0.015 A 
ATOM     16  C   UNL     1      -9.311  -5.799  -1.764  0.00  0.00    +0.005 A 
ATOM     17 BR   UNL     1      -9.821  -6.302  -5.843  0.00  0.00    -0.050 Br
ENDBRANCH  10  11
BRANCH   8  18
ATOM     18  N   UNL     1      -6.366  -9.967   0.803  0.00  0.00    -0.328 N 
ATOM     19  H   UNL     1      -5.535 -10.466   0.834  0.00  0.00    +0.145 HD
ATOM     20  H   UNL     1      -7.198 -10.392   1.066  0.00  0.00    +0.145 HD
ENDBRANCH   8  18
BRANCH   9  21
ATOM     21  C   UNL     1      -8.744  -8.643   0.745  0.00  0.00    +0.101 C 
ATOM     22  N   UNL     1      -9.701  -9.168   1.060  0.00  0.00    -0.191 NA
ENDBRANCH   9  21
BRANCH   1  23
ATOM     23  O   UNL     1      -2.470  -4.210   0.004  0.00  0.00    -0.423 OA
BRANCH  23  24
ATOM     24  C   UNL     1      -1.745  -4.219  -1.134  0.00  0.00    +0.337 C 
ATOM     25  O   UNL     1      -2.162  -4.804  -2.116  0.00  0.00    -0.245 OA
BRANCH  24  27
ATOM     26  C   UNL     1       0.266  -3.536  -2.326  0.00  0.00    +0.015 C 
ATOM     27  C   UNL     1      -0.459  -3.527  -1.188  0.00  0.00    +0.092 C 
BRANCH  26  33
ATOM     28  C   UNL     1       2.314  -2.846  -3.558  0.00  0.00    +0.009 A 
ATOM     29  C   UNL     1       3.525  -2.190  -3.602  0.00  0.00    +0.020 A 
ATOM     30  C   UNL     1       3.997  -1.525  -2.481  0.00  0.00    +0.041 A 
ATOM     31  C   UNL     1       3.256  -1.514  -1.310  0.00  0.00    +0.020 A 
ATOM     32  C   UNL     1       2.043  -2.166  -1.253  0.00  0.00    +0.009 A 
ATOM     33  C   UNL     1       1.560  -2.838  -2.380  0.00  0.00    -0.025 A 
ATOM     34 CL   UNL     1       5.524  -0.702  -2.545  0.00  0.00    -0.084 Cl
ENDBRANCH  26  33
ENDBRANCH  24  27
ENDBRANCH  23  24
ENDBRANCH   1  23
TORSDOF 7
