REMARK  Name = ZINC09963344
REMARK  9 active torsions:
REMARK  status: ('A' for Active; 'I' for Inactive)
REMARK    1  A    between atoms: C_1  and  N_73
REMARK    2  A    between atoms: C_2  and  C_3
REMARK    3  A    between atoms: C_2  and  N_73
REMARK    4  A    between atoms: C_3  and  N_4
REMARK    5  A    between atoms: C_5  and  C_7
REMARK    6  A    between atoms: C_7  and  N_8
REMARK    7  A    between atoms: C_11  and  S_19
REMARK    8  A    between atoms: S_19  and  N_22
REMARK    9  A    between atoms: C_29  and  N_73
REMARK                            x       y       z     vdW  Elec       q    Type
REMARK                         _______ _______ _______ _____ _____    ______ ____
ROOT
ATOM      1  N   UNL     1       7.438   2.147   4.012  0.00  0.00    -0.256 N 
ATOM      2  C   UNL     1       8.582   1.629   3.388  0.00  0.00    +0.081 A 
ATOM      3  C   UNL     1       8.473   0.639   2.423  0.00  0.00    +0.055 A 
ATOM      4  C   UNL     1       9.613   0.145   1.816  0.00  0.00    +0.107 A 
ATOM      5  C   UNL     1      10.857   0.638   2.164  0.00  0.00    +0.032 A 
ATOM      6  C   UNL     1      10.970   1.630   3.121  0.00  0.00    +0.049 A 
ATOM      7  C   UNL     1       9.835   2.130   3.734  0.00  0.00    +0.143 A 
ATOM      8  O   UNL     1       9.928   3.105   4.677  0.00  0.00    -0.481 OA
ATOM      9  C   UNL     1       8.850   4.043   4.740  0.00  0.00    +0.325 C 
ATOM     10  C   UNL     1       7.535   3.308   4.697  0.00  0.00    +0.258 C 
ATOM     11  O   UNL     1       6.567   3.757   5.274  0.00  0.00    -0.271 OA
ENDROOT
BRANCH   4  12
ATOM     12  S   UNL     1       9.479  -1.119   0.595  0.00  0.00    +0.061 S 
ATOM     13  O   UNL     1       8.168  -1.025   0.055  0.00  0.00    -0.153 OA
ATOM     14  O   UNL     1      10.644  -1.027  -0.214  0.00  0.00    -0.153 OA
BRANCH  12  15
ATOM     15  N   UNL     1       9.564  -2.572   1.383  0.00  0.00    -0.177 NA
ATOM     16  C   UNL     1      10.860  -3.185   1.571  0.00  0.00    +0.109 C 
ATOM     17  C   UNL     1      11.195  -4.085   0.363  0.00  0.00    +0.017 C 
ATOM     18  C   UNL     1      10.353  -5.291   0.376  0.00  0.00    +0.001 C 
ATOM     19  C   UNL     1       8.859  -5.014   0.240  0.00  0.00    +0.001 C 
ATOM     20  C   UNL     1       8.280  -4.710   1.600  0.00  0.00    +0.017 C 
ATOM     21  C   UNL     1       8.312  -3.193   1.860  0.00  0.00    +0.109 C 
ENDBRANCH  12  15
ENDBRANCH   4  12
BRANCH   1  22
ATOM     22  C   UNL     1       6.159   1.438   3.928  0.00  0.00    +0.209 C 
BRANCH  22  24
ATOM     23  N   UNL     1       4.184   1.401   2.439  0.00  0.00    -0.316 N 
ATOM     24  C   UNL     1       5.397   1.918   2.719  0.00  0.00    +0.231 C 
ATOM     25  O   UNL     1       5.876   2.768   1.999  0.00  0.00    -0.274 OA
ATOM     26  H   UNL     1       3.802   0.721   3.015  0.00  0.00    +0.149 HD
BRANCH  23  27
ATOM     27  C   UNL     1       3.444   1.868   1.264  0.00  0.00    +0.086 C 
BRANCH  27  28
ATOM     28  C   UNL     1       2.108   1.127   1.176  0.00  0.00    -0.060 C 
BRANCH  28  30
ATOM     29  C   UNL     1       2.056   1.218  -1.243  0.00  0.00    -0.096 C 
ATOM     30  N   UNL     1       1.364   1.623  -0.001  0.00  0.00    +0.381 N 
ATOM     31  H   UNL     1       1.323   2.648   0.038  0.00  0.00    -0.082 HD
BRANCH  30  32
ATOM     32  C   UNL     1      -0.013   1.086   0.008  0.00  0.00    -0.069 C 
ATOM     33  C   UNL     1      -0.729   1.579   1.267  0.00  0.00    -0.015 C 
ATOM     34  C   UNL     1      -2.164   1.050   1.278  0.00  0.00    -0.002 C 
ATOM     35  C   UNL     1      -2.904   1.556   0.038  0.00  0.00    -0.000 C 
ATOM     36  C   UNL     1      -2.188   1.063  -1.221  0.00  0.00    -0.002 C 
ATOM     37  C   UNL     1      -0.753   1.593  -1.232  0.00  0.00    -0.015 C 
ENDBRANCH  30  32
ENDBRANCH  28  30
ENDBRANCH  27  28
ENDBRANCH  23  27
ENDBRANCH  22  24
ENDBRANCH   1  22
TORSDOF 8
