REMARK  Name = ZINC35656021
REMARK  13 active torsions:
REMARK  status: ('A' for Active; 'I' for Inactive)
REMARK    1  A    between atoms: C_1  and  O_2
REMARK    2  A    between atoms: O_2  and  C_3
REMARK    3  A    between atoms: C_6  and  C_11
REMARK    4  A    between atoms: C_8  and  O_9
REMARK    5  A    between atoms: O_9  and  C_10
REMARK    6  A    between atoms: N_15  and  C_19
REMARK    7  A    between atoms: C_19  and  C_20
REMARK    8  A    between atoms: C_20  and  C_21
REMARK    9  A    between atoms: N_23  and  CA_24
REMARK   10  A    between atoms: CA_24  and  CB_26
REMARK   11  A    between atoms: CA_24  and  C_31
REMARK   12  A    between atoms: CB_26  and  CG_27
REMARK   13  A    between atoms: CG_27  and  CD_28
REMARK                            x       y       z     vdW  Elec       q    Type
REMARK                         _______ _______ _______ _____ _____    ______ ____
ROOT
ATOM      1  C   UNK A   0      -4.957  -2.611   0.035  0.00  0.00    +0.028 C 
ATOM      2  C   UNK A   0      -6.100  -1.888   0.148  0.00  0.00    +0.077 C 
ATOM      3  C   UNK A   0      -7.496  -2.350   0.285  0.00  0.00    +0.258 C 
ATOM      4  O   UNK A   0      -7.778  -3.534   0.312  0.00  0.00    -0.269 OA
ATOM      5  N   UNK A   0      -8.424  -1.412   0.376  0.00  0.00    -0.255 N 
ATOM      6  C   UNK A   0      -8.107  -0.102   0.346  0.00  0.00    +0.121 C 
ATOM      7  S   UNK A   0      -9.155   1.248   0.449  0.00  0.00    -0.027 S 
ATOM      8  S   UNK A   0      -6.330  -0.115   0.179  0.00  0.00    -0.061 S 
ENDROOT
BRANCH   1  12
ATOM      9  C   UNK A   0      -1.193  -0.655   0.187  0.00  0.00    +0.162 A 
ATOM     10  C   UNK A   0      -2.354   0.050   0.476  0.00  0.00    +0.050 A 
ATOM     11  C   UNK A   0      -3.578  -0.580   0.428  0.00  0.00    +0.012 A 
ATOM     12  C   UNK A   0      -3.653  -1.936   0.087  0.00  0.00    -0.020 A 
ATOM     13  C   UNK A   0      -2.482  -2.646  -0.205  0.00  0.00    +0.057 A 
ATOM     14  C   UNK A   0      -1.261  -2.004  -0.159  0.00  0.00    +0.162 A 
BRANCH   9  16
ATOM     15  C   UNK A   0       0.007   1.355   0.598  0.00  0.00    +0.277 C 
ATOM     16  O   UNK A   0       0.011  -0.028   0.236  0.00  0.00    -0.491 OA
ENDBRANCH   9  16
BRANCH  14  17
ATOM     17  O   UNK A   0      -0.122  -2.690  -0.446  0.00  0.00    -0.491 OA
ATOM     18  C   UNK A   0      -0.264  -4.069  -0.793  0.00  0.00    +0.277 C 
ENDBRANCH  14  17
ENDBRANCH   1  12
BRANCH   5  19
ATOM     19  C   UNK A   0      -9.828  -1.806   0.513  0.00  0.00    +0.124 C 
BRANCH  19  20
ATOM     20  C   UNK A   0     -10.177  -1.945   1.997  0.00  0.00    +0.115 C 
BRANCH  20  21
ATOM     21  C   UNK A   0     -11.621  -2.350   2.138  0.00  0.00    +0.215 C 
ATOM     22  O   UNK A   0     -12.305  -2.512   1.149  0.00  0.00    -0.276 OA
ATOM     23  N   GLN A   1     -12.154  -2.532   3.362  0.00  0.00    -0.302 N 
ATOM     24  H   GLN A   1     -11.607  -2.402   4.153  0.00  0.00    +0.150 HD
BRANCH  23  25
ATOM     25  CA  GLN A   1     -13.558  -2.926   3.499  0.00  0.00    +0.187 C 
BRANCH  25  26
ATOM     26  C   GLN A   1     -13.673  -4.424   3.385  0.00  0.00    +0.376 C 
ATOM     27  O   GLN A   1     -12.668  -5.115   3.389  0.00  0.00    -0.244 OA
ATOM     28  OXT GLN A   1     -14.771  -4.946   3.289  0.00  0.00    -0.244 OA
ENDBRANCH  25  26
BRANCH  25  29
ATOM     29  CB  GLN A   1     -14.083  -2.477   4.865  0.00  0.00    +0.043 C 
BRANCH  29  30
ATOM     30  CG  GLN A   1     -14.083  -0.948   4.934  0.00  0.00    +0.098 C 
BRANCH  30  31
ATOM     31  CD  GLN A   1     -14.600  -0.506   6.278  0.00  0.00    +0.211 C 
ATOM     32  OE1 GLN A   1     -14.935  -1.332   7.101  0.00  0.00    -0.276 OA
ATOM     33  NE2 GLN A   1     -14.689   0.807   6.567  0.00  0.00    -0.329 N 
ATOM     34 HE21 GLN A   1     -14.421   1.468   5.909  0.00  0.00    +0.145 HD
ATOM     35 HE22 GLN A   1     -15.022   1.092   7.433  0.00  0.00    +0.145 HD
ENDBRANCH  30  31
ENDBRANCH  29  30
ENDBRANCH  25  29
ENDBRANCH  23  25
ENDBRANCH  20  21
ENDBRANCH  19  20
ENDBRANCH   5  19
TORSDOF 11
