REMARK  Name = ZINC38826853
REMARK  7 active torsions:
REMARK  status: ('A' for Active; 'I' for Inactive)
REMARK    1  A    between atoms: C_1  and  C_2
REMARK    2  A    between atoms: C_4  and  C_36
REMARK    3  A    between atoms: C_6  and  N_8
REMARK    4  A    between atoms: C_12  and  C_17
REMARK    5  A    between atoms: C_13  and  C_15
REMARK    6  A    between atoms: C_19  and  C_24
REMARK    7  A    between atoms: C_21  and  N_23
REMARK                            x       y       z     vdW  Elec       q    Type
REMARK                         _______ _______ _______ _____ _____    ______ ____
ROOT
ATOM      1  N   UNL     1       0.075  -3.649   2.265  0.00  0.00    -0.297 N 
ATOM      2  C   UNL     1      -0.164  -4.849   2.915  0.00  0.00    +0.148 A 
ATOM      3  C   UNL     1      -0.155  -4.694   4.303  0.00  0.00    +0.093 A 
ATOM      4  N   UNL     1      -0.364  -5.722   5.098  0.00  0.00    -0.234 NA
ATOM      5  C   UNL     1      -0.588  -6.930   4.586  0.00  0.00    +0.176 A 
ATOM      6  C   UNL     1      -0.600  -7.099   3.190  0.00  0.00    +0.178 A 
ATOM      7  N   UNL     1      -0.388  -6.056   2.396  0.00  0.00    -0.217 NA
ATOM      8  C   UNL     1       0.118  -3.239   4.617  0.00  0.00    +0.112 C 
ATOM      9  C   UNL     1       0.273  -2.573   3.240  0.00  0.00    +0.037 C 
ENDROOT
BRANCH   8  10
ATOM     10  C   UNL     1       1.392  -3.102   5.410  0.00  0.00    +0.142 A 
ATOM     11  N   UNL     1       1.368  -2.391   6.527  0.00  0.00    -0.193 NA
ATOM     12  C   UNL     1       2.452  -2.232   7.270  0.00  0.00    +0.281 A 
ATOM     13  O   UNL     1       2.413  -1.503   8.409  0.00  0.00    -0.265 OA
ATOM     14  C   UNL     1       3.652  -2.845   6.841  0.00  0.00    +0.068 A 
ATOM     15  C   UNL     1       4.846  -2.731   7.564  0.00  0.00    +0.030 A 
ATOM     16  C   UNL     1       5.973  -3.345   7.101  0.00  0.00    +0.019 A 
ATOM     17  C   UNL     1       5.951  -4.083   5.920  0.00  0.00    +0.017 A 
ATOM     18  C   UNL     1       4.805  -4.214   5.194  0.00  0.00    +0.029 A 
ATOM     19  C   UNL     1       3.629  -3.596   5.640  0.00  0.00    +0.078 A 
ATOM     20  N   UNL     1       2.474  -3.697   4.967  0.00  0.00    -0.231 NA
ATOM     21 BR   UNL     1       7.586  -3.191   8.075  0.00  0.00    -0.050 Br
ENDBRANCH   8  10
BRANCH   1  27
ATOM     22  C   UNL     1       0.702  -0.725  -1.636  0.00  0.00    +0.044 C 
ATOM     23  C   UNL     1       0.428  -2.082  -1.041  0.00  0.00    -0.048 A 
ATOM     24  C   UNL     1       0.226  -3.171  -1.869  0.00  0.00    +0.006 A 
ATOM     25  C   UNL     1      -0.026  -4.418  -1.328  0.00  0.00    -0.048 A 
ATOM     26  C   UNL     1      -0.077  -4.580   0.043  0.00  0.00    +0.026 A 
ATOM     27  C   UNL     1       0.126  -3.489   0.878  0.00  0.00    +0.034 A 
ATOM     28  C   UNL     1       0.384  -2.238   0.330  0.00  0.00    +0.026 A 
ATOM     29  C   UNL     1      -0.246  -5.602  -2.234  0.00  0.00    +0.044 C 
ENDBRANCH   1  27
BRANCH   9  30
ATOM     30  N   UNL     1       1.617  -1.998   3.097  0.00  0.00    +0.391 N 
ATOM     31  H   UNL     1       1.684  -1.515   2.213  0.00  0.00    -0.087 HD
ATOM     32  H   UNL     1       1.786  -1.347   3.849  0.00  0.00    -0.087 HD
ATOM     33  H   UNL     1       2.304  -2.736   3.130  0.00  0.00    -0.087 HD
ENDBRANCH   9  30
BRANCH   6  34
ATOM     34  C   UNL     1      -0.839  -8.393   2.626  0.00  0.00    +0.122 C 
ATOM     35  N   UNL     1      -1.029  -9.419   2.178  0.00  0.00    -0.189 NA
ENDBRANCH   6  34
BRANCH   5  36
ATOM     36  C   UNL     1      -0.815  -8.050   5.449  0.00  0.00    +0.122 C 
ATOM     37  N   UNL     1      -0.995  -8.938   6.135  0.00  0.00    -0.189 NA
ENDBRANCH   5  36
TORSDOF 5
