REMARK  Name = ZINC64538962
REMARK  11 active torsions:
REMARK  status: ('A' for Active; 'I' for Inactive)
REMARK    1  A    between atoms: C_1  and  C_2
REMARK    2  A    between atoms: C_8  and  C_11
REMARK    3  A    between atoms: C_11  and  C_12
REMARK    4  A    between atoms: C_12  and  N_13
REMARK    5  A    between atoms: C_14  and  C_16
REMARK    6  A    between atoms: C_23  and  C_25
REMARK    7  A    between atoms: C_26  and  C_36
REMARK    8  A    between atoms: C_27  and  C_32
REMARK    9  A    between atoms: C_29  and  C_31
REMARK   10  A    between atoms: C_32  and  O_34
REMARK   11  A    between atoms: O_34  and  C_35
REMARK                            x       y       z     vdW  Elec       q    Type
REMARK                         _______ _______ _______ _____ _____    ______ ____
ROOT
ATOM      1  C   UNL     1      -2.802  -2.760   7.887  0.00  0.00    +0.092 C 
ATOM      2  C   UNL     1      -4.158  -3.140   8.486  0.00  0.00    +0.016 C 
ATOM      3  C   UNL     1      -4.151  -2.856   9.990  0.00  0.00    +0.020 C 
ATOM      4  C   UNL     1      -3.070  -3.709  10.661  0.00  0.00    +0.108 C 
ATOM      5  N   UNL     1      -1.786  -3.457   9.993  0.00  0.00    -0.296 N 
ATOM      6  C   UNL     1      -1.705  -3.611   8.535  0.00  0.00    +0.120 C 
ATOM      7  C   UNL     1      -0.702  -3.090  10.706  0.00  0.00    +0.265 C 
ATOM      8  O   UNL     1       0.382  -3.007  10.163  0.00  0.00    -0.268 OA
ENDROOT
BRANCH   7   9
ATOM      9  C   UNL     1      -0.832  -2.788  12.147  0.00  0.00    +0.126 C 
ATOM     10  C   UNL     1       0.208  -2.547  12.963  0.00  0.00    -0.023 C 
ATOM     11  C   UNL     1      -0.412  -2.293  14.325  0.00  0.00    +0.169 C 
ATOM     12  C   UNL     1      -1.896  -2.444  14.059  0.00  0.00    +0.034 C 
ATOM     13  N   UNL     1      -2.022  -2.715  12.807  0.00  0.00    -0.250 NA
ATOM     14  C   UNL     1      -3.010  -2.298  15.065  0.00  0.00    +0.062 C 
ATOM     15  C   UNL     1       1.672  -2.532  12.604  0.00  0.00    +0.042 C 
BRANCH  11  16
ATOM     16  C   UNL     1      -0.091  -0.901  14.804  0.00  0.00    +0.320 C 
ATOM     17  O   UNL     1       0.578  -0.165  14.119  0.00  0.00    -0.250 OA
BRANCH  16  18
ATOM     18  O   UNL     1      -0.549  -0.478  15.993  0.00  0.00    -0.467 OA
ATOM     19  C   UNL     1      -0.208   0.853  16.385  0.00  0.00    +0.280 C 
ENDBRANCH  16  18
ENDBRANCH  11  16
ENDBRANCH   7   9
BRANCH   1  21
ATOM     20  N   UNL     1      -1.726  -2.746   5.660  0.00  0.00    -0.315 N 
ATOM     21  C   UNL     1      -2.821  -3.009   6.401  0.00  0.00    +0.218 C 
ATOM     22  O   UNL     1      -3.821  -3.446   5.872  0.00  0.00    -0.275 OA
ATOM     23  H   UNL     1      -0.926  -2.397   6.083  0.00  0.00    +0.149 HD
BRANCH  20  24
ATOM     24  C   UNL     1      -1.744  -2.989   4.215  0.00  0.00    +0.108 C 
BRANCH  24  25
ATOM     25  C   UNL     1      -0.388  -2.611   3.617  0.00  0.00    +0.052 C 
BRANCH  25  33
ATOM     26  C   UNL     1      -1.611   1.578   0.059  0.00  0.00    +0.044 C 
ATOM     27  C   UNL     1      -1.252   0.114   0.028  0.00  0.00    -0.050 A 
ATOM     28  C   UNL     1      -1.159  -0.539  -1.209  0.00  0.00    +0.005 A 
ATOM     29  C   UNL     1      -0.843  -1.847  -1.321  0.00  0.00    +0.026 A 
ATOM     30  C   UNL     1      -0.588  -2.627  -0.160  0.00  0.00    +0.043 A 
ATOM     31  N   UNL     1      -0.270  -3.889  -0.009  0.00  0.00    -0.380 N 
ATOM     32  C   UNL     1      -0.124  -4.167   1.425  0.00  0.00    +0.144 C 
ATOM     33  C   UNL     1      -0.407  -2.860   2.131  0.00  0.00    -0.040 C 
ATOM     34  C   UNL     1      -0.680  -1.960   1.159  0.00  0.00    -0.001 A 
ATOM     35  C   UNL     1      -1.024  -0.533   1.193  0.00  0.00    +0.013 A 
ATOM     36  H   UNL     1      -0.151  -4.533  -0.725  0.00  0.00    +0.160 HD
ENDBRANCH  25  33
ENDBRANCH  24  25
ENDBRANCH  20  24
ENDBRANCH   1  21
TORSDOF 7
