REMARK  Name = ZINC39575940
REMARK  9 active torsions:
REMARK  status: ('A' for Active; 'I' for Inactive)
REMARK    1  A    between atoms: C_1  and  C_2
REMARK    2  A    between atoms: C_2  and  C_3
REMARK    3  A    between atoms: C_2  and  C_4
REMARK    4  A    between atoms: C_2  and  C_5
REMARK    5  A    between atoms: C_8  and  C_11
REMARK    6  A    between atoms: C_11  and  S_12
REMARK    7  A    between atoms: S_12  and  C_13
REMARK    8  A    between atoms: C_16  and  C_20
REMARK    9  A    between atoms: N_18  and  N_19
REMARK                            x       y       z     vdW  Elec       q    Type
REMARK                         _______ _______ _______ _____ _____    ______ ____
ROOT
ATOM      1  C   UNL     1       3.348  -1.370  -7.451  0.00  0.00    +0.189 C 
ATOM      2  N   UNL     1       3.973  -2.498  -7.403  0.00  0.00    -0.161 NA
ATOM      3  N   UNL     1       4.572  -2.805  -8.630  0.00  0.00    -0.243 N 
ATOM      4  C   UNL     1       4.249  -1.688  -9.535  0.00  0.00    +0.222 C 
ATOM      5  N   UNL     1       3.439  -0.782  -8.704  0.00  0.00    -0.223 N 
ATOM      6  H   UNL     1       5.095  -3.594  -8.842  0.00  0.00    +0.170 HD
ENDROOT
BRANCH   4   7
ATOM      7  C   UNL     1       5.528  -0.994 -10.009  0.00  0.00    +0.197 C 
ATOM      8  C   UNL     1       6.376  -1.939 -10.836  0.00  0.00    -0.017 C 
ATOM      9  C   UNL     1       7.517  -2.052 -10.159  0.00  0.00    +0.065 C 
ATOM     10  C   UNL     1       8.463  -2.983 -10.895  0.00  0.00    +0.057 C 
ATOM     11  C   UNL     1       7.572  -3.755 -11.893  0.00  0.00    +0.011 C 
ATOM     12  C   UNL     1       6.400  -2.767 -12.095  0.00  0.00    +0.035 C 
ATOM     13  N   UNL     1       7.461  -1.295  -9.029  0.00  0.00    -0.158 NA
ATOM     14  N   UNL     1       6.404  -0.677  -8.868  0.00  0.00    -0.176 NA
ENDBRANCH   4   7
BRANCH   5  15
ATOM     15  N   UNL     1       2.888   0.407  -9.089  0.00  0.00    -0.250 NA
ATOM     16  H   UNL     1       2.381   0.835  -8.329  0.00  0.00    +0.141 HD
ATOM     17  H   UNL     1       3.593   1.032  -9.451  0.00  0.00    +0.141 HD
ENDBRANCH   5  15
BRANCH   1  18
ATOM     18  S   UNL     1       2.476  -0.666  -6.091  0.00  0.00    -0.083 S 
BRANCH  18  19
ATOM     19  C   UNL     1       2.707  -1.868  -4.752  0.00  0.00    +0.112 C 
BRANCH  19  23
ATOM     20  C   UNL     1       0.707  -0.490  -1.238  0.00  0.00    -0.042 A 
ATOM     21  C   UNL     1       0.036  -1.284  -2.148  0.00  0.00    +0.004 A 
ATOM     22  C   UNL     1       0.683  -1.730  -3.286  0.00  0.00    +0.005 A 
ATOM     23  C   UNL     1       2.001  -1.381  -3.513  0.00  0.00    -0.037 A 
ATOM     24  C   UNL     1       2.672  -0.586  -2.603  0.00  0.00    +0.005 A 
ATOM     25  C   UNL     1       2.024  -0.137  -1.467  0.00  0.00    +0.004 A 
BRANCH  20  27
ATOM     26  C   UNL     1      -0.019   1.526   0.010  0.00  0.00    +0.015 C 
ATOM     27  C   UNL     1       0.002  -0.004   0.002  0.00  0.00    -0.013 C 
ATOM     28  C   UNL     1       0.742  -0.511   1.242  0.00  0.00    +0.015 C 
ATOM     29  C   UNL     1      -1.433  -0.534   0.013  0.00  0.00    +0.015 C 
ENDBRANCH  20  27
ENDBRANCH  19  23
ENDBRANCH  18  19
ENDBRANCH   1  18
TORSDOF 6
