REMARK  Name = ZINC63133728
REMARK  11 active torsions:
REMARK  status: ('A' for Active; 'I' for Inactive)
REMARK    1  A    between atoms: C_1  and  C_2
REMARK    2  A    between atoms: C_2  and  C_3
REMARK    3  A    between atoms: C_2  and  C_4
REMARK    4  A    between atoms: C_2  and  C_5
REMARK    5  A    between atoms: C_10  and  N_11
REMARK    6  A    between atoms: C_12  and  C_14
REMARK    7  A    between atoms: C_14  and  S_15
REMARK    8  A    between atoms: S_15  and  C_16
REMARK    9  A    between atoms: C_19  and  C_27
REMARK   10  A    between atoms: N_20  and  C_21
REMARK   11  A    between atoms: C_21  and  C_22
REMARK                            x       y       z     vdW  Elec       q    Type
REMARK                         _______ _______ _______ _____ _____    ______ ____
ROOT
ATOM      1  C   UNL     1      -2.240  -7.346  -0.337  0.00  0.00    +0.193 A 
ATOM      2  N   UNL     1      -2.853  -7.017   0.791  0.00  0.00    -0.122 NA
ATOM      3  N   UNL     1      -3.526  -8.018   1.236  0.00  0.00    -0.129 NA
ATOM      4  C   UNL     1      -3.385  -9.051   0.419  0.00  0.00    +0.164 A 
ATOM      5  N   UNL     1      -2.559  -8.640  -0.613  0.00  0.00    -0.295 N 
ENDROOT
BRANCH   4   6
ATOM      6  C   UNL     1      -3.966 -10.320   0.569  0.00  0.00    +0.025 C 
ATOM      7  C   UNL     1      -4.885 -10.717   1.540  0.00  0.00    +0.006 A 
ATOM      8  C   UNL     1      -5.494 -10.032   2.614  0.00  0.00    +0.010 A 
ATOM      9  C   UNL     1      -6.373 -10.684   3.417  0.00  0.00    +0.001 A 
ATOM     10  C   UNL     1      -6.695 -12.027   3.210  0.00  0.00    +0.002 A 
ATOM     11  C   UNL     1      -6.149 -12.746   2.200  0.00  0.00    +0.026 A 
ATOM     12  C   UNL     1      -5.222 -12.133   1.317  0.00  0.00    +0.043 A 
ATOM     13  N   UNL     1      -4.564 -12.605   0.278  0.00  0.00    -0.380 N 
ATOM     14  C   UNL     1      -3.731 -11.542  -0.292  0.00  0.00    +0.152 C 
ATOM     15  H   UNL     1      -4.624 -13.513  -0.060  0.00  0.00    +0.160 HD
ENDBRANCH   4   6
BRANCH   1  16
ATOM     16  S   UNL     1      -1.206  -6.299  -1.306  0.00  0.00    -0.077 S 
BRANCH  16  17
ATOM     17  C   UNL     1      -1.194  -4.730  -0.395  0.00  0.00    +0.173 C 
BRANCH  17  19
ATOM     18  N   UNL     1      -0.176  -2.488  -0.630  0.00  0.00    -0.285 N 
ATOM     19  C   UNL     1      -0.334  -3.731  -1.125  0.00  0.00    +0.227 C 
ATOM     20  O   UNL     1       0.216  -4.046  -2.159  0.00  0.00    -0.275 OA
ATOM     21  H   UNL     1      -0.584  -2.248   0.216  0.00  0.00    +0.155 HD
BRANCH  18  27
ATOM     22  C   UNL     1       0.349  -0.187  -1.144  0.00  0.00    -0.021 A 
ATOM     23  C   UNL     1       1.097   0.743  -1.839  0.00  0.00    +0.006 A 
ATOM     24  C   UNL     1       2.067   0.325  -2.731  0.00  0.00    +0.000 A 
ATOM     25  C   UNL     1       2.292  -1.026  -2.930  0.00  0.00    +0.002 A 
ATOM     26  C   UNL     1       1.548  -1.960  -2.238  0.00  0.00    +0.023 A 
ATOM     27  C   UNL     1       0.576  -1.543  -1.337  0.00  0.00    +0.037 A 
BRANCH  22  29
ATOM     28  C   UNL     1      -0.875   1.787  -0.276  0.00  0.00    +0.015 C 
ATOM     29  C   UNL     1      -0.708   0.270  -0.171  0.00  0.00    -0.011 C 
ATOM     30  C   UNL     1      -0.285  -0.100   1.252  0.00  0.00    +0.015 C 
ATOM     31  C   UNL     1      -2.035  -0.414  -0.503  0.00  0.00    +0.015 C 
ENDBRANCH  22  29
ENDBRANCH  18  27
ENDBRANCH  17  19
ENDBRANCH  16  17
ENDBRANCH   1  16
BRANCH   5  32
ATOM     32  C   UNL     1      -2.118  -9.435  -1.762  0.00  0.00    +0.200 C 
BRANCH  32  33
ATOM     33  C   UNL     1      -3.048  -9.196  -2.924  0.00  0.00    +0.125 A 
ATOM     34  C   UNL     1      -2.854  -8.312  -3.919  0.00  0.00    +0.046 A 
ATOM     35  C   UNL     1      -3.965  -8.420  -4.786  0.00  0.00    +0.041 A 
ATOM     36  C   UNL     1      -4.772  -9.364  -4.269  0.00  0.00    +0.195 A 
ATOM     37  O   UNL     1      -4.209  -9.835  -3.144  0.00  0.00    -0.466 OA
ENDBRANCH  32  33
ENDBRANCH   5  32
TORSDOF 8
