REMARK  Name = ZINC12652472
REMARK  10 active torsions:
REMARK  status: ('A' for Active; 'I' for Inactive)
REMARK    1  A    between atoms: C_1  and  C_2
REMARK    2  A    between atoms: C_2  and  C_3
REMARK    3  A    between atoms: C_3  and  N_4
REMARK    4  A    between atoms: C_20  and  C_25
REMARK    5  A    between atoms: C_27  and  O_35
REMARK    6  A    between atoms: C_28  and  O_33
REMARK    7  A    between atoms: C_29  and  O_31
REMARK    8  A    between atoms: O_31  and  C_32
REMARK    9  A    between atoms: O_33  and  C_34
REMARK   10  A    between atoms: O_35  and  C_36
REMARK                            x       y       z     vdW  Elec       q    Type
REMARK                         _______ _______ _______ _____ _____    ______ ____
ROOT
ATOM      1  N   UNL     1      -0.016   1.337   0.009  0.00  0.00    -0.224 N 
ATOM      2  C   UNL     1       1.230   1.852   0.000  0.00  0.00    +0.244 C 
ATOM      3  O   UNL     1       1.536   3.025  -0.012  0.00  0.00    -0.273 OA
ATOM      4  C   UNL     1       2.170   0.663   0.007  0.00  0.00    +0.169 C 
ATOM      5  C   UNL     1       3.000   0.655  -1.282  0.00  0.00    +0.069 C 
ATOM      6  C   UNL     1       3.432  -0.756  -1.591  0.00  0.00    -0.015 A 
ATOM      7  C   UNL     1       4.518  -1.176  -2.458  0.00  0.00    +0.003 A 
ATOM      8  C   UNL     1       5.446  -0.462  -3.222  0.00  0.00    +0.010 A 
ATOM      9  C   UNL     1       6.354  -1.199  -3.942  0.00  0.00    +0.001 A 
ATOM     10  C   UNL     1       6.361  -2.584  -3.918  0.00  0.00    +0.002 A 
ATOM     11  C   UNL     1       5.455  -3.315  -3.169  0.00  0.00    +0.026 A 
ATOM     12  C   UNL     1       4.520  -2.593  -2.429  0.00  0.00    +0.047 A 
ATOM     13  N   UNL     1       3.508  -2.984  -1.600  0.00  0.00    -0.356 N 
ATOM     14  H   UNL     1       3.278  -3.903  -1.395  0.00  0.00    +0.166 HD
ATOM     15  C   UNL     1       2.867  -1.881  -1.103  0.00  0.00    +0.046 A 
ATOM     16  C   UNL     1       1.699  -1.883  -0.137  0.00  0.00    +0.156 C 
ATOM     17  N   UNL     1       1.244  -0.490  -0.040  0.00  0.00    -0.261 N 
ATOM     18  C   UNL     1       0.002  -0.004   0.002  0.00  0.00    +0.313 C 
ATOM     19  O   UNL     1      -0.997  -0.696   0.030  0.00  0.00    -0.252 OA
ENDROOT
BRANCH  16  20
ATOM     20  C   UNL     1       0.590  -2.753  -0.669  0.00  0.00    -0.014 A 
ATOM     21  C   UNL     1      -0.229  -2.287  -1.681  0.00  0.00    +0.055 A 
ATOM     22  C   UNL     1      -1.247  -3.087  -2.176  0.00  0.00    +0.165 A 
ATOM     23  C   UNL     1      -1.452  -4.355  -1.647  0.00  0.00    +0.204 A 
ATOM     24  C   UNL     1      -0.631  -4.819  -0.625  0.00  0.00    +0.165 A 
ATOM     25  C   UNL     1       0.389  -4.014  -0.140  0.00  0.00    +0.055 A 
BRANCH  24  26
ATOM     26  O   UNL     1      -0.827  -6.059  -0.104  0.00  0.00    -0.491 OA
ATOM     27  C   UNL     1       0.055  -6.470   0.943  0.00  0.00    +0.277 C 
ENDBRANCH  24  26
BRANCH  23  28
ATOM     28  O   UNL     1      -2.454  -5.141  -2.126  0.00  0.00    -0.488 OA
ATOM     29  C   UNL     1      -3.729  -5.026  -1.491  0.00  0.00    +0.277 C 
ENDBRANCH  23  28
BRANCH  22  30
ATOM     30  O   UNL     1      -2.047  -2.629  -3.176  0.00  0.00    -0.491 OA
ATOM     31  C   UNL     1      -1.779  -1.316  -3.672  0.00  0.00    +0.277 C 
ENDBRANCH  22  30
ENDBRANCH  16  20
BRANCH   1  32
ATOM     32  C   UNL     1      -1.239   2.143   0.020  0.00  0.00    +0.118 C 
BRANCH  32  34
ATOM     33  C   UNL     1      -2.936   3.257   1.477  0.00  0.00    +0.005 C 
ATOM     34  C   UNL     1      -1.658   2.416   1.466  0.00  0.00    +0.016 C 
ENDBRANCH  32  34
ENDBRANCH   1  32
TORSDOF 6
