REMARK  Name = ZINC24835967
REMARK  8 active torsions:
REMARK  status: ('A' for Active; 'I' for Inactive)
REMARK    1  A    between atoms: N_9  and  C_12
REMARK    2  A    between atoms: C_12  and  C_13
REMARK    3  A    between atoms: C_13  and  C_14
REMARK    4  A    between atoms: C_14  and  S_15
REMARK    5  A    between atoms: S_15  and  C_16
REMARK    6  A    between atoms: C_19  and  C_28
REMARK    7  A    between atoms: N_20  and  C_21
REMARK    8  A    between atoms: C_28  and  N_29
REMARK                            x       y       z     vdW  Elec       q    Type
REMARK                         _______ _______ _______ _____ _____    ______ ____
ROOT
ATOM      1  C   UNL     1      -0.864   1.675   3.998  0.00  0.00    +0.196 A 
ATOM      2  N   UNL     1      -1.933   2.417   3.824  0.00  0.00    -0.122 NA
ATOM      3  N   UNL     1      -2.425   2.749   4.964  0.00  0.00    -0.135 NA
ATOM      4  C   UNL     1      -1.701   2.253   5.927  0.00  0.00    +0.122 A 
ATOM      5  N   UNL     1      -0.679   1.550   5.348  0.00  0.00    -0.276 N 
ENDROOT
BRANCH   5   6
ATOM      6  C   UNL     1       0.345   0.848   6.002  0.00  0.00    +0.050 A 
ATOM      7  C   UNL     1       0.040  -0.260   6.781  0.00  0.00    +0.029 A 
ATOM      8  C   UNL     1       1.050  -0.953   7.420  0.00  0.00    +0.040 A 
ATOM      9  C   UNL     1       2.364  -0.537   7.292  0.00  0.00    +0.124 A 
ATOM     10  C   UNL     1       2.670   0.571   6.520  0.00  0.00    +0.040 A 
ATOM     11  C   UNL     1       1.663   1.263   5.875  0.00  0.00    +0.029 A 
ATOM     12  F   UNL     1       3.350  -1.213   7.922  0.00  0.00    -0.205 F 
ENDBRANCH   5   6
BRANCH   1  13
ATOM     13  S   UNL     1       0.147   0.980   2.733  0.00  0.00    -0.086 S 
BRANCH  13  14
ATOM     14  C   UNL     1      -0.729   1.579   1.267  0.00  0.00    +0.079 C 
BRANCH  14  15
ATOM     15  C   UNL     1      -0.013   1.086   0.008  0.00  0.00    +0.030 C 
BRANCH  15  16
ATOM     16  C   UNL     1      -0.753   1.593  -1.232  0.00  0.00    +0.118 C 
BRANCH  16  25
ATOM     17  C   UNL     1       1.684  -0.925  -6.205  0.00  0.00    +0.001 A 
ATOM     18  C   UNL     1       2.466   0.214  -6.207  0.00  0.00    +0.001 A 
ATOM     19  C   UNL     1       2.305   1.179  -5.225  0.00  0.00    +0.014 A 
ATOM     20  C   UNL     1       1.353   0.998  -4.234  0.00  0.00    +0.049 A 
ATOM     21  C   UNL     1       0.555  -0.164  -4.233  0.00  0.00    +0.049 A 
ATOM     22  C   UNL     1       0.727  -1.120  -5.221  0.00  0.00    +0.014 A 
ATOM     23  C   UNL     1      -0.339  -0.040  -3.062  0.00  0.00    +0.254 C 
ATOM     24  O   UNL     1      -1.178  -0.849  -2.722  0.00  0.00    -0.270 OA
ATOM     25  N   UNL     1      -0.067   1.120  -2.437  0.00  0.00    -0.234 N 
ATOM     26  C   UNL     1       0.913   1.792  -3.067  0.00  0.00    +0.254 C 
ATOM     27  O   UNL     1       1.364   2.869  -2.733  0.00  0.00    -0.270 OA
ENDBRANCH  16  25
ENDBRANCH  15  16
ENDBRANCH  14  15
ENDBRANCH  13  14
ENDBRANCH   1  13
BRANCH   4  28
ATOM     28  C   UNL     1      -1.944   2.422   7.405  0.00  0.00    -0.001 C 
BRANCH  28  29
ATOM     29  N   UNL     1      -1.239   3.618   7.883  0.00  0.00    +0.384 N 
ATOM     30  C   UNL     1       0.216   3.448   7.780  0.00  0.00    -0.078 C 
ATOM     31  C   UNL     1       0.912   4.761   8.148  0.00  0.00    -0.019 C 
ATOM     32  C   UNL     1       0.525   5.155   9.576  0.00  0.00    -0.004 C 
ATOM     33  C   UNL     1      -0.998   5.279   9.669  0.00  0.00    -0.019 C 
ATOM     34  C   UNL     1      -1.639   3.951   9.257  0.00  0.00    -0.078 C 
ATOM     35  H   UNL     1      -1.524   4.462   7.238  0.00  0.00    -0.081 HD
ENDBRANCH  28  29
ENDBRANCH   4  28
TORSDOF 8
