REMARK  Name = ZINC63708600
REMARK  11 active torsions:
REMARK  status: ('A' for Active; 'I' for Inactive)
REMARK    1  A    between atoms: C_1  and  C_2
REMARK    2  A    between atoms: C_4  and  N_8
REMARK    3  A    between atoms: C_9  and  C_11
REMARK    4  A    between atoms: C_11  and  S_12
REMARK    5  A    between atoms: S_12  and  C_13
REMARK    6  A    between atoms: N_24  and  C_25
REMARK    7  A    between atoms: C_25  and  C_26
REMARK    8  A    between atoms: C_26  and  C_27
REMARK    9  A    between atoms: C_27  and  C_28
REMARK   10  A    between atoms: N_30  and  C_31
REMARK   11  A    between atoms: C_31  and  C_32
REMARK                            x       y       z     vdW  Elec       q    Type
REMARK                         _______ _______ _______ _____ _____    ______ ____
ROOT
ATOM      1  C   UNL     1      -2.893  -7.316  -3.492  0.00  0.00    +0.222 C 
ATOM      2  N   UNL     1      -3.973  -6.521  -4.090  0.00  0.00    -0.317 N 
ATOM      3  C   UNL     1      -3.654  -5.318  -4.710  0.00  0.00    +0.041 A 
ATOM      4  C   UNL     1      -4.555  -4.269  -4.770  0.00  0.00    +0.024 A 
ATOM      5  C   UNL     1      -4.197  -3.095  -5.406  0.00  0.00    +0.002 A 
ATOM      6  C   UNL     1      -2.945  -2.962  -5.984  0.00  0.00    +0.001 A 
ATOM      7  C   UNL     1      -2.034  -3.996  -5.930  0.00  0.00    +0.015 A 
ATOM      8  C   UNL     1      -2.380  -5.183  -5.287  0.00  0.00    +0.058 A 
ATOM      9  C   UNL     1      -1.434  -6.307  -5.181  0.00  0.00    +0.250 C 
ATOM     10  O   UNL     1      -0.390  -6.292  -5.805  0.00  0.00    -0.270 OA
ATOM     11  N   UNL     1      -1.736  -7.350  -4.387  0.00  0.00    -0.270 N 
ATOM     12  H   UNL     1      -4.891  -6.830  -4.054  0.00  0.00    +0.149 HD
ENDROOT
BRANCH   1  13
ATOM     13  S   UNL     1      -2.407  -6.573  -1.910  0.00  0.00    -0.110 S 
BRANCH  13  14
ATOM     14  C   UNL     1      -1.851  -4.906  -2.361  0.00  0.00    +0.168 C 
BRANCH  14  16
ATOM     15  N   UNL     1      -0.957  -2.905  -1.213  0.00  0.00    -0.288 N 
ATOM     16  C   UNL     1      -1.413  -4.170  -1.120  0.00  0.00    +0.225 C 
ATOM     17  O   UNL     1      -1.470  -4.717  -0.039  0.00  0.00    -0.275 OA
ATOM     18  H   UNL     1      -0.911  -2.468  -2.078  0.00  0.00    +0.151 HD
BRANCH  15  22
ATOM     19  C   UNL     1      -0.018   1.503   0.010  0.00  0.00    +0.067 C 
ATOM     20  C   UNL     1       0.002  -0.004   0.002  0.00  0.00    +0.060 C 
ATOM     21  C   UNL     1      -1.086  -0.777   0.003  0.00  0.00    +0.045 C 
ATOM     22  C   UNL     1      -0.531  -2.190  -0.007  0.00  0.00    +0.239 C 
ATOM     23  N   UNL     1       0.926  -1.973  -0.013  0.00  0.00    -0.160 NA
ATOM     24  N   UNL     1       1.125  -0.756  -0.013  0.00  0.00    -0.157 NA
ENDBRANCH  15  22
ENDBRANCH  14  16
ENDBRANCH  13  14
ENDBRANCH   1  13
BRANCH  11  25
ATOM     25  C   UNL     1      -0.887  -8.543  -4.420  0.00  0.00    +0.111 C 
BRANCH  25  26
ATOM     26  C   UNL     1      -1.415  -9.516  -5.475  0.00  0.00    +0.028 C 
BRANCH  26  27
ATOM     27  C   UNL     1      -0.528 -10.762  -5.510  0.00  0.00    +0.097 C 
BRANCH  27  28
ATOM     28  C   UNL     1      -1.048 -11.721  -6.549  0.00  0.00    +0.213 C 
ATOM     29  O   UNL     1      -2.032 -11.436  -7.199  0.00  0.00    -0.276 OA
ATOM     30  N   UNL     1      -0.420 -12.896  -6.757  0.00  0.00    -0.311 N 
ATOM     31  H   UNL     1       0.366 -13.123  -6.238  0.00  0.00    +0.149 HD
BRANCH  30  32
ATOM     32  C   UNL     1      -0.926 -13.828  -7.768  0.00  0.00    +0.139 C 
BRANCH  32  33
ATOM     33  C   UNL     1      -0.052 -15.055  -7.801  0.00  0.00    -0.030 A 
ATOM     34  C   UNL     1       1.047 -15.098  -8.639  0.00  0.00    +0.005 A 
ATOM     35  C   UNL     1       1.848 -16.223  -8.669  0.00  0.00    +0.000 A 
ATOM     36  C   UNL     1       1.551 -17.306  -7.863  0.00  0.00    +0.000 A 
ATOM     37  C   UNL     1       0.452 -17.263  -7.025  0.00  0.00    +0.000 A 
ATOM     38  C   UNL     1      -0.347 -16.136  -6.991  0.00  0.00    +0.005 A 
ENDBRANCH  32  33
ENDBRANCH  30  32
ENDBRANCH  27  28
ENDBRANCH  26  27
ENDBRANCH  25  26
ENDBRANCH  11  25
TORSDOF 10
