REMARK  Name = ZINC32094944
REMARK  4 active torsions:
REMARK  status: ('A' for Active; 'I' for Inactive)
REMARK    1  A    between atoms: C_1  and  C_2
REMARK    2  A    between atoms: N_8  and  C_28
REMARK    3  A    between atoms: N_20  and  C_21
REMARK    4  A    between atoms: C_28  and  C_29
REMARK                            x       y       z     vdW  Elec       q    Type
REMARK                         _______ _______ _______ _____ _____    ______ ____
ROOT
ATOM      1  C   UNL     1      -0.380   1.492   0.068  0.00  0.00    +0.045 C 
ATOM      2  C   UNL     1      -0.311  -0.014   0.052  0.00  0.00    -0.029 A 
ATOM      3  C   UNL     1      -0.531  -0.734  -1.112  0.00  0.00    +0.005 A 
ATOM      4  C   UNL     1      -0.471  -2.112  -1.140  0.00  0.00    +0.001 A 
ATOM      5  C   UNL     1      -0.184  -2.848   0.005  0.00  0.00    +0.007 A 
ATOM      6  C   UNL     1       0.036  -2.139   1.166  0.00  0.00    -0.006 A 
ATOM      7  C   UNL     1      -0.018  -0.740   1.206  0.00  0.00    +0.044 A 
ATOM      8  N   UNL     1       0.246  -0.286   2.487  0.00  0.00    -0.266 N 
ATOM      9  C   UNL     1       0.485  -1.300   3.344  0.00  0.00    +0.236 C 
ATOM     10  O   UNL     1       0.743  -1.201   4.525  0.00  0.00    -0.274 OA
ATOM     11  C   UNL     1       0.361  -2.585   2.555  0.00  0.00    +0.112 C 
ATOM     12  C   UNL     1      -0.750  -3.463   3.128  0.00  0.00    +0.122 C 
ATOM     13  C   UNL     1      -0.636  -4.878   2.634  0.00  0.00    +0.220 C 
ATOM     14  O   UNL     1      -1.649  -5.497   2.386  0.00  0.00    -0.275 OA
ATOM     15  N   UNL     1       0.558  -5.482   2.456  0.00  0.00    -0.270 N 
ATOM     16  C   UNL     1       1.713  -4.707   2.549  0.00  0.00    +0.133 A 
ATOM     17  C   UNL     1       1.661  -3.337   2.599  0.00  0.00    +0.032 A 
ATOM     18  C   UNL     1       2.962  -2.864   2.692  0.00  0.00    +0.141 A 
ATOM     19  N   UNL     1       3.777  -3.893   2.687  0.00  0.00    -0.173 NA
ATOM     20  N   UNL     1       3.012  -5.066   2.588  0.00  0.00    -0.218 N 
ATOM     21  H   UNL     1       0.611  -6.432   2.269  0.00  0.00    +0.156 HD
ENDROOT
BRANCH  20  22
ATOM     22  C   UNL     1       3.510  -6.376   2.538  0.00  0.00    +0.069 A 
ATOM     23  C   UNL     1       2.803  -7.411   3.137  0.00  0.00    +0.028 A 
ATOM     24  C   UNL     1       3.295  -8.701   3.087  0.00  0.00    +0.003 A 
ATOM     25  C   UNL     1       4.490  -8.962   2.442  0.00  0.00    +0.020 A 
ATOM     26  C   UNL     1       5.197  -7.933   1.845  0.00  0.00    +0.043 A 
ATOM     27  C   UNL     1       4.706  -6.641   1.887  0.00  0.00    +0.047 A 
ATOM     28 CL   UNL     1       6.697  -8.265   1.038  0.00  0.00    -0.083 Cl
ENDBRANCH  20  22
BRANCH   8  29
ATOM     29  C   UNL     1       0.263   1.129   2.866  0.00  0.00    +0.140 C 
BRANCH  29  30
ATOM     30  C   UNL     1      -1.128   1.563   3.251  0.00  0.00    -0.015 C 
ATOM     31  C   UNL     1      -1.343   2.114   4.420  0.00  0.00    +0.005 C 
ENDBRANCH  29  30
ENDBRANCH   8  29
TORSDOF 3
