REMARK  Name = ZINC21231904
REMARK  8 active torsions:
REMARK  status: ('A' for Active; 'I' for Inactive)
REMARK    1  A    between atoms: C_1  and  C_2
REMARK    2  A    between atoms: C_2  and  C_3
REMARK    3  A    between atoms: C_2  and  O_4
REMARK    4  A    between atoms: O_4  and  C_5
REMARK    5  A    between atoms: C_8  and  C_13
REMARK    6  A    between atoms: C_10  and  O_11
REMARK    7  A    between atoms: O_11  and  C_12
REMARK    8  A    between atoms: C_18  and  C_28
REMARK                            x       y       z     vdW  Elec       q    Type
REMARK                         _______ _______ _______ _____ _____    ______ ____
ROOT
ATOM      1  C   UNL     1       1.313   3.235   4.120  0.00  0.00    +0.032 C 
ATOM      2  C   UNL     1      -0.214   3.183   4.116  0.00  0.00    +0.059 C 
ATOM      3  C   UNL     1      -0.694   2.235   3.028  0.00  0.00    +0.017 C 
ATOM      4  C   UNL     1      -0.009   2.121   1.880  0.00  0.00    +0.036 C 
ATOM      5  C   UNL     1      -0.395   1.261   0.698  0.00  0.00    +0.136 C 
ATOM      6  N   UNL     1      -1.463   0.323   0.970  0.00  0.00    -0.331 N 
ATOM      7  C   UNL     1      -2.744   0.766   1.287  0.00  0.00    +0.049 A 
ATOM      8  C   UNL     1      -3.815   0.545   0.441  0.00  0.00    +0.025 A 
ATOM      9  C   UNL     1      -5.060   1.053   0.769  0.00  0.00    +0.002 A 
ATOM     10  C   UNL     1      -5.237   1.778   1.933  0.00  0.00    +0.002 A 
ATOM     11  C   UNL     1      -4.174   1.980   2.796  0.00  0.00    +0.025 A 
ATOM     12  C   UNL     1      -2.935   1.453   2.481  0.00  0.00    +0.052 A 
ATOM     13  N   UNL     1      -1.838   1.567   3.329  0.00  0.00    -0.316 N 
ATOM     14  C   UNL     1       1.195   2.840   1.692  0.00  0.00    +0.163 C 
ATOM     15  O   UNL     1       1.788   2.723   0.638  0.00  0.00    -0.292 OA
ATOM     16  C   UNL     1       1.767   3.740   2.746  0.00  0.00    +0.088 C 
ATOM     17  H   UNL     1      -1.269  -0.759   0.929  0.00  0.00    +0.147 HD
ATOM     18  H   UNL     1      -1.943   1.068   4.304  0.00  0.00    +0.152 HD
ENDROOT
BRANCH   5  19
ATOM     19  C   UNL     1      -0.826   2.165  -0.428  0.00  0.00    -0.015 A 
ATOM     20  C   UNL     1      -1.233   3.437  -0.166  0.00  0.00    +0.006 A 
ATOM     21  C   UNL     1      -1.629   4.290  -1.194  0.00  0.00    +0.001 A 
ATOM     22  C   UNL     1      -1.632   3.872  -2.490  0.00  0.00    +0.008 A 
ATOM     23  C   UNL     1      -1.224   2.563  -2.798  0.00  0.00    -0.018 A 
ATOM     24  C   UNL     1      -0.815   1.698  -1.753  0.00  0.00    -0.013 A 
ATOM     25  C   UNL     1      -0.407   0.389  -2.062  0.00  0.00    +0.009 A 
ATOM     26  C   UNL     1      -0.410  -0.030  -3.357  0.00  0.00    +0.001 A 
ATOM     27  C   UNL     1      -0.812   0.821  -4.385  0.00  0.00    +0.001 A 
ATOM     28  C   UNL     1      -1.213   2.095  -4.124  0.00  0.00    +0.008 A 
ENDBRANCH   5  19
BRANCH   1  32
ATOM     29  C   UNL     1       2.658   5.922   7.164  0.00  0.00    +0.162 A 
ATOM     30  C   UNL     1       1.845   6.381   6.140  0.00  0.00    +0.050 A 
ATOM     31  C   UNL     1       1.417   5.511   5.155  0.00  0.00    +0.008 A 
ATOM     32  C   UNL     1       1.788   4.180   5.194  0.00  0.00    -0.040 A 
ATOM     33  C   UNL     1       2.598   3.715   6.213  0.00  0.00    +0.053 A 
ATOM     34  C   UNL     1       3.036   4.583   7.200  0.00  0.00    +0.162 A 
BRANCH  34  35
ATOM     35  O   UNL     1       3.834   4.127   8.203  0.00  0.00    -0.491 OA
ATOM     36  C   UNL     1       4.182   2.742   8.176  0.00  0.00    +0.277 C 
ENDBRANCH  34  35
BRANCH  29  37
ATOM     37  O   UNL     1       3.085   6.777   8.131  0.00  0.00    -0.486 OA
BRANCH  37  39
ATOM     38  C   UNL     1       1.350   8.412   8.528  0.00  0.00    +0.051 C 
ATOM     39  C   UNL     1       2.752   8.157   7.970  0.00  0.00    +0.167 C 
ATOM     40  C   UNL     1       3.766   9.019   8.725  0.00  0.00    +0.051 C 
ENDBRANCH  37  39
ENDBRANCH  29  37
ENDBRANCH   1  32
TORSDOF 5
