REMARK  Name = ZINC01987872
REMARK  13 active torsions:
REMARK  status: ('A' for Active; 'I' for Inactive)
REMARK    1  A    between atoms: C_1  and  C_2
REMARK    2  A    between atoms: C_2  and  C_3
REMARK    3  A    between atoms: C_11  and  O_19
REMARK    4  A    between atoms: C_12  and  C_14
REMARK    5  A    between atoms: O_19  and  C_20
REMARK    6  A    between atoms: C_20  and  C_21
REMARK    7  A    between atoms: N_23  and  C_24
REMARK    8  A    between atoms: C_25  and  C_31
REMARK    9  A    between atoms: C_26  and  C_30
REMARK   10  A    between atoms: C_27  and  C_29
REMARK   11  A    between atoms: C_31  and  O_33
REMARK   12  A    between atoms: O_33  and  C_34
REMARK   13  A    between atoms: C_34  and  C_35
REMARK                            x       y       z     vdW  Elec       q    Type
REMARK                         _______ _______ _______ _____ _____    ______ ____
ROOT
ATOM      1  C   UNL     1       6.651  -1.217  -0.066  0.00  0.00    -0.047 A 
ATOM      2  C   UNL     1       5.589  -2.109  -0.060  0.00  0.00    +0.007 A 
ATOM      3  C   UNL     1       4.288  -1.653  -0.046  0.00  0.00    +0.047 A 
ATOM      4  C   UNL     1       4.031  -0.287  -0.037  0.00  0.00    +0.140 A 
ATOM      5  C   UNL     1       5.107   0.614  -0.042  0.00  0.00    +0.068 A 
ATOM      6  C   UNL     1       6.418   0.140  -0.056  0.00  0.00    +0.019 A 
ATOM      7  C   UNL     1       4.818   2.061  -0.032  0.00  0.00    +0.235 A 
ATOM      8  O   UNL     1       5.717   2.887  -0.037  0.00  0.00    -0.283 OA
ATOM      9  C   UNL     1       3.460   2.455  -0.018  0.00  0.00    +0.214 A 
ATOM     10  C   UNL     1       2.477   1.488  -0.014  0.00  0.00    +0.216 A 
ATOM     11  O   UNL     1       2.764   0.175  -0.018  0.00  0.00    -0.448 OA
ENDROOT
BRANCH  10  12
ATOM     12  C   UNL     1       1.073   1.906   0.002  0.00  0.00    +0.173 A 
ATOM     13  C   UNL     1      -0.013   1.076   0.008  0.00  0.00    +0.053 A 
ATOM     14  C   UNL     1      -1.151   1.899   0.017  0.00  0.00    +0.042 A 
ATOM     15  C   UNL     1      -0.717   3.178   0.025  0.00  0.00    +0.196 A 
ATOM     16  O   UNL     1       0.625   3.178   0.013  0.00  0.00    -0.460 OA
ENDBRANCH  10  12
BRANCH   1  18
ATOM     17  C   UNL     1       8.532  -1.905  -1.529  0.00  0.00    +0.009 C 
ATOM     18  C   UNL     1       8.066  -1.736  -0.082  0.00  0.00    +0.032 C 
ENDBRANCH   1  18
BRANCH   9  19
ATOM     19  O   UNL     1       3.127   3.775  -0.009  0.00  0.00    -0.476 OA
BRANCH  19  20
ATOM     20  C   UNL     1       2.979   4.397   1.269  0.00  0.00    +0.325 C 
BRANCH  20  21
ATOM     21  C   UNL     1       2.612   5.847   1.082  0.00  0.00    +0.255 C 
ATOM     22  O   UNL     1       2.488   6.302  -0.035  0.00  0.00    -0.272 OA
ATOM     23  N   UNL     1       2.421   6.638   2.156  0.00  0.00    -0.277 N 
ATOM     24  H   UNL     1       2.519   6.274   3.050  0.00  0.00    +0.155 HD
BRANCH  23  25
ATOM     25  C   UNL     1       2.083   7.971   1.984  0.00  0.00    +0.086 A 
ATOM     26  C   UNL     1       1.847   8.935   2.958  0.00  0.00    +0.091 A 
ATOM     27  C   UNL     1       1.508  10.259   2.492  0.00  0.00    -0.025 A 
ATOM     28  C   UNL     1       1.451  10.446   1.161  0.00  0.00    -0.008 A 
ATOM     29  S   UNL     1       1.859   8.842   0.504  0.00  0.00    -0.078 S 
ATOM     30  C   UNL     1       1.127  11.710   0.407  0.00  0.00    +0.052 C 
ATOM     31  C   UNL     1       1.231  11.385   3.455  0.00  0.00    +0.045 C 
BRANCH  26  32
ATOM     32  C   UNL     1       1.936   8.623   4.386  0.00  0.00    +0.342 C 
ATOM     33  O   UNL     1       2.994   8.752   4.972  0.00  0.00    -0.245 OA
BRANCH  32  34
ATOM     34  O   UNL     1       0.845   8.193   5.052  0.00  0.00    -0.461 OA
BRANCH  34  35
ATOM     35  C   UNL     1       1.007   7.903   6.466  0.00  0.00    +0.229 C 
ATOM     36  C   UNL     1      -0.328   7.432   7.046  0.00  0.00    +0.048 C 
ENDBRANCH  34  35
ENDBRANCH  32  34
ENDBRANCH  26  32
ENDBRANCH  23  25
ENDBRANCH  20  21
ENDBRANCH  19  20
ENDBRANCH   9  19
TORSDOF 9
