REMARK  Name = ZINC18197866
REMARK  3 active torsions:
REMARK  status: ('A' for Active; 'I' for Inactive)
REMARK    1  A    between atoms: C_3  and  C_6
REMARK    2  A    between atoms: C_11  and  C_21
REMARK    3  A    between atoms: C_18  and  O_19
REMARK                            x       y       z     vdW  Elec       q    Type
REMARK                         _______ _______ _______ _____ _____    ______ ____
ROOT
ATOM      1  C   UNL     1       3.942   4.544   4.859  0.00  0.00    +0.068 C 
ATOM      2  C   UNL     1       4.722   3.801   3.773  0.00  0.00    +0.063 C 
ATOM      3  C   UNL     1       3.765   3.024   2.900  0.00  0.00    +0.017 C 
ATOM      4  C   UNL     1       2.623   2.514   3.410  0.00  0.00    +0.024 C 
ATOM      5  C   UNL     1       1.654   1.701   2.578  0.00  0.00    +0.092 C 
ATOM      6  C   UNL     1       1.973   1.874   1.121  0.00  0.00    +0.067 A 
ATOM      7  C   UNL     1       3.152   2.419   0.687  0.00  0.00    +0.126 A 
ATOM      8  N   UNL     1       3.134   2.422  -0.659  0.00  0.00    -0.260 N 
ATOM      9  H   UNL     1       3.859   2.761  -1.258  0.00  0.00    +0.190 HD
ATOM     10  N   UNL     1       1.913   1.862  -1.071  0.00  0.00    -0.134 NA
ATOM     11  C   UNL     1       1.224   1.533  -0.001  0.00  0.00    +0.237 A 
ATOM     12  N   UNL     1       4.117   2.864   1.583  0.00  0.00    -0.303 N 
ATOM     13  C   UNL     1       2.282   2.717   4.759  0.00  0.00    +0.162 C 
ATOM     14  O   UNL     1       1.251   2.239   5.189  0.00  0.00    -0.292 OA
ATOM     15  C   UNL     1       3.162   3.513   5.682  0.00  0.00    +0.091 C 
ATOM     16  H   UNL     1       5.020   3.057   1.284  0.00  0.00    +0.153 HD
ENDROOT
BRANCH   5  17
ATOM     17  C   UNL     1       1.771   0.246   2.952  0.00  0.00    -0.035 A 
ATOM     18  C   UNL     1       2.975  -0.414   2.794  0.00  0.00    +0.006 A 
ATOM     19  C   UNL     1       3.084  -1.747   3.143  0.00  0.00    +0.020 A 
ATOM     20  C   UNL     1       1.985  -2.425   3.639  0.00  0.00    +0.041 A 
ATOM     21  C   UNL     1       0.778  -1.765   3.791  0.00  0.00    +0.020 A 
ATOM     22  C   UNL     1       0.672  -0.431   3.448  0.00  0.00    +0.006 A 
ATOM     23 CL   UNL     1       2.119  -4.101   4.069  0.00  0.00    -0.084 Cl
ENDBRANCH   5  17
BRANCH   1  26
ATOM     24  C   UNL     1       5.967   6.886   6.858  0.00  0.00    +0.041 A 
ATOM     25  C   UNL     1       4.915   6.620   5.952  0.00  0.00    +0.045 A 
ATOM     26  C   UNL     1       4.899   5.290   5.753  0.00  0.00    +0.109 A 
ATOM     27  O   UNL     1       5.876   4.739   6.490  0.00  0.00    -0.468 OA
ATOM     28  C   UNL     1       6.531   5.702   7.158  0.00  0.00    +0.195 A 
ENDBRANCH   1  26
BRANCH  11  29
ATOM     29  O   UNL     1      -0.011   0.963   0.007  0.00  0.00    -0.491 OA
ATOM     30  H   UNL     1      -0.321   0.824  -0.933  0.00  0.00    +0.294 HD
ENDBRANCH  11  29
TORSDOF 3
