REMARK  Name = ZINC43264771
REMARK  6 active torsions:
REMARK  status: ('A' for Active; 'I' for Inactive)
REMARK    1  A    between atoms: C_1  and  C_2
REMARK    2  A    between atoms: C_2  and  C_4
REMARK    3  A    between atoms: C_2  and  N_20
REMARK    4  A    between atoms: C_4  and  C_6
REMARK    5  A    between atoms: C_4  and  O_12
REMARK    6  A    between atoms: O_12  and  C_13
REMARK                            x       y       z     vdW  Elec       q    Type
REMARK                         _______ _______ _______ _____ _____    ______ ____
ROOT
ATOM      1  C   UNL     1       0.751  -0.519   1.250  0.00  0.00    +0.196 C 
ENDROOT
BRANCH   1   2
ATOM      2  C   UNL     1       0.861  -2.021   1.302  0.00  0.00    +0.029 A 
ATOM      3  C   UNL     1       1.902  -2.814   0.951  0.00  0.00    +0.016 A 
ATOM      4  C   UNL     1       1.777  -4.184   1.085  0.00  0.00    +0.023 A 
ATOM      5  C   UNL     1       0.616  -4.694   1.564  0.00  0.00    +0.055 A 
ATOM      6  S   UNL     1      -0.346  -3.217   1.850  0.00  0.00    -0.083 S 
ATOM      7 BR   UNL     1       0.140  -6.501   1.859  0.00  0.00    -0.043 Br
ENDBRANCH   1   2
BRANCH   1   9
ATOM      8  C   UNL     1      -0.145   1.417  -0.049  0.00  0.00    -0.010 C 
ATOM      9  C   UNL     1      -0.034  -0.108   0.004  0.00  0.00    -0.032 C 
BRANCH   9  10
ATOM     10  N   UNL     1      -1.380  -0.695   0.057  0.00  0.00    +0.382 N 
ATOM     11  H   UNL     1      -1.307  -1.700   0.092  0.00  0.00    -0.089 HD
ATOM     12  H   UNL     1      -1.859  -0.364   0.881  0.00  0.00    -0.089 HD
ATOM     13  H   UNL     1      -1.898  -0.423  -0.765  0.00  0.00    -0.089 HD
ENDBRANCH   9  10
ENDBRANCH   1   9
BRANCH   1  14
ATOM     14  O   UNL     1       0.073  -0.050   2.417  0.00  0.00    -0.484 OA
BRANCH  14  15
ATOM     15  C   UNL     1       0.539   1.094   2.984  0.00  0.00    +0.135 A 
ATOM     16  C   UNL     1       1.549   1.815   2.364  0.00  0.00    +0.047 A 
ATOM     17  C   UNL     1       2.021   2.978   2.941  0.00  0.00    +0.004 A 
ATOM     18  C   UNL     1       1.488   3.424   4.137  0.00  0.00    +0.001 A 
ATOM     19  C   UNL     1       0.481   2.707   4.758  0.00  0.00    +0.019 A 
ATOM     20  C   UNL     1       0.001   1.546   4.181  0.00  0.00    +0.059 A 
ATOM     21 BR   UNL     1      -1.381   0.571   5.026  0.00  0.00    -0.047 Br
ENDBRANCH  14  15
ENDBRANCH   1  14
TORSDOF 5
