REMARK  Name = ZINC21525972
REMARK  11 active torsions:
REMARK  status: ('A' for Active; 'I' for Inactive)
REMARK    1  A    between atoms: C_1  and  C_2
REMARK    2  A    between atoms: C_2  and  N_3
REMARK    3  A    between atoms: N_3  and  C_4
REMARK    4  A    between atoms: N_3  and  C_6
REMARK    5  A    between atoms: C_4  and  C_5
REMARK    6  A    between atoms: C_6  and  C_7
REMARK    7  A    between atoms: C_7  and  N_8
REMARK    8  A    between atoms: C_17  and  C_18
REMARK    9  A    between atoms: C_17  and  C_19
REMARK   10  A    between atoms: N_21  and  C_22
REMARK   11  A    between atoms: C_25  and  C_28
REMARK                            x       y       z     vdW  Elec       q    Type
REMARK                         _______ _______ _______ _____ _____    ______ ____
ROOT
ATOM      1  N   UNL     1      -0.183   0.708  -2.153  0.00  0.00    -0.282 N 
ATOM      2  C   UNL     1      -0.921  -0.296  -2.680  0.00  0.00    +0.264 C 
ATOM      3  O   UNL     1      -0.929  -1.412  -2.193  0.00  0.00    -0.268 OA
ATOM      4  C   UNL     1      -1.716   0.033  -3.869  0.00  0.00    +0.106 A 
ATOM      5  C   UNL     1      -2.684  -0.677  -4.515  0.00  0.00    +0.048 A 
ATOM      6  C   UNL     1      -3.127   0.105  -5.575  0.00  0.00    +0.038 A 
ATOM      7  C   UNL     1      -2.422   1.318  -5.589  0.00  0.00    +0.057 A 
ATOM      8  N   UNL     1      -1.544   1.248  -4.524  0.00  0.00    -0.333 N 
ATOM      9  C   UNL     1      -0.552   2.232  -4.083  0.00  0.00    +0.157 C 
ATOM     10  C   UNL     1      -0.348   2.094  -2.574  0.00  0.00    +0.128 C 
ATOM     11  C   UNL     1      -1.563   2.687  -1.858  0.00  0.00    +0.043 C 
ATOM     12  C   UNL     1      -2.775   2.212  -6.612  0.00  0.00    +0.034 A 
ATOM     13  C   UNL     1      -3.733   1.881  -7.502  0.00  0.00    +0.048 A 
ATOM     14  S   UNL     1      -4.226   0.254  -6.959  0.00  0.00    -0.095 S 
ENDROOT
BRANCH  10  15
ATOM     15  C   UNL     1       0.878   2.874  -2.176  0.00  0.00    +0.238 C 
ATOM     16  O   UNL     1       0.762   3.939  -1.607  0.00  0.00    -0.273 OA
ATOM     17  N   UNL     1       2.105   2.388  -2.451  0.00  0.00    -0.311 N 
ATOM     18  H   UNL     1       2.213   1.383  -2.886  0.00  0.00    +0.149 HD
BRANCH  17  19
ATOM     19  C   UNL     1       3.294   3.197  -2.172  0.00  0.00    +0.073 C 
ATOM     20  C   UNL     1       3.545   4.154  -3.338  0.00  0.00    +0.022 C 
ATOM     21  C   UNL     1       4.786   5.000  -3.046  0.00  0.00    +0.005 C 
ATOM     22  C   UNL     1       5.998   4.082  -2.869  0.00  0.00    -0.014 C 
ATOM     23  C   UNL     1       5.747   3.125  -1.703  0.00  0.00    +0.005 C 
ATOM     24  C   UNL     1       4.505   2.280  -1.995  0.00  0.00    +0.022 C 
ATOM     25  C   UNL     1       7.239   4.928  -2.577  0.00  0.00    +0.007 C 
ENDBRANCH  17  19
ENDBRANCH  10  15
BRANCH   1  26
ATOM     26  C   UNL     1       0.819   0.392  -1.132  0.00  0.00    +0.091 C 
BRANCH  26  27
ATOM     27  C   UNL     1       0.197   0.545   0.258  0.00  0.00    -0.060 C 
BRANCH  27  28
ATOM     28  N   UNL     1       1.203   0.235   1.282  0.00  0.00    +0.380 N 
ATOM     29  H   UNL     1       1.765  -0.649   0.947  0.00  0.00    -0.082 HD
BRANCH  28  31
ATOM     30  C   UNL     1       1.439   2.550   2.046  0.00  0.00    -0.017 C 
ATOM     31  C   UNL     1       2.155   1.343   1.437  0.00  0.00    -0.082 C 
ENDBRANCH  28  31
BRANCH  28  32
ATOM     32  C   UNL     1       0.565  -0.094   2.563  0.00  0.00    -0.082 C 
ATOM     33  C   UNL     1       1.615  -0.649   3.528  0.00  0.00    -0.017 C 
ENDBRANCH  28  32
ENDBRANCH  27  28
ENDBRANCH  26  27
ENDBRANCH   1  26
TORSDOF 7
