REMARK  Name = ZINC20905579
REMARK  9 active torsions:
REMARK  status: ('A' for Active; 'I' for Inactive)
REMARK    1  A    between atoms: C_1  and  C_2
REMARK    2  A    between atoms: C_6  and  C_12
REMARK    3  A    between atoms: C_12  and  N_13
REMARK    4  A    between atoms: C_14  and  C_16
REMARK    5  A    between atoms: C_16  and  C_17
REMARK    6  A    between atoms: N_24  and  C_25
REMARK    7  A    between atoms: C_25  and  C_26
REMARK    8  A    between atoms: C_29  and  O_33
REMARK    9  A    between atoms: O_33  and  C_34
REMARK                            x       y       z     vdW  Elec       q    Type
REMARK                         _______ _______ _______ _____ _____    ______ ____
ROOT
ATOM      1  C   UNL     1       1.179  -0.769  -0.027  0.00  0.00    +0.028 C 
ATOM      2  C   UNL     1      -0.032   0.020   0.386  0.00  0.00    +0.200 C 
ATOM      3  O   UNL     1      -1.094  -0.556   0.486  0.00  0.00    -0.278 OA
ATOM      4  N   UNL     1       0.014   1.331   0.647  0.00  0.00    -0.318 N 
ATOM      5  C   UNL     1       1.234   2.123   0.521  0.00  0.00    +0.085 C 
ATOM      6  C   UNL     1       2.457   1.205   0.510  0.00  0.00    -0.058 C 
ATOM      7  N   UNL     1       2.239   0.140  -0.483  0.00  0.00    +0.391 N 
ATOM      8  H   UNL     1      -0.923   1.810   0.969  0.00  0.00    +0.149 HD
ATOM      9  H   UNL     1       1.917   0.603  -1.428  0.00  0.00    -0.080 HD
ENDROOT
BRANCH   1  10
ATOM     10  C   UNL     1       0.801  -1.720  -1.164  0.00  0.00    +0.089 C 
BRANCH  10  12
ATOM     11  N   UNL     1      -0.117  -1.549  -3.455  0.00  0.00    -0.311 N 
ATOM     12  C   UNL     1       0.364  -0.920  -2.364  0.00  0.00    +0.212 C 
ATOM     13  O   UNL     1       0.445   0.290  -2.348  0.00  0.00    -0.276 OA
ATOM     14  H   UNL     1      -0.190  -2.647  -3.469  0.00  0.00    +0.149 HD
BRANCH  11  15
ATOM     15  C   UNL     1      -0.541  -0.772  -4.621  0.00  0.00    +0.139 C 
BRANCH  15  21
ATOM     16  C   UNL     1      -5.034  -5.059  -8.826  0.00  0.00    +0.063 C 
ATOM     17  C   UNL     1      -3.945  -4.273  -8.141  0.00  0.00    +0.014 A 
ATOM     18  C   UNL     1      -4.118  -3.497  -7.060  0.00  0.00    +0.030 A 
ATOM     19  C   UNL     1      -2.811  -2.925  -6.730  0.00  0.00    +0.000 A 
ATOM     20  C   UNL     1      -2.353  -2.059  -5.734  0.00  0.00    +0.015 A 
ATOM     21  C   UNL     1      -1.034  -1.706  -5.696  0.00  0.00    -0.030 A 
ATOM     22  C   UNL     1      -0.145  -2.197  -6.642  0.00  0.00    +0.007 A 
ATOM     23  C   UNL     1      -0.573  -3.057  -7.629  0.00  0.00    +0.026 A 
ATOM     24  C   UNL     1      -1.913  -3.430  -7.687  0.00  0.00    +0.047 A 
ATOM     25  N   UNL     1      -2.634  -4.246  -8.530  0.00  0.00    -0.358 N 
ATOM     26  H   UNL     1      -2.307  -4.828  -9.405  0.00  0.00    +0.166 HD
ENDBRANCH  15  21
ENDBRANCH  11  15
ENDBRANCH  10  12
ENDBRANCH   1  10
BRANCH   7  27
ATOM     27  C   UNL     1       3.483  -0.594  -0.750  0.00  0.00    -0.039 C 
BRANCH  27  28
ATOM     28  C   UNL     1       4.611   0.385  -0.951  0.00  0.00    -0.028 A 
ATOM     29  C   UNL     1       5.032   0.700  -2.229  0.00  0.00    +0.008 A 
ATOM     30  C   UNL     1       6.062   1.601  -2.416  0.00  0.00    +0.046 A 
ATOM     31  C   UNL     1       6.683   2.183  -1.319  0.00  0.00    +0.123 A 
ATOM     32  C   UNL     1       6.263   1.863  -0.037  0.00  0.00    +0.084 A 
ATOM     33  C   UNL     1       5.227   0.964   0.146  0.00  0.00    +0.128 A 
ATOM     34  F   UNL     1       4.817   0.651   1.395  0.00  0.00    -0.205 F 
BRANCH  31  35
ATOM     35  O   UNL     1       7.700   3.065  -1.502  0.00  0.00    -0.495 OA
ATOM     36  C   UNL     1       8.079   3.348  -2.851  0.00  0.00    +0.277 C 
ENDBRANCH  31  35
ENDBRANCH  27  28
ENDBRANCH   7  27
TORSDOF 7
