REMARK  Name = ZINC22313717
REMARK  10 active torsions:
REMARK  status: ('A' for Active; 'I' for Inactive)
REMARK    1  A    between atoms: C_4  and  S_7
REMARK    2  A    between atoms: S_7  and  N_10
REMARK    3  A    between atoms: N_10  and  C_11
REMARK    4  A    between atoms: N_10  and  C_27
REMARK    5  A    between atoms: C_11  and  C_12
REMARK    6  A    between atoms: N_14  and  C_15
REMARK    7  A    between atoms: C_15  and  C_16
REMARK    8  A    between atoms: C_16  and  C_17
REMARK    9  A    between atoms: C_17  and  N_18
REMARK   10  A    between atoms: C_30  and  N_33
REMARK                            x       y       z     vdW  Elec       q    Type
REMARK                         _______ _______ _______ _____ _____    ______ ____
ROOT
ATOM      1  N   UNL     1       0.513   5.548   8.638  0.00  0.00    -0.194 N 
ENDROOT
BRANCH   1   2
ATOM      2  C   UNL     1       0.732   4.624   9.662  0.00  0.00    +0.052 A 
ATOM      3  C   UNL     1       1.331   5.029  10.849  0.00  0.00    +0.027 A 
ATOM      4  C   UNL     1       1.541   4.113  11.861  0.00  0.00    +0.034 A 
ATOM      5  C   UNL     1       1.165   2.793  11.691  0.00  0.00    +0.126 A 
ATOM      6  C   UNL     1       0.574   2.386  10.509  0.00  0.00    +0.034 A 
ATOM      7  C   UNL     1       0.356   3.297   9.495  0.00  0.00    +0.027 A 
BRANCH   5   8
ATOM      8  N   UNL     1       1.397   1.814  12.776  0.00  0.00    +0.056 N 
ATOM      9  O   UNL     1       1.067   0.651  12.628  0.00  0.00    -0.126 OA
ATOM     10  O   UNL     1       1.918   2.171  13.818  0.00  0.00    -0.126 OA
ENDBRANCH   5   8
ENDBRANCH   1   2
BRANCH   1  11
ATOM     11  S   UNL     1       1.473   6.893   8.517  0.00  0.00    +0.075 S 
ATOM     12  O   UNL     1       2.691   6.583   9.181  0.00  0.00    -0.150 OA
ATOM     13  O   UNL     1       1.429   7.301   7.157  0.00  0.00    -0.150 OA
BRANCH  11  17
ATOM     14  C   UNL     1      -0.512  10.176  10.919  0.00  0.00    +0.000 A 
ATOM     15  C   UNL     1       0.493   9.416  11.487  0.00  0.00    +0.002 A 
ATOM     16  C   UNL     1       1.099   8.413  10.753  0.00  0.00    +0.029 A 
ATOM     17  C   UNL     1       0.700   8.171   9.452  0.00  0.00    +0.109 A 
ATOM     18  C   UNL     1      -0.301   8.935   8.883  0.00  0.00    +0.029 A 
ATOM     19  C   UNL     1      -0.911   9.934   9.618  0.00  0.00    +0.002 A 
ENDBRANCH  11  17
ENDBRANCH   1  11
BRANCH   1  20
ATOM     20  C   UNL     1      -0.566   5.329   7.672  0.00  0.00    +0.227 C 
BRANCH  20  21
ATOM     21  C   UNL     1      -0.072   4.435   6.563  0.00  0.00    +0.232 C 
ATOM     22  O   UNL     1       1.068   4.022   6.579  0.00  0.00    -0.274 OA
ATOM     23  N   UNL     1      -0.898   4.095   5.554  0.00  0.00    -0.314 N 
ATOM     24  H   UNL     1      -1.933   4.469   5.540  0.00  0.00    +0.149 HD
BRANCH  23  25
ATOM     25  C   UNL     1      -0.419   3.226   4.476  0.00  0.00    +0.106 C 
BRANCH  25  26
ATOM     26  C   UNL     1      -1.545   2.996   3.467  0.00  0.00    +0.037 C 
BRANCH  26  27
ATOM     27  C   UNL     1      -1.045   2.089   2.341  0.00  0.00    +0.106 C 
BRANCH  27  28
ATOM     28  N   UNL     1      -2.090   1.956   1.318  0.00  0.00    -0.329 N 
ATOM     29  C   UNL     1      -2.318   3.242   0.624  0.00  0.00    +0.110 C 
ATOM     30  C   UNL     1      -3.818   3.172   0.257  0.00  0.00    +0.056 C 
ATOM     31  C   UNL     1      -4.376   2.225   1.301  0.00  0.00    -0.025 A 
ATOM     32  C   UNL     1      -3.308   1.555   1.885  0.00  0.00    +0.033 A 
ATOM     33  C   UNL     1      -3.561   0.625   2.892  0.00  0.00    +0.023 A 
ATOM     34  C   UNL     1      -4.856   0.374   3.296  0.00  0.00    +0.002 A 
ATOM     35  C   UNL     1      -5.912   1.043   2.704  0.00  0.00    +0.000 A 
ATOM     36  C   UNL     1      -5.669   1.969   1.706  0.00  0.00    +0.005 A 
ENDBRANCH  27  28
ENDBRANCH  26  27
ENDBRANCH  25  26
ENDBRANCH  23  25
ENDBRANCH  20  21
ENDBRANCH   1  20
TORSDOF 10
