REMARK  Name = ZINC35397781
REMARK  12 active torsions:
REMARK  status: ('A' for Active; 'I' for Inactive)
REMARK    1  A    between atoms: C_1  and  C_2
REMARK    2  A    between atoms: C_3  and  C_9
REMARK    3  A    between atoms: C_4  and  C_8
REMARK    4  A    between atoms: N_5  and  C_7
REMARK    5  A    between atoms: C_9  and  C_10
REMARK    6  A    between atoms: C_10  and  C_11
REMARK    7  A    between atoms: C_11  and  N_12
REMARK    8  A    between atoms: N_12  and  C_13
REMARK    9  A    between atoms: C_15  and  C_32
REMARK   10  A    between atoms: C_17  and  N_20
REMARK   11  A    between atoms: N_20  and  S_21
REMARK   12  A    between atoms: S_21  and  C_24
REMARK                            x       y       z     vdW  Elec       q    Type
REMARK                         _______ _______ _______ _____ _____    ______ ____
ROOT
ATOM      1  N   UNL     1       2.965   0.237  -4.432  0.00  0.00    -0.318 N 
ATOM      2  C   UNL     1       3.720  -0.918  -4.925  0.00  0.00    +0.130 C 
ATOM      3  C   UNL     1       3.556   1.488  -4.402  0.00  0.00    +0.135 A 
ATOM      4  C   UNL     1       3.373   2.372  -5.481  0.00  0.00    +0.105 A 
ATOM      5  C   UNL     1       3.981   3.634  -5.430  0.00  0.00    +0.044 A 
ATOM      6  C   UNL     1       4.738   3.955  -4.311  0.00  0.00    +0.067 A 
ATOM      7  C   UNL     1       4.870   3.025  -3.287  0.00  0.00    +0.137 A 
ATOM      8  N   UNL     1       4.284   1.846  -3.356  0.00  0.00    -0.238 NA
ENDROOT
BRANCH   4   9
ATOM      9  C   UNL     1       2.561   1.979  -6.641  0.00  0.00    +0.390 C 
ATOM     10  O   UNL     1       2.484   2.718  -7.613  0.00  0.00    -0.240 OA
ATOM     11  O   UNL     1       1.961   0.913  -6.635  0.00  0.00    -0.240 OA
ENDBRANCH   4   9
BRANCH   6  12
ATOM     12  N   UNL     1       5.364   5.205  -4.216  0.00  0.00    -0.215 N 
ATOM     13  H   UNL     1       5.861   5.557  -4.971  0.00  0.00    +0.174 HD
BRANCH  12  14
ATOM     14  S   UNL     1       5.256   6.081  -2.815  0.00  0.00    +0.075 S 
ATOM     15  O   UNL     1       5.663   5.217  -1.763  0.00  0.00    -0.150 OA
ATOM     16  O   UNL     1       5.889   7.328  -3.066  0.00  0.00    -0.150 OA
BRANCH  14  17
ATOM     17  C   UNL     1       3.549   6.428  -2.549  0.00  0.00    +0.146 A 
ATOM     18  C   UNL     1       2.900   5.901  -1.448  0.00  0.00    +0.070 A 
ATOM     19  C   UNL     1       1.560   6.175  -1.238  0.00  0.00    +0.125 A 
ATOM     20  C   UNL     1       0.868   6.975  -2.131  0.00  0.00    +0.041 A 
ATOM     21  C   UNL     1       1.516   7.502  -3.232  0.00  0.00    +0.043 A 
ATOM     22  C   UNL     1       2.859   7.233  -3.439  0.00  0.00    +0.150 A 
ATOM     23  F   UNL     1       3.494   7.752  -4.513  0.00  0.00    -0.203 F 
ATOM     24  F   UNL     1       0.925   5.659  -0.162  0.00  0.00    -0.205 F 
ENDBRANCH  14  17
ENDBRANCH  12  14
ENDBRANCH   6  12
BRANCH   1  25
ATOM     25  C   UNL     1       1.585   0.067  -3.971  0.00  0.00    +0.106 C 
BRANCH  25  26
ATOM     26  C   UNL     1       1.583  -0.249  -2.474  0.00  0.00    +0.024 C 
BRANCH  26  27
ATOM     27  C   UNL     1       0.141  -0.426  -1.992  0.00  0.00    +0.040 C 
BRANCH  27  30
ATOM     28  C   UNL     1       0.008   1.693   0.360  0.00  0.00    +0.068 C 
ATOM     29  C   UNL     1       0.080   0.196   0.521  0.00  0.00    +0.063 A 
ATOM     30  C   UNL     1       0.139  -0.738  -0.518  0.00  0.00    -0.004 A 
ATOM     31  C   UNL     1       0.193  -1.972   0.035  0.00  0.00    +0.039 A 
ATOM     32  N   UNL     1       0.169  -1.824   1.376  0.00  0.00    -0.271 N 
ATOM     33  N   UNL     1       0.103  -0.453   1.657  0.00  0.00    -0.176 NA
ATOM     34  C   UNL     1       0.210  -2.905   2.364  0.00  0.00    +0.172 C 
ATOM     35  C   UNL     1       0.267  -3.279  -0.713  0.00  0.00    +0.065 C 
ENDBRANCH  27  30
ENDBRANCH  26  27
ENDBRANCH  25  26
ENDBRANCH   1  25
TORSDOF 8
