REMARK  Name = ZINC13655207
REMARK  10 active torsions:
REMARK  status: ('A' for Active; 'I' for Inactive)
REMARK    1  A    between atoms: C_1  and  C_2
REMARK    2  A    between atoms: N_5  and  N_6
REMARK    3  A    between atoms: C_7  and  C_9
REMARK    4  A    between atoms: C_12  and  C_15
REMARK    5  A    between atoms: C_15  and  N_16
REMARK    6  A    between atoms: C_17  and  O_19
REMARK    7  A    between atoms: O_19  and  C_20
REMARK    8  A    between atoms: C_20  and  C_21
REMARK    9  A    between atoms: C_20  and  C_22
REMARK   10  A    between atoms: C_20  and  C_23
REMARK                            x       y       z     vdW  Elec       q    Type
REMARK                         _______ _______ _______ _____ _____    ______ ____
ROOT
ATOM      1  C   UNL     1       0.002  -0.004   0.002  0.00  0.00    +0.044 C 
ATOM      2  C   UNL     1      -0.018   1.503   0.010  0.00  0.00    -0.035 A 
ATOM      3  C   UNL     1       1.134   2.221   0.003  0.00  0.00    +0.073 A 
ATOM      4  C   UNL     1       1.021   3.687   0.013  0.00  0.00    +0.236 A 
ATOM      5  N   UNL     1       1.972   4.432   0.514  0.00  0.00    -0.142 NA
ATOM      6  O   UNL     1      -0.104   4.248  -0.515  0.00  0.00    -0.436 OA
ATOM      7  C   UNL     1      -1.280   3.627  -0.242  0.00  0.00    +0.141 A 
ATOM      8  C   UNL     1      -1.288   2.247   0.020  0.00  0.00    +0.021 A 
ATOM      9  C   UNL     1      -2.493   1.603   0.304  0.00  0.00    +0.019 A 
ATOM     10  C   UNL     1      -3.675   2.318   0.317  0.00  0.00    -0.005 A 
ATOM     11  C   UNL     1      -3.666   3.681   0.055  0.00  0.00    +0.128 A 
ATOM     12  C   UNL     1      -2.467   4.332  -0.225  0.00  0.00    +0.092 A 
ATOM     13  O   UNL     1      -4.805   4.411   0.067  0.00  0.00    -0.485 OA
ATOM     14  C   UNL     1      -6.070   3.770   0.034  0.00  0.00    +0.111 C 
ATOM     15  C   UNL     1      -6.385   3.346  -1.407  0.00  0.00    +0.048 C 
ATOM     16  C   UNL     1      -6.375   4.579  -2.313  0.00  0.00    +0.004 C 
ATOM     17  C   UNL     1      -7.440   5.569  -1.839  0.00  0.00    +0.000 C 
ATOM     18  C   UNL     1      -7.140   5.988  -0.399  0.00  0.00    +0.004 C 
ATOM     19  C   UNL     1      -7.149   4.754   0.504  0.00  0.00    +0.048 C 
ATOM     20  C   UNL     1      -6.091   2.540   0.930  0.00  0.00    +0.053 C 
ATOM     21  C   UNL     1      -4.954   1.588   0.616  0.00  0.00    +0.043 C 
ENDROOT
BRANCH   5  22
ATOM     22  N   UNL     1       3.120   3.835   1.052  0.00  0.00    -0.203 N 
ATOM     23  C   UNL     1       4.100   4.603   1.569  0.00  0.00    +0.235 C 
ATOM     24  O   UNL     1       3.989   5.811   1.568  0.00  0.00    -0.274 OA
ATOM     25  H   UNL     1       3.209   2.869   1.053  0.00  0.00    +0.177 HD
BRANCH  23  26
ATOM     26  C   UNL     1       5.335   3.960   2.147  0.00  0.00    +0.077 C 
ATOM     27  C   UNL     1       4.937   3.041   3.304  0.00  0.00    +0.013 C 
ATOM     28  C   UNL     1       6.190   2.389   3.891  0.00  0.00    +0.006 C 
ATOM     29  C   UNL     1       7.137   3.475   4.405  0.00  0.00    +0.006 C 
ATOM     30  C   UNL     1       7.535   4.394   3.249  0.00  0.00    +0.006 C 
ATOM     31  C   UNL     1       6.281   5.046   2.661  0.00  0.00    +0.013 C 
BRANCH  29  32
ATOM     32  C   UNL     1       8.390   2.823   4.993  0.00  0.00    +0.111 C 
BRANCH  32  33
ATOM     33  N   UNL     1       8.024   2.037   6.174  0.00  0.00    -0.281 N 
ATOM     34  C   UNL     1       8.972   1.369   6.860  0.00  0.00    +0.401 C 
ATOM     35  O   UNL     1      10.132   1.419   6.498  0.00  0.00    -0.226 OA
ATOM     36  H   UNL     1       7.098   1.998   6.462  0.00  0.00    +0.152 HD
BRANCH  34  37
ATOM     37  O   UNL     1       8.636   0.647   7.945  0.00  0.00    -0.445 OA
BRANCH  37  38
ATOM     38  C   UNL     1       9.709  -0.046   8.634  0.00  0.00    +0.107 C 
ATOM     39  C   UNL     1      10.743   0.971   9.122  0.00  0.00    +0.055 C 
ATOM     40  C   UNL     1       9.138  -0.807   9.833  0.00  0.00    +0.055 C 
ATOM     41  C   UNL     1      10.378  -1.033   7.675  0.00  0.00    +0.055 C 
ENDBRANCH  37  38
ENDBRANCH  34  37
ENDBRANCH  32  33
ENDBRANCH  29  32
ENDBRANCH  23  26
ENDBRANCH   5  22
TORSDOF 6
