REMARK  Name = ZINC57312225
REMARK  8 active torsions:
REMARK  status: ('A' for Active; 'I' for Inactive)
REMARK    1  A    between atoms: C_1  and  C_2
REMARK    2  A    between atoms: C_7  and  C_9
REMARK    3  A    between atoms: C_7  and  C_10
REMARK    4  A    between atoms: N_11  and  C_13
REMARK    5  A    between atoms: C_13  and  C_14
REMARK    6  A    between atoms: C_15  and  O_36
REMARK    7  A    between atoms: C_21  and  C_32
REMARK    8  A    between atoms: C_22  and  C_25
REMARK                            x       y       z     vdW  Elec       q    Type
REMARK                         _______ _______ _______ _____ _____    ______ ____
ROOT
ATOM      1  C   UNL     1      -3.790  -3.018  -0.126  0.00  0.00    +0.020 A 
ATOM      2  C   UNL     1      -4.717  -3.154  -1.146  0.00  0.00    +0.122 A 
ATOM      3  C   UNL     1      -5.929  -2.468  -1.101  0.00  0.00    +0.046 A 
ATOM      4  C   UNL     1      -6.220  -1.652  -0.045  0.00  0.00    +0.019 A 
ATOM      5  C   UNL     1      -5.298  -1.508   0.991  0.00  0.00    +0.065 A 
ATOM      6  C   UNL     1      -4.071  -2.195   0.957  0.00  0.00    +0.144 A 
ATOM      7  O   UNL     1      -3.179  -2.045   1.955  0.00  0.00    -0.450 OA
ATOM      8  C   UNL     1      -3.522  -1.511   3.129  0.00  0.00    +0.219 A 
ATOM      9  C   UNL     1      -4.672  -0.810   3.311  0.00  0.00    +0.076 A 
ATOM     10  C   UNL     1      -5.576  -0.643   2.154  0.00  0.00    +0.201 A 
ATOM     11  O   UNL     1      -6.503   0.148   2.165  0.00  0.00    -0.286 OA
ENDROOT
BRANCH   9  12
ATOM     12  C   UNL     1      -5.004  -0.221   4.631  0.00  0.00    -0.011 A 
ATOM     13  C   UNL     1      -4.347   0.928   5.069  0.00  0.00    +0.011 A 
ATOM     14  C   UNL     1      -4.660   1.474   6.297  0.00  0.00    +0.039 A 
ATOM     15  C   UNL     1      -5.625   0.882   7.095  0.00  0.00    +0.123 A 
ATOM     16  C   UNL     1      -6.281  -0.260   6.664  0.00  0.00    +0.039 A 
ATOM     17  C   UNL     1      -5.979  -0.810   5.435  0.00  0.00    +0.011 A 
ATOM     18  F   UNL     1      -5.928   1.419   8.296  0.00  0.00    -0.205 F 
ENDBRANCH   9  12
BRANCH   8  19
ATOM     19  C   UNL     1      -2.594  -1.694   4.303  0.00  0.00    +0.451 C 
ATOM     20  F   UNL     1      -3.212  -1.216   5.464  0.00  0.00    -0.163 F 
ATOM     21  F   UNL     1      -2.299  -3.052   4.457  0.00  0.00    -0.163 F 
ATOM     22  F   UNL     1      -1.411  -0.982   4.078  0.00  0.00    -0.163 F 
ENDBRANCH   8  19
BRANCH   2  23
ATOM     23  O   UNL     1      -4.441  -3.963  -2.200  0.00  0.00    -0.506 OA
ATOM     24  H   UNL     1      -4.797  -4.858  -2.113  0.00  0.00    +0.292 HD
ENDBRANCH   2  23
BRANCH   1  25
ATOM     25  C   UNL     1      -2.484  -3.766  -0.187  0.00  0.00    -0.035 C 
BRANCH  25  35
ATOM     26  C   UNL     1       0.648  -0.084  -1.080  0.00  0.00    +0.009 C 
ATOM     27  C   UNL     1       0.304  -1.506  -0.616  0.00  0.00    -0.048 C 
ATOM     28  C   UNL     1       0.691  -2.582  -1.667  0.00  0.00    -0.011 C 
ATOM     29  C   UNL     1      -0.256  -3.729  -1.215  0.00  0.00    -0.067 C 
ATOM     30  C   UNL     1       0.299  -4.308   0.071  0.00  0.00    -0.009 C 
ATOM     31  C   UNL     1       0.792  -3.328   1.113  0.00  0.00    -0.036 C 
ATOM     32  C   UNL     1       1.016  -1.892   0.682  0.00  0.00    +0.011 C 
ATOM     33  C   UNL     1      -0.156  -3.348   2.326  0.00  0.00    +0.011 C 
ATOM     34  C   UNL     1       2.154  -3.861   1.630  0.00  0.00    +0.011 C 
ATOM     35  N   UNL     1      -1.537  -3.024  -1.011  0.00  0.00    +0.385 N 
ATOM     36  C   UNL     1      -1.216  -1.710  -0.423  0.00  0.00    -0.071 C 
ATOM     37  H   UNL     1      -1.962  -2.861  -1.927  0.00  0.00    -0.081 HD
ENDBRANCH  25  35
ENDBRANCH   1  25
TORSDOF 5
