REMARK  Name = ZINC02755711
REMARK  6 active torsions:
REMARK  status: ('A' for Active; 'I' for Inactive)
REMARK    1  A    between atoms: C_1  and  O_2
REMARK    2  A    between atoms: O_2  and  C_3
REMARK    3  A    between atoms: C_3  and  C_5
REMARK    4  A    between atoms: C_9  and  N_10
REMARK    5  A    between atoms: C_11  and  C_13
REMARK    6  A    between atoms: C_19  and  C_21
REMARK                            x       y       z     vdW  Elec       q    Type
REMARK                         _______ _______ _______ _____ _____    ______ ____
ROOT
ATOM      1  C   UNL     1      -2.257   2.917  -2.514  0.00  0.00    +0.091 A 
ATOM      2  C   UNL     1      -1.497   2.731  -1.300  0.00  0.00    -0.021 A 
ATOM      3  C   UNL     1      -0.884   1.546  -1.135  0.00  0.00    -0.004 A 
ATOM      4  S   UNL     1      -1.325   0.647  -2.609  0.00  0.00    -0.077 S 
ATOM      5  C   UNL     1      -2.290   1.847  -3.402  0.00  0.00    +0.086 A 
ATOM      6  C   UNL     1      -0.030   1.083   0.018  0.00  0.00    +0.043 C 
ATOM      7  C   UNL     1      -0.799   1.255   1.329  0.00  0.00    +0.005 C 
ATOM      8  C   UNL     1       0.130   0.941   2.506  0.00  0.00    +0.000 C 
ATOM      9  C   UNL     1       0.141   2.123   3.477  0.00  0.00    +0.000 C 
ATOM     10  C   UNL     1       0.994   3.253   2.897  0.00  0.00    +0.000 C 
ATOM     11  C   UNL     1       0.119   4.489   2.674  0.00  0.00    +0.000 C 
ATOM     12  C   UNL     1       0.843   5.464   1.744  0.00  0.00    +0.000 C 
ATOM     13  C   UNL     1      -0.035   5.758   0.527  0.00  0.00    +0.000 C 
ATOM     14  C   UNL     1      -0.054   4.537  -0.395  0.00  0.00    +0.005 C 
ATOM     15  C   UNL     1      -1.399   3.820  -0.263  0.00  0.00    +0.037 C 
ENDROOT
BRANCH   5  16
ATOM     16  N   UNL     1      -2.938   1.761  -4.624  0.00  0.00    -0.279 N 
ATOM     17  C   UNL     1      -2.856   0.630  -5.352  0.00  0.00    +0.222 C 
ATOM     18  O   UNL     1      -2.215  -0.313  -4.938  0.00  0.00    -0.275 OA
ATOM     19  H   UNL     1      -3.451   2.514  -4.955  0.00  0.00    +0.155 HD
BRANCH  17  20
ATOM     20  C   UNL     1      -3.560   0.536  -6.681  0.00  0.00    +0.093 C 
ATOM     21  C   UNL     1      -4.149  -0.866  -6.854  0.00  0.00    +0.040 C 
ATOM     22  C   UNL     1      -3.049  -1.867  -7.055  0.00  0.00    -0.030 C 
ATOM     23  C   UNL     1      -1.838  -1.556  -7.392  0.00  0.00    -0.030 C 
ATOM     24  C   UNL     1      -1.363  -0.151  -7.618  0.00  0.00    +0.042 C 
ATOM     25  C   UNL     1      -2.558   0.785  -7.815  0.00  0.00    +0.118 C 
BRANCH  25  26
ATOM     26  C   UNL     1      -2.095   2.219  -7.777  0.00  0.00    +0.360 C 
ATOM     27  O   UNL     1      -2.522   2.969  -6.932  0.00  0.00    -0.246 OA
ATOM     28  O   UNL     1      -1.210   2.662  -8.683  0.00  0.00    -0.246 OA
ENDBRANCH  25  26
ENDBRANCH  17  20
ENDBRANCH   5  16
BRANCH   1  29
ATOM     29  C   UNL     1      -2.958   4.171  -2.796  0.00  0.00    +0.342 C 
ATOM     30  O   UNL     1      -2.390   5.064  -3.396  0.00  0.00    -0.245 OA
BRANCH  29  32
ATOM     31  C   UNL     1      -4.867   5.605  -2.707  0.00  0.00    +0.280 C 
ATOM     32  O   UNL     1      -4.234   4.336  -2.393  0.00  0.00    -0.464 OA
ENDBRANCH  29  32
ENDBRANCH   1  29
TORSDOF 5
