REMARK  Name = ZINC10928643
REMARK  10 active torsions:
REMARK  status: ('A' for Active; 'I' for Inactive)
REMARK    1  A    between atoms: C_2  and  C_3
REMARK    2  A    between atoms: C_3  and  N_4
REMARK    3  A    between atoms: C_5  and  C_26
REMARK    4  A    between atoms: C_8  and  S_9
REMARK    5  A    between atoms: S_9  and  C_10
REMARK    6  A    between atoms: C_10  and  C_11
REMARK    7  A    between atoms: C_11  and  C_12
REMARK    8  A    between atoms: N_14  and  C_15
REMARK    9  A    between atoms: C_16  and  C_24
REMARK   10  A    between atoms: C_29  and  N_32
REMARK                            x       y       z     vdW  Elec       q    Type
REMARK                         _______ _______ _______ _____ _____    ______ ____
ROOT
ATOM      1  S   UNL     1      -0.942  -4.120   0.638  0.00  0.00    -0.086 S 
ENDROOT
BRANCH   1   6
ATOM      2  N   UNL     1      -1.783  -1.934  -0.891  0.00  0.00    -0.298 N 
ATOM      3  C   UNL     1      -1.796  -1.605  -2.227  0.00  0.00    +0.165 A 
ATOM      4  N   UNL     1      -1.278  -2.619  -2.880  0.00  0.00    -0.128 NA
ATOM      5  N   UNL     1      -0.946  -3.547  -2.055  0.00  0.00    -0.122 NA
ATOM      6  C   UNL     1      -1.227  -3.180  -0.825  0.00  0.00    +0.192 A 
BRANCH   3   7
ATOM      7  C   UNL     1      -2.300  -0.346  -2.817  0.00  0.00    +0.019 A 
ATOM      8  C   UNL     1      -2.914  -0.355  -4.070  0.00  0.00    +0.014 A 
ATOM      9  C   UNL     1      -3.382   0.823  -4.614  0.00  0.00    +0.033 A 
ATOM     10  C   UNL     1      -3.243   2.012  -3.920  0.00  0.00    +0.126 A 
ATOM     11  C   UNL     1      -2.634   2.029  -2.678  0.00  0.00    +0.033 A 
ATOM     12  C   UNL     1      -2.167   0.856  -2.120  0.00  0.00    +0.014 A 
BRANCH  10  13
ATOM     13  N   UNL     1      -3.747   3.273  -4.510  0.00  0.00    +0.056 N 
ATOM     14  O   UNL     1      -4.279   3.262  -5.596  0.00  0.00    -0.126 OA
ATOM     15  O   UNL     1      -3.627   4.314  -3.906  0.00  0.00    -0.126 OA
ENDBRANCH  10  13
ENDBRANCH   3   7
BRANCH   2  16
ATOM     16  C   UNL     1      -2.260  -1.117   0.227  0.00  0.00    +0.152 C 
BRANCH  16  18
ATOM     17  C   UNL     1      -1.163   0.927   0.989  0.00  0.00    +0.005 C 
ATOM     18  C   UNL     1      -1.100  -0.372   0.836  0.00  0.00    -0.013 C 
ENDBRANCH  16  18
ENDBRANCH   2  16
ENDBRANCH   1   6
BRANCH   1  19
ATOM     19  C   UNL     1      -0.191  -5.656   0.032  0.00  0.00    +0.086 C 
BRANCH  19  20
ATOM     20  C   UNL     1       0.112  -6.577   1.216  0.00  0.00    +0.107 C 
BRANCH  20  21
ATOM     21  C   UNL     1       0.736  -7.853   0.713  0.00  0.00    +0.218 C 
ATOM     22  O   UNL     1       0.921  -8.011  -0.475  0.00  0.00    -0.275 OA
ATOM     23  N   UNL     1       1.089  -8.820   1.584  0.00  0.00    -0.279 N 
ATOM     24  H   UNL     1       0.941  -8.694   2.534  0.00  0.00    +0.155 HD
BRANCH  23  25
ATOM     25  C   UNL     1       1.664  -9.995   1.121  0.00  0.00    +0.090 A 
ATOM     26  C   UNL     1       2.081 -11.088   1.862  0.00  0.00    +0.084 A 
ATOM     27  C   UNL     1       2.656 -12.205   1.133  0.00  0.00    -0.018 A 
ATOM     28  C   UNL     1       2.709 -12.023  -0.205  0.00  0.00    -0.004 A 
ATOM     29  S   UNL     1       2.008 -10.420  -0.467  0.00  0.00    -0.077 S 
ATOM     30  C   UNL     1       3.244 -12.982  -1.223  0.00  0.00    +0.043 C 
ATOM     31  C   UNL     1       4.071 -14.050  -0.491  0.00  0.00    +0.005 C 
ATOM     32  C   UNL     1       3.263 -14.570   0.702  0.00  0.00    +0.005 C 
ATOM     33  C   UNL     1       3.165 -13.486   1.777  0.00  0.00    +0.037 C 
BRANCH  26  34
ATOM     34  C   UNL     1       1.950 -11.117   3.288  0.00  0.00    +0.102 C 
ATOM     35  N   UNL     1       1.847 -11.139   4.418  0.00  0.00    -0.191 NA
ENDBRANCH  26  34
ENDBRANCH  23  25
ENDBRANCH  20  21
ENDBRANCH  19  20
ENDBRANCH   1  19
TORSDOF 10
