REMARK  Name = ZINC08648418
REMARK  8 active torsions:
REMARK  status: ('A' for Active; 'I' for Inactive)
REMARK    1  A    between atoms: C_1  and  C_2
REMARK    2  A    between atoms: C_2  and  C_3
REMARK    3  A    between atoms: C_2  and  C_4
REMARK    4  A    between atoms: C_2  and  C_5
REMARK    5  A    between atoms: C_8  and  S_11
REMARK    6  A    between atoms: S_11  and  N_14
REMARK    7  A    between atoms: N_18  and  C_21
REMARK    8  A    between atoms: C_24  and  C_26
REMARK                            x       y       z     vdW  Elec       q    Type
REMARK                         _______ _______ _______ _____ _____    ______ ____
ROOT
ATOM      1  N   UNL     1       1.224  -2.923  -1.605  0.00  0.00    -0.106 NA
ATOM      2  S   UNL     1       1.225  -4.373  -1.963  0.00  0.00    -0.070 S 
ATOM      3  C   UNL     1       2.906  -4.930  -1.541  0.00  0.00    +0.102 C 
ATOM      4  C   UNL     1       3.204  -6.207  -2.334  0.00  0.00    +0.118 C 
ATOM      5  N   UNL     1       3.149  -5.925  -3.770  0.00  0.00    -0.314 N 
ATOM      6  C   UNL     1       1.781  -5.733  -4.256  0.00  0.00    +0.118 C 
ATOM      7  C   UNL     1       1.246  -4.377  -3.783  0.00  0.00    +0.102 C 
ENDROOT
BRANCH   5   8
ATOM      8  C   UNL     1       3.803  -6.914  -4.498  0.00  0.00    +0.118 A 
ATOM      9  C   UNL     1       5.157  -6.773  -4.792  0.00  0.00    +0.079 A 
ATOM     10  C   UNL     1       5.795  -7.768  -5.512  0.00  0.00    +0.037 A 
ATOM     11  C   UNL     1       5.053  -8.867  -5.925  0.00  0.00    +0.072 A 
ATOM     12  C   UNL     1       3.713  -8.938  -5.602  0.00  0.00    +0.096 A 
ATOM     13 CL   UNL     1       6.033  -5.373  -4.257  0.00  0.00    -0.080 Cl
ATOM     14  N   UNL     1       3.054  -7.984  -4.892  0.00  0.00    -0.348 N 
ATOM     15  H   UNL     1       2.056  -8.063  -4.667  0.00  0.00    +0.167 HD
BRANCH  11  16
ATOM     16  C   UNL     1       5.705  -9.972  -6.716  0.00  0.00    +0.419 C 
ATOM     17  F   UNL     1       4.757 -10.958  -7.009  0.00  0.00    -0.166 F 
ATOM     18  F   UNL     1       6.220  -9.450  -7.908  0.00  0.00    -0.166 F 
ATOM     19  F   UNL     1       6.744 -10.532  -5.965  0.00  0.00    -0.166 F 
ENDBRANCH  11  16
ENDBRANCH   5   8
BRANCH   1  20
ATOM     20  S   UNL     1       1.207  -2.463  -0.014  0.00  0.00    +0.104 S 
ATOM     21  O   UNL     1       2.445  -2.883   0.544  0.00  0.00    -0.146 OA
ATOM     22  O   UNL     1      -0.046  -2.877   0.515  0.00  0.00    -0.146 OA
BRANCH  20  26
ATOM     23  C   UNL     1       1.216   2.062   0.074  0.00  0.00    -0.042 A 
ATOM     24  C   UNL     1       0.017   1.374   0.046  0.00  0.00    +0.006 A 
ATOM     25  C   UNL     1       0.014  -0.008   0.019  0.00  0.00    +0.029 A 
ATOM     26  C   UNL     1       1.210  -0.702   0.019  0.00  0.00    +0.113 A 
ATOM     27  C   UNL     1       2.409  -0.013   0.047  0.00  0.00    +0.029 A 
ATOM     28  C   UNL     1       2.411   1.369   0.073  0.00  0.00    +0.006 A 
BRANCH  23  30
ATOM     29  C   UNL     1       0.483   4.057   1.353  0.00  0.00    +0.015 C 
ATOM     30  C   UNL     1       1.219   3.569   0.103  0.00  0.00    -0.013 C 
ATOM     31  C   UNL     1       2.662   4.076   0.130  0.00  0.00    +0.015 C 
ATOM     32  C   UNL     1       0.514   4.105  -1.145  0.00  0.00    +0.015 C 
ENDBRANCH  23  30
ENDBRANCH  20  26
ENDBRANCH   1  20
TORSDOF 5
