REMARK  Name = ZINC20912905
REMARK  9 active torsions:
REMARK  status: ('A' for Active; 'I' for Inactive)
REMARK    1  A    between atoms: C_10  and  C_11
REMARK    2  A    between atoms: N_12  and  N_13
REMARK    3  A    between atoms: C_17  and  S_20
REMARK    4  A    between atoms: N_18  and  N_19
REMARK    5  A    between atoms: S_20  and  C_21
REMARK    6  A    between atoms: C_21  and  C_22
REMARK    7  A    between atoms: C_22  and  C_23
REMARK    8  A    between atoms: N_25  and  C_26
REMARK    9  A    between atoms: C_26  and  C_27
REMARK                            x       y       z     vdW  Elec       q    Type
REMARK                         _______ _______ _______ _____ _____    ______ ____
ROOT
ATOM      1  N   UNL     1       0.002  -0.004   0.009  0.00  0.00    -0.204 N 
ATOM      2  C   UNL     1      -1.189  -0.714   0.025  0.00  0.00    +0.254 A 
ATOM      3  N   UNL     1      -2.394  -0.197   0.053  0.00  0.00    -0.109 NA
ATOM      4  N   UNL     1      -3.317  -1.251   0.057  0.00  0.00    -0.119 NA
ATOM      5  C   UNL     1      -2.646  -2.378   0.040  0.00  0.00    +0.210 A 
ATOM      6  N   UNL     1      -1.314  -2.076   0.020  0.00  0.00    -0.211 N 
ATOM      7  H   UNL     1       0.962  -0.541  -0.009  0.00  0.00    +0.177 HD
ENDROOT
BRANCH   6   8
ATOM      8  N   UNL     1      -0.287  -2.976  -0.003  0.00  0.00    -0.294 N 
ATOM      9  H   UNL     1      -0.501  -4.055  -0.005  0.00  0.00    +0.163 HD
ATOM     10  H   UNL     1       0.755  -2.622  -0.018  0.00  0.00    +0.163 HD
ENDBRANCH   6   8
BRANCH   1  12
ATOM     11  C   UNL     1       1.100   2.062   0.003  0.00  0.00    +0.139 C 
ATOM     12  N   UNL     1      -0.017   1.397   0.017  0.00  0.00    -0.187 NA
BRANCH  11  22
ATOM     13  C   UNL     1      -2.543   5.706  -0.240  0.00  0.00    +0.001 A 
ATOM     14  C   UNL     1      -2.565   4.313  -0.250  0.00  0.00    +0.001 A 
ATOM     15  C   UNL     1      -1.409   3.594  -0.171  0.00  0.00    +0.009 A 
ATOM     16  C   UNL     1      -0.183   4.262  -0.077  0.00  0.00    -0.009 A 
ATOM     17  C   UNL     1      -0.157   5.678  -0.066  0.00  0.00    -0.017 A 
ATOM     18  C   UNL     1      -1.368   6.388  -0.149  0.00  0.00    +0.008 A 
ATOM     19  C   UNL     1       1.076   6.346   0.028  0.00  0.00    +0.008 A 
ATOM     20  C   UNL     1       2.240   5.646   0.108  0.00  0.00    +0.001 A 
ATOM     21  C   UNL     1       2.262   4.258   0.107  0.00  0.00    +0.010 A 
ATOM     22  C   UNL     1       1.080   3.532   0.011  0.00  0.00    +0.002 A 
ENDBRANCH  11  22
ENDBRANCH   1  12
BRANCH   5  23
ATOM     23  S   UNL     1      -3.340  -3.997   0.043  0.00  0.00    -0.084 S 
BRANCH  23  24
ATOM     24  C   UNL     1      -5.102  -3.584   0.074  0.00  0.00    +0.086 C 
BRANCH  24  25
ATOM     25  C   UNL     1      -5.928  -4.872   0.081  0.00  0.00    +0.107 C 
BRANCH  25  26
ATOM     26  C   UNL     1      -7.395  -4.527   0.107  0.00  0.00    +0.214 C 
ATOM     27  O   UNL     1      -7.745  -3.366   0.119  0.00  0.00    -0.276 OA
ATOM     28  N   UNL     1      -8.318  -5.510   0.118  0.00  0.00    -0.311 N 
ATOM     29  H   UNL     1      -8.000  -6.563   0.107  0.00  0.00    +0.149 HD
BRANCH  28  30
ATOM     30  C   UNL     1      -9.744  -5.175   0.143  0.00  0.00    +0.139 C 
BRANCH  30  31
ATOM     31  C   UNL     1     -10.557  -6.443   0.150  0.00  0.00    -0.027 A 
ATOM     32  C   UNL     1     -10.954  -7.014  -1.045  0.00  0.00    +0.009 A 
ATOM     33  C   UNL     1     -11.696  -8.181  -1.044  0.00  0.00    +0.050 A 
ATOM     34  C   UNL     1     -12.054  -8.774   0.156  0.00  0.00    +0.166 A 
ATOM     35  C   UNL     1     -11.658  -8.196   1.359  0.00  0.00    +0.167 A 
ATOM     36  C   UNL     1     -10.910  -7.030   1.351  0.00  0.00    +0.054 A 
ATOM     37  O   UNL     1     -12.130  -8.962   2.387  0.00  0.00    -0.453 OA
ATOM     38  C   UNL     1     -13.160  -9.786   1.811  0.00  0.00    +0.466 C 
ATOM     39  O   UNL     1     -12.773  -9.902   0.429  0.00  0.00    -0.453 OA
ENDBRANCH  30  31
ENDBRANCH  28  30
ENDBRANCH  25  26
ENDBRANCH  24  25
ENDBRANCH  23  24
ENDBRANCH   5  23
TORSDOF 9
