REMARK  Name = ZINC39694250
REMARK  9 active torsions:
REMARK  status: ('A' for Active; 'I' for Inactive)
REMARK    1  A    between atoms: C_1  and  C_2
REMARK    2  A    between atoms: C_2  and  C_3
REMARK    3  A    between atoms: C_3  and  C_4
REMARK    4  A    between atoms: C_4  and  C_6
REMARK    5  A    between atoms: C_4  and  C_7
REMARK    6  A    between atoms: C_11  and  C_20
REMARK    7  A    between atoms: N_22  and  C_23
REMARK    8  A    between atoms: C_23  and  C_24
REMARK    9  A    between atoms: C_29  and  N_30
REMARK                            x       y       z     vdW  Elec       q    Type
REMARK                         _______ _______ _______ _____ _____    ______ ____
ROOT
ATOM      1  C   UNL     1       0.788  -1.805  -2.932  0.00  0.00    +0.218 C 
ATOM      2  O   UNL     1       0.135  -1.300  -2.043  0.00  0.00    -0.275 OA
ATOM      3  N   UNL     1       0.771  -3.142  -3.103  0.00  0.00    -0.300 N 
ATOM      4  C   UNL     1      -0.051  -4.140  -2.380  0.00  0.00    +0.121 C 
ATOM      5  C   UNL     1      -0.471  -5.158  -3.464  0.00  0.00    +0.100 C 
ATOM      6  C   UNL     1       0.598  -5.027  -4.562  0.00  0.00    -0.004 C 
ATOM      7  C   UNL     1       1.567  -3.945  -4.063  0.00  0.00    +0.115 C 
ATOM      8  C   UNL     1       1.333  -6.351  -4.745  0.00  0.00    -0.010 C 
ATOM      9  C   UNL     1       2.351  -6.212  -5.880  0.00  0.00    -0.082 C 
ATOM     10  N   UNL     1       1.657  -5.839  -7.119  0.00  0.00    +0.379 N 
ATOM     11  C   UNL     1       1.030  -4.521  -6.965  0.00  0.00    -0.082 C 
ATOM     12  C   UNL     1      -0.044  -4.589  -5.875  0.00  0.00    -0.010 C 
ATOM     13  H   UNL     1       2.320  -5.808  -7.878  0.00  0.00    -0.086 HD
ATOM     14  H   UNL     1       0.947  -6.526  -7.325  0.00  0.00    -0.086 HD
ENDROOT
BRANCH   5  15
ATOM     15  C   UNL     1      -1.832  -4.812  -4.010  0.00  0.00    +0.218 C 
ATOM     16  O   UNL     1      -2.207  -3.658  -4.018  0.00  0.00    -0.275 OA
ATOM     17  N   UNL     1      -2.633  -5.784  -4.490  0.00  0.00    -0.311 N 
ATOM     18  H   UNL     1      -2.364  -6.713  -4.420  0.00  0.00    +0.149 HD
BRANCH  17  19
ATOM     19  C   UNL     1      -3.910  -5.436  -5.119  0.00  0.00    +0.141 C 
BRANCH  19  20
ATOM     20  C   UNL     1      -4.661  -6.697  -5.461  0.00  0.00    -0.009 A 
ATOM     21  C   UNL     1      -4.668  -7.166  -6.761  0.00  0.00    +0.007 A 
ATOM     22  C   UNL     1      -5.357  -8.323  -7.076  0.00  0.00    +0.000 A 
ATOM     23  C   UNL     1      -6.040  -9.015  -6.093  0.00  0.00    +0.002 A 
ATOM     24  C   UNL     1      -6.037  -8.552  -4.792  0.00  0.00    +0.023 A 
ATOM     25  C   UNL     1      -5.341  -7.393  -4.470  0.00  0.00    +0.035 A 
BRANCH  25  26
ATOM     26  N   UNL     1      -5.331  -6.925  -3.154  0.00  0.00    -0.325 N 
ATOM     27  C   UNL     1      -6.355  -5.981  -2.678  0.00  0.00    +0.133 C 
ATOM     28  C   UNL     1      -6.947  -6.528  -1.374  0.00  0.00    +0.178 C 
ATOM     29  O   UNL     1      -5.886  -6.826  -0.464  0.00  0.00    -0.377 OA
ATOM     30  C   UNL     1      -4.989  -7.840  -0.922  0.00  0.00    +0.178 C 
ATOM     31  C   UNL     1      -4.300  -7.365  -2.201  0.00  0.00    +0.133 C 
ENDBRANCH  25  26
ENDBRANCH  19  20
ENDBRANCH  17  19
ENDBRANCH   5  15
BRANCH   1  32
ATOM     32  C   UNL     1       1.617  -0.938  -3.844  0.00  0.00    +0.072 C 
ATOM     33  C   UNL     1       3.038  -0.825  -3.287  0.00  0.00    +0.017 C 
BRANCH  32  34
ATOM     34  C   UNL     1       0.991   0.455  -3.932  0.00  0.00    +0.012 C 
BRANCH  34  36
ATOM     35  C   UNL     1       1.137   2.691  -5.037  0.00  0.00    +0.004 C 
ATOM     36  C   UNL     1       1.751   1.291  -4.963  0.00  0.00    -0.003 C 
ENDBRANCH  34  36
ENDBRANCH  32  34
ENDBRANCH   1  32
TORSDOF 7
