REMARK  Name = ZINC10019152
REMARK  8 active torsions:
REMARK  status: ('A' for Active; 'I' for Inactive)
REMARK    1  A    between atoms: C_1  and  C_2
REMARK    2  A    between atoms: C_2  and  O_3
REMARK    3  A    between atoms: O_3  and  C_4
REMARK    4  A    between atoms: C_13  and  C_14
REMARK    5  A    between atoms: N_16  and  C_17
REMARK    6  A    between atoms: C_17  and  C_18
REMARK    7  A    between atoms: C_18  and  C_20
REMARK    8  A    between atoms: C_18  and  N_63
REMARK                            x       y       z     vdW  Elec       q    Type
REMARK                         _______ _______ _______ _____ _____    ______ ____
ROOT
ATOM      1  C   UNL     1       1.615   5.803  -1.165  0.00  0.00    +0.094 C 
ENDROOT
BRANCH   1   4
ATOM      2  C   UNL     1       2.149   3.734   0.005  0.00  0.00    +0.248 C 
ATOM      3  O   UNL     1       2.338   4.388   1.014  0.00  0.00    -0.270 OA
ATOM      4  N   UNL     1       1.784   4.348  -1.137  0.00  0.00    -0.312 N 
ATOM      5  H   UNL     1       1.634   3.827  -1.942  0.00  0.00    +0.149 HD
BRANCH   2  15
ATOM      6  C   UNL     1       1.248   1.437   0.345  0.00  0.00    +0.133 A 
ATOM      7  C   UNL     1       1.417   0.051   0.369  0.00  0.00    +0.047 A 
ATOM      8  C   UNL     1       2.614  -0.528   0.093  0.00  0.00    +0.012 A 
ATOM      9  C   UNL     1       3.736   0.257  -0.230  0.00  0.00    -0.017 A 
ATOM     10  C   UNL     1       4.979  -0.333  -0.518  0.00  0.00    +0.008 A 
ATOM     11  C   UNL     1       6.044   0.458  -0.827  0.00  0.00    +0.001 A 
ATOM     12  C   UNL     1       5.922   1.844  -0.863  0.00  0.00    +0.001 A 
ATOM     13  C   UNL     1       4.731   2.449  -0.589  0.00  0.00    +0.009 A 
ATOM     14  C   UNL     1       3.615   1.667  -0.267  0.00  0.00    -0.002 A 
ATOM     15  C   UNL     1       2.319   2.274   0.033  0.00  0.00    +0.086 A 
BRANCH   6  16
ATOM     16  O   UNL     1       0.033   1.972   0.622  0.00  0.00    -0.491 OA
BRANCH  16  18
ATOM     17  C   UNL     1      -2.307   1.843   1.211  0.00  0.00    +0.048 C 
ATOM     18  C   UNL     1      -1.023   1.060   0.929  0.00  0.00    +0.226 C 
ENDBRANCH  16  18
ENDBRANCH   6  16
ENDBRANCH   2  15
ENDBRANCH   1   4
BRANCH   1  19
ATOM     19  C   UNL     1       1.247   6.247  -2.582  0.00  0.00    -0.020 C 
BRANCH  19  20
ATOM     20  C   UNL     1       1.195   7.752  -2.639  0.00  0.00    -0.052 A 
ATOM     21  C   UNL     1       2.296   8.461  -3.013  0.00  0.00    +0.003 A 
ATOM     22  C   UNL     1       2.265   9.853  -3.076  0.00  0.00    +0.001 A 
ATOM     23  C   UNL     1       1.137  10.544  -2.757  0.00  0.00    +0.008 A 
ATOM     24  C   UNL     1      -0.017   9.847  -2.363  0.00  0.00    -0.018 A 
ATOM     25  C   UNL     1       0.012   8.431  -2.303  0.00  0.00    -0.016 A 
ATOM     26  C   UNL     1      -1.143   7.735  -1.908  0.00  0.00    +0.009 A 
ATOM     27  C   UNL     1      -2.271   8.426  -1.590  0.00  0.00    +0.001 A 
ATOM     28  C   UNL     1      -2.300   9.819  -1.649  0.00  0.00    +0.001 A 
ATOM     29  C   UNL     1      -1.201  10.527  -2.027  0.00  0.00    +0.008 A 
ENDBRANCH  19  20
BRANCH  19  34
ATOM     30  C   UNL     1       2.174   6.480  -4.821  0.00  0.00    -0.078 C 
ATOM     31  C   UNL     1       3.567   6.237  -5.455  0.00  0.00    -0.020 C 
ATOM     32  C   UNL     1       4.516   6.298  -4.236  0.00  0.00    -0.020 C 
ATOM     33  C   UNL     1       3.625   6.001  -3.016  0.00  0.00    -0.078 C 
ATOM     34  N   UNL     1       2.281   5.759  -3.543  0.00  0.00    +0.385 N 
ATOM     35  H   UNL     1       2.146   4.753  -3.700  0.00  0.00    -0.081 HD
ENDBRANCH  19  34
ENDBRANCH   1  19
TORSDOF 7
