REMARK  Name = ZINC39665561
REMARK  10 active torsions:
REMARK  status: ('A' for Active; 'I' for Inactive)
REMARK    1  A    between atoms: C_1  and  C_2
REMARK    2  A    between atoms: C_2  and  C_4
REMARK    3  A    between atoms: C_2  and  O_31
REMARK    4  A    between atoms: C_4  and  N_5
REMARK    5  A    between atoms: C_6  and  C_8
REMARK    6  A    between atoms: C_19  and  C_21
REMARK    7  A    between atoms: C_24  and  C_27
REMARK    8  A    between atoms: O_31  and  C_32
REMARK    9  A    between atoms: C_35  and  O_38
REMARK   10  A    between atoms: O_38  and  C_39
REMARK                            x       y       z     vdW  Elec       q    Type
REMARK                         _______ _______ _______ _____ _____    ______ ____
ROOT
ATOM      1  C   UNL     1       2.832  -2.183   3.169  0.00  0.00    +0.100 C 
ATOM      2  C   UNL     1       1.489  -2.912   3.400  0.00  0.00    +0.121 C 
ATOM      3  N   UNL     1       1.770  -3.878   4.488  0.00  0.00    -0.296 N 
ATOM      4  C   UNL     1       2.660  -3.140   5.416  0.00  0.00    +0.115 C 
ATOM      5  C   UNL     1       3.597  -2.334   4.494  0.00  0.00    -0.004 C 
ATOM      6  C   UNL     1       3.880  -0.963   5.100  0.00  0.00    -0.010 C 
ATOM      7  C   UNL     1       4.692  -1.136   6.387  0.00  0.00    -0.082 C 
ATOM      8  N   UNL     1       5.950  -1.829   6.084  0.00  0.00    +0.379 N 
ATOM      9  C   UNL     1       5.670  -3.182   5.590  0.00  0.00    -0.082 C 
ATOM     10  C   UNL     1       4.899  -3.095   4.269  0.00  0.00    -0.010 C 
ATOM     11  C   UNL     1       1.320  -5.143   4.606  0.00  0.00    +0.247 C 
ATOM     12  O   UNL     1       0.682  -5.648   3.703  0.00  0.00    -0.270 OA
ATOM     13  H   UNL     1       6.456  -1.313   5.380  0.00  0.00    -0.086 HD
ATOM     14  H   UNL     1       6.510  -1.888   6.922  0.00  0.00    -0.086 HD
ENDROOT
BRANCH  11  15
ATOM     15  C   UNL     1       1.602  -5.916   5.834  0.00  0.00    +0.037 A 
ATOM     16  C   UNL     1       1.918  -5.255   7.022  0.00  0.00    +0.013 A 
ATOM     17  C   UNL     1       2.180  -5.982   8.165  0.00  0.00    +0.013 A 
ATOM     18  C   UNL     1       2.130  -7.364   8.135  0.00  0.00    +0.055 A 
ATOM     19  C   UNL     1       1.817  -8.026   6.961  0.00  0.00    +0.013 A 
ATOM     20  C   UNL     1       1.548  -7.311   5.813  0.00  0.00    +0.013 A 
BRANCH  18  21
ATOM     21  C   UNL     1       2.417  -8.152   9.387  0.00  0.00    +0.417 C 
ATOM     22  F   UNL     1       1.227  -8.357  10.093  0.00  0.00    -0.166 F 
ATOM     23  F   UNL     1       2.973  -9.389   9.042  0.00  0.00    -0.166 F 
ATOM     24  F   UNL     1       3.319  -7.443  10.188  0.00  0.00    -0.166 F 
ENDBRANCH  18  21
ENDBRANCH  11  15
BRANCH   1  26
ATOM     25  N   UNL     1       3.461  -0.049   2.088  0.00  0.00    -0.312 N 
ATOM     26  C   UNL     1       2.592  -0.727   2.864  0.00  0.00    +0.218 C 
ATOM     27  O   UNL     1       1.618  -0.164   3.317  0.00  0.00    -0.275 OA
ATOM     28  H   UNL     1       4.240  -0.498   1.725  0.00  0.00    +0.149 HD
BRANCH  25  29
ATOM     29  C   UNL     1       3.228   1.367   1.792  0.00  0.00    +0.148 C 
BRANCH  29  31
ATOM     30  C   UNL     1       4.109   3.371   0.589  0.00  0.00    +0.053 C 
ATOM     31  C   UNL     1       4.353   1.893   0.898  0.00  0.00    +0.187 C 
BRANCH  31  32
ATOM     32  O   UNL     1       5.604   1.747   1.571  0.00  0.00    -0.488 OA
BRANCH  32  33
ATOM     33  C   UNL     1       6.717   1.659   0.795  0.00  0.00    +0.121 A 
ATOM     34  C   UNL     1       7.949   1.395   1.375  0.00  0.00    +0.049 A 
ATOM     35  C   UNL     1       9.079   1.305   0.586  0.00  0.00    +0.049 A 
ATOM     36  C   UNL     1       8.982   1.479  -0.787  0.00  0.00    +0.120 A 
ATOM     37  C   UNL     1       7.750   1.743  -1.367  0.00  0.00    +0.049 A 
ATOM     38  C   UNL     1       6.619   1.828  -0.578  0.00  0.00    +0.049 A 
BRANCH  36  39
ATOM     39  O   UNL     1      10.095   1.392  -1.563  0.00  0.00    -0.495 OA
ATOM     40  C   UNL     1       9.921   1.582  -2.969  0.00  0.00    +0.277 C 
ENDBRANCH  36  39
ENDBRANCH  32  33
ENDBRANCH  31  32
ENDBRANCH  29  31
ENDBRANCH  25  29
ENDBRANCH   1  26
TORSDOF 8
