REMARK  Name = ZINC28656092
REMARK  12 active torsions:
REMARK  status: ('A' for Active; 'I' for Inactive)
REMARK    1  A    between atoms: C_1  and  N_2
REMARK    2  A    between atoms: C_6  and  C_7
REMARK    3  A    between atoms: C_7  and  C_9
REMARK    4  A    between atoms: C_7  and  N_16
REMARK    5  A    between atoms: N_16  and  C_17
REMARK    6  A    between atoms: C_17  and  C_18
REMARK    7  A    between atoms: C_18  and  C_20
REMARK    8  A    between atoms: C_18  and  O_37
REMARK    9  A    between atoms: C_20  and  O_21
REMARK   10  A    between atoms: O_21  and  C_22
REMARK   11  A    between atoms: C_22  and  C_23
REMARK   12  A    between atoms: C_22  and  C_30
REMARK                            x       y       z     vdW  Elec       q    Type
REMARK                         _______ _______ _______ _____ _____    ______ ____
ROOT
ATOM      1  C   UNL     1      -2.628   2.301   2.807  0.00  0.00    +0.154 C 
ENDROOT
BRANCH   1   2
ATOM      2  O   UNL     1      -2.375   3.006   1.589  0.00  0.00    -0.388 OA
ATOM      3  H   UNL     1      -2.757   2.587   0.806  0.00  0.00    +0.210 HD
ENDBRANCH   1   2
BRANCH   1   4
ATOM      4  C   UNL     1      -2.036   0.893   2.713  0.00  0.00    +0.115 C 
BRANCH   4   5
ATOM      5  N   UNL     1      -0.574   0.982   2.612  0.00  0.00    -0.301 NA
ATOM      6  H   UNL     1      -0.188   1.500   3.388  0.00  0.00    +0.123 HD
BRANCH   5   7
ATOM      7  C   UNL     1       0.030  -0.354   2.521  0.00  0.00    +0.149 C 
BRANCH   7  13
ATOM      8  C   UNL     1      -0.018   1.461   0.010  0.00  0.00    +0.150 C 
ATOM      9  N   UNL     1       0.002  -0.004   0.002  0.00  0.00    -0.337 N 
ATOM     10  C   UNL     1       0.009  -0.810  -1.104  0.00  0.00    +0.104 A 
ATOM     11  C   UNL     1       0.029  -2.081  -0.660  0.00  0.00    +0.102 A 
ATOM     12  N   UNL     1       0.034  -2.052   0.681  0.00  0.00    -0.348 N 
ATOM     13  C   UNL     1       0.023  -0.811   1.085  0.00  0.00    +0.109 A 
ATOM     14  H   UNL     1       0.048  -2.831   1.260  0.00  0.00    +0.166 HD
ENDBRANCH   7  13
BRANCH   7  15
ATOM     15  C   UNL     1       1.449  -0.300   3.024  0.00  0.00    -0.023 A 
ATOM     16  C   UNL     1       2.250   0.784   2.717  0.00  0.00    +0.007 A 
ATOM     17  C   UNL     1       3.552   0.834   3.178  0.00  0.00    +0.020 A 
ATOM     18  C   UNL     1       4.054  -0.201   3.948  0.00  0.00    +0.041 A 
ATOM     19  C   UNL     1       3.252  -1.285   4.254  0.00  0.00    +0.020 A 
ATOM     20  C   UNL     1       1.948  -1.332   3.797  0.00  0.00    +0.007 A 
ATOM     21 CL   UNL     1       5.689  -0.138   4.527  0.00  0.00    -0.084 Cl
ENDBRANCH   7  15
ENDBRANCH   5   7
ENDBRANCH   4   5
ENDBRANCH   1   4
BRANCH   1  22
ATOM     22  C   UNL     1      -4.137   2.206   3.037  0.00  0.00    +0.193 C 
BRANCH  22  23
ATOM     23  O   UNL     1      -4.671   3.516   3.240  0.00  0.00    -0.365 OA
BRANCH  23  24
ATOM     24  C   UNL     1      -6.082   3.540   3.465  0.00  0.00    +0.178 C 
BRANCH  24  25
ATOM     25  C   UNL     1      -6.357   3.421   4.942  0.00  0.00    -0.014 A 
ATOM     26  C   UNL     1      -5.562   4.096   5.849  0.00  0.00    +0.009 A 
ATOM     27  C   UNL     1      -5.813   3.989   7.204  0.00  0.00    +0.039 A 
ATOM     28  C   UNL     1      -6.862   3.205   7.652  0.00  0.00    +0.123 A 
ATOM     29  C   UNL     1      -7.658   2.529   6.743  0.00  0.00    +0.039 A 
ATOM     30  C   UNL     1      -7.408   2.642   5.389  0.00  0.00    +0.009 A 
ATOM     31  F   UNL     1      -7.109   3.099   8.976  0.00  0.00    -0.205 F 
ENDBRANCH  24  25
BRANCH  24  32
ATOM     32  C   UNL     1      -6.651   4.837   2.951  0.00  0.00    -0.014 A 
ATOM     33  C   UNL     1      -5.910   6.000   3.042  0.00  0.00    +0.009 A 
ATOM     34  C   UNL     1      -6.431   7.190   2.570  0.00  0.00    +0.039 A 
ATOM     35  C   UNL     1      -7.695   7.217   2.006  0.00  0.00    +0.123 A 
ATOM     36  C   UNL     1      -8.436   6.051   1.915  0.00  0.00    +0.039 A 
ATOM     37  C   UNL     1      -7.911   4.861   2.383  0.00  0.00    +0.009 A 
ATOM     38  F   UNL     1      -8.205   8.380   1.544  0.00  0.00    -0.205 F 
ENDBRANCH  24  32
ENDBRANCH  23  24
ENDBRANCH  22  23
ENDBRANCH   1  22
TORSDOF 11
