REMARK  Name = ZINC45557393
REMARK  11 active torsions:
REMARK  status: ('A' for Active; 'I' for Inactive)
REMARK    1  A    between atoms: C_1  and  C_2
REMARK    2  A    between atoms: C_2  and  C_4
REMARK    3  A    between atoms: C_2  and  N_12
REMARK    4  A    between atoms: N_12  and  C_13
REMARK    5  A    between atoms: C_13  and  C_15
REMARK    6  A    between atoms: C_13  and  C_16
REMARK    7  A    between atoms: N_18  and  C_19
REMARK    8  A    between atoms: C_23  and  S_25
REMARK    9  A    between atoms: S_25  and  N_28
REMARK   10  A    between atoms: N_28  and  C_29
REMARK   11  A    between atoms: N_28  and  C_30
REMARK                            x       y       z     vdW  Elec       q    Type
REMARK                         _______ _______ _______ _____ _____    ______ ____
ROOT
ATOM      1  C   UNL     1      -3.830  -0.311  -0.392  0.00  0.00    +0.203 C 
ATOM      2  O   UNL     1      -4.432  -0.855   0.510  0.00  0.00    -0.277 OA
ATOM      3  N   UNL     1      -4.306  -0.370  -1.651  0.00  0.00    -0.287 N 
ATOM      4  H   UNL     1      -3.790   0.005  -2.382  0.00  0.00    +0.155 HD
ENDROOT
BRANCH   3   5
ATOM      5  C   UNL     1      -5.545  -0.971  -1.904  0.00  0.00    +0.035 A 
ATOM      6  C   UNL     1      -5.754  -1.660  -3.092  0.00  0.00    +0.025 A 
ATOM      7  C   UNL     1      -6.977  -2.252  -3.339  0.00  0.00    +0.024 A 
ATOM      8  C   UNL     1      -7.994  -2.158  -2.405  0.00  0.00    +0.067 A 
ATOM      9  C   UNL     1      -7.788  -1.472  -1.221  0.00  0.00    +0.125 A 
ATOM     10  C   UNL     1      -6.564  -0.883  -0.966  0.00  0.00    +0.053 A 
ATOM     11 CL   UNL     1      -9.530  -2.902  -2.719  0.00  0.00    -0.082 Cl
BRANCH   9  12
ATOM     12  S   UNL     1      -9.085  -1.355  -0.034  0.00  0.00    +0.062 S 
ATOM     13  O   UNL     1      -8.569  -0.610   1.060  0.00  0.00    -0.153 OA
ATOM     14  O   UNL     1     -10.250  -0.958  -0.744  0.00  0.00    -0.153 OA
BRANCH  12  15
ATOM     15  N   UNL     1      -9.373  -2.885   0.529  0.00  0.00    -0.183 NA
ATOM     16  C   UNL     1      -8.529  -3.447   1.587  0.00  0.00    +0.131 C 
ATOM     17  C   UNL     1     -10.471  -3.678  -0.030  0.00  0.00    +0.131 C 
ENDBRANCH  12  15
ENDBRANCH   9  12
ENDBRANCH   3   5
BRANCH   1  18
ATOM     18  C   UNL     1      -2.550   0.430  -0.103  0.00  0.00    +0.014 C 
ATOM     19  C   UNL     1      -2.708   1.897  -0.507  0.00  0.00    -0.004 C 
BRANCH  18  20
ATOM     20  N   UNL     1      -2.248   0.347   1.332  0.00  0.00    +0.391 N 
ATOM     21  H   UNL     1      -2.254  -0.620   1.621  0.00  0.00    -0.084 HD
ATOM     22  H   UNL     1      -2.946   0.858   1.852  0.00  0.00    -0.084 HD
BRANCH  20  24
ATOM     23  C   UNL     1      -0.672   0.978   3.097  0.00  0.00    -0.009 C 
ATOM     24  C   UNL     1      -0.924   0.927   1.589  0.00  0.00    -0.042 C 
BRANCH  24  25
ATOM     25  C   UNL     1       0.133   0.078   0.931  0.00  0.00    -0.043 A 
ATOM     26  C   UNL     1      -0.149  -1.230   0.584  0.00  0.00    +0.005 A 
ATOM     27  C   UNL     1       0.819  -2.010  -0.020  0.00  0.00    +0.020 A 
ATOM     28  C   UNL     1       2.072  -1.482  -0.276  0.00  0.00    +0.042 A 
ATOM     29  C   UNL     1       2.355  -0.173   0.071  0.00  0.00    +0.040 A 
ATOM     30  C   UNL     1       1.384   0.609   0.670  0.00  0.00    +0.044 A 
ATOM     31 CL   UNL     1       1.736   2.253   1.100  0.00  0.00    -0.083 Cl
ATOM     32 CL   UNL     1       3.289  -2.461  -1.033  0.00  0.00    -0.083 Cl
ENDBRANCH  24  25
ENDBRANCH  20  24
ENDBRANCH  18  20
ENDBRANCH   1  18
TORSDOF 7
