REMARK  Name = ZINC23027619
REMARK  8 active torsions:
REMARK  status: ('A' for Active; 'I' for Inactive)
REMARK    1  A    between atoms: C_1  and  C_2
REMARK    2  A    between atoms: C_2  and  C_3
REMARK    3  A    between atoms: C_2  and  C_4
REMARK    4  A    between atoms: C_7  and  C_10
REMARK    5  A    between atoms: C_10  and  C_31
REMARK    6  A    between atoms: N_13  and  C_17
REMARK    7  A    between atoms: C_17  and  C_18
REMARK    8  A    between atoms: N_23  and  C_24
REMARK                            x       y       z     vdW  Elec       q    Type
REMARK                         _______ _______ _______ _____ _____    ______ ____
ROOT
ATOM      1  C   UNL     1       2.449   3.935  -0.007  0.00  0.00    +0.135 C 
ATOM      2  C   UNL     1       2.272   5.264  -0.713  0.00  0.00    +0.251 C 
ATOM      3  O   UNL     1       1.527   6.167  -0.397  0.00  0.00    -0.272 OA
ATOM      4  N   UNL     1       3.114   5.234  -1.764  0.00  0.00    -0.215 N 
ATOM      5  C   UNL     1       3.792   4.081  -1.821  0.00  0.00    +0.310 C 
ATOM      6  O   UNL     1       4.610   3.820  -2.680  0.00  0.00    -0.252 OA
ATOM      7  N   UNL     1       3.466   3.244  -0.819  0.00  0.00    -0.281 N 
ATOM      8  C   UNL     1       2.951   4.146   1.423  0.00  0.00    +0.047 C 
ATOM      9  H   UNL     1       3.801   2.235  -0.539  0.00  0.00    +0.152 HD
ENDROOT
BRANCH   1  13
ATOM     10  C   UNL     1      -1.214   1.738  -0.006  0.00  0.00    -0.045 A 
ATOM     11  C   UNL     1      -0.006   1.066  -0.006  0.00  0.00    +0.004 A 
ATOM     12  C   UNL     1       1.180   1.777  -0.008  0.00  0.00    +0.006 A 
ATOM     13  C   UNL     1       1.157   3.159  -0.004  0.00  0.00    -0.015 A 
ATOM     14  C   UNL     1      -0.052   3.831   0.001  0.00  0.00    +0.006 A 
ATOM     15  C   UNL     1      -1.237   3.120   0.003  0.00  0.00    +0.004 A 
BRANCH  10  17
ATOM     16  C   UNL     1      -3.317   1.315   1.238  0.00  0.00    +0.012 C 
ATOM     17  C   UNL     1      -2.506   0.962  -0.010  0.00  0.00    +0.013 C 
ATOM     18  C   UNL     1      -3.313   1.322  -1.260  0.00  0.00    +0.012 C 
ENDBRANCH  10  17
ENDBRANCH   1  13
BRANCH   4  19
ATOM     19  C   UNL     1       3.269   6.327  -2.726  0.00  0.00    +0.214 C 
BRANCH  19  20
ATOM     20  C   UNL     1       4.349   7.266  -2.251  0.00  0.00    +0.238 C 
ATOM     21  O   UNL     1       4.931   7.043  -1.211  0.00  0.00    -0.274 OA
ATOM     22  N   UNL     1       4.667   8.352  -2.982  0.00  0.00    -0.239 N 
ATOM     23  C   UNL     1       5.632   9.191  -2.557  0.00  0.00    +0.310 C 
ATOM     24  O   UNL     1       6.216   8.968  -1.514  0.00  0.00    -0.252 OA
ATOM     25  N   UNL     1       5.951  10.278  -3.287  0.00  0.00    -0.269 N 
ATOM     26  H   UNL     1       4.139   8.555  -3.925  0.00  0.00    +0.159 HD
ATOM     27  H   UNL     1       5.477  10.440  -4.267  0.00  0.00    +0.156 HD
BRANCH  25  28
ATOM     28  C   UNL     1       6.884  11.201  -2.800  0.00  0.00    +0.035 A 
ATOM     29  C   UNL     1       6.731  12.554  -3.071  0.00  0.00    +0.024 A 
ATOM     30  C   UNL     1       7.650  13.463  -2.584  0.00  0.00    +0.017 A 
ATOM     31  C   UNL     1       8.729  13.024  -1.836  0.00  0.00    +0.018 A 
ATOM     32  C   UNL     1       8.886  11.676  -1.569  0.00  0.00    +0.017 A 
ATOM     33  C   UNL     1       7.967  10.764  -2.049  0.00  0.00    +0.024 A 
ATOM     34 BR   UNL     1       9.989  14.271  -1.177  0.00  0.00    -0.050 Br
ENDBRANCH  25  28
ENDBRANCH  19  20
ENDBRANCH   4  19
TORSDOF 5
