REMARK  Name = ZINC36344093
REMARK  10 active torsions:
REMARK  status: ('A' for Active; 'I' for Inactive)
REMARK    1  A    between atoms: C_1  and  C_2
REMARK    2  A    between atoms: C_2  and  O_3
REMARK    3  A    between atoms: O_3  and  C_4
REMARK    4  A    between atoms: C_7  and  C_10
REMARK    5  A    between atoms: C_13  and  C_32
REMARK    6  A    between atoms: C_16  and  C_18
REMARK    7  A    between atoms: C_18  and  N_19
REMARK    8  A    between atoms: C_22  and  C_25
REMARK    9  A    between atoms: C_25  and  C_26
REMARK   10  A    between atoms: C_35  and  C_38
REMARK                            x       y       z     vdW  Elec       q    Type
REMARK                         _______ _______ _______ _____ _____    ______ ____
ROOT
ATOM      1  C   UNL     1       1.144  -6.059   1.764  0.00  0.00    +0.137 C 
ATOM      2  C   UNL     1       2.557  -6.535   1.372  0.00  0.00    +0.087 C 
ATOM      3  C   UNL     1       3.103  -7.144   2.643  0.00  0.00    +0.069 C 
ATOM      4  N   UNL     1       2.220  -7.053   3.577  0.00  0.00    -0.181 NA
ATOM      5  N   UNL     1       1.031  -6.437   3.182  0.00  0.00    -0.187 N 
ATOM      6  C   UNL     1      -0.044  -6.223   3.967  0.00  0.00    +0.219 C 
ATOM      7  O   UNL     1      -1.027  -5.676   3.513  0.00  0.00    -0.276 OA
ENDROOT
BRANCH   3   8
ATOM      8  C   UNL     1       4.439  -7.750   2.792  0.00  0.00    -0.002 A 
ATOM      9  C   UNL     1       5.317  -7.788   1.705  0.00  0.00    +0.010 A 
ATOM     10  C   UNL     1       6.565  -8.357   1.851  0.00  0.00    +0.004 A 
ATOM     11  C   UNL     1       6.949  -8.889   3.070  0.00  0.00    -0.050 A 
ATOM     12  C   UNL     1       6.085  -8.855   4.150  0.00  0.00    +0.004 A 
ATOM     13  C   UNL     1       4.835  -8.284   4.020  0.00  0.00    +0.010 A 
ATOM     14  C   UNL     1       8.314  -9.509   3.220  0.00  0.00    +0.044 C 
ENDBRANCH   3   8
BRANCH   1  18
ATOM     15  C   UNL     1       0.802  -1.824   1.306  0.00  0.00    +0.121 A 
ATOM     16  C   UNL     1       0.260  -2.673   0.351  0.00  0.00    +0.046 A 
ATOM     17  C   UNL     1       0.372  -4.041   0.502  0.00  0.00    +0.009 A 
ATOM     18  C   UNL     1       1.024  -4.566   1.603  0.00  0.00    -0.024 A 
ATOM     19  C   UNL     1       1.565  -3.722   2.555  0.00  0.00    +0.009 A 
ATOM     20  C   UNL     1       1.460  -2.353   2.406  0.00  0.00    +0.046 A 
BRANCH  15  21
ATOM     21  O   UNL     1       0.693  -0.477   1.160  0.00  0.00    -0.492 OA
BRANCH  21  23
ATOM     22  C   UNL     1      -0.019   1.526   0.010  0.00  0.00    +0.048 C 
ATOM     23  C   UNL     1       0.002  -0.004   0.002  0.00  0.00    +0.225 C 
ENDBRANCH  21  23
ENDBRANCH  15  21
ENDBRANCH   1  18
BRANCH   6  24
ATOM     24  C   UNL     1      -0.024  -6.664   5.408  0.00  0.00    +0.021 C 
BRANCH  24  25
ATOM     25  N   UNL     1      -1.304  -6.319   6.043  0.00  0.00    +0.385 N 
ATOM     26  C   UNL     1      -2.384  -7.083   5.408  0.00  0.00    -0.078 C 
ATOM     27  C   UNL     1      -3.729  -6.669   6.011  0.00  0.00    -0.015 C 
ATOM     28  C   UNL     1      -3.716  -6.951   7.516  0.00  0.00    -0.010 C 
ATOM     29  C   UNL     1      -2.540  -6.208   8.155  0.00  0.00    -0.015 C 
ATOM     30  C   UNL     1      -1.240  -6.640   7.473  0.00  0.00    -0.078 C 
ATOM     31  H   UNL     1      -1.480  -5.332   5.928  0.00  0.00    -0.081 HD
BRANCH  28  32
ATOM     32  C   UNL     1      -5.027  -6.466   8.138  0.00  0.00    +0.038 C 
BRANCH  32  33
ATOM     33  C   UNL     1      -5.066  -6.854   9.593  0.00  0.00    -0.047 A 
ATOM     34  C   UNL     1      -5.601  -8.072   9.970  0.00  0.00    +0.003 A 
ATOM     35  C   UNL     1      -5.637  -8.428  11.305  0.00  0.00    +0.000 A 
ATOM     36  C   UNL     1      -5.138  -7.566  12.264  0.00  0.00    +0.000 A 
ATOM     37  C   UNL     1      -4.602  -6.349  11.887  0.00  0.00    +0.000 A 
ATOM     38  C   UNL     1      -4.562  -5.995  10.552  0.00  0.00    +0.003 A 
ENDBRANCH  32  33
ENDBRANCH  28  32
ENDBRANCH  24  25
ENDBRANCH   6  24
TORSDOF 8
