REMARK  Name = ZINC16901484
REMARK  6 active torsions:
REMARK  status: ('A' for Active; 'I' for Inactive)
REMARK    1  A    between atoms: C_1  and  O_2
REMARK    2  A    between atoms: O_2  and  C_3
REMARK    3  A    between atoms: C_5  and  C_10
REMARK    4  A    between atoms: C_8  and  O_9
REMARK    5  A    between atoms: N_16  and  C_17
REMARK    6  A    between atoms: C_22  and  C_23
REMARK                            x       y       z     vdW  Elec       q    Type
REMARK                         _______ _______ _______ _____ _____    ______ ____
ROOT
ATOM      1  C   UNL     1       3.413   0.218  -3.604  0.00  0.00    +0.028 C 
ATOM      2  C   UNL     1       3.832  -0.352  -4.763  0.00  0.00    +0.078 C 
ATOM      3  C   UNL     1       4.374   0.286  -5.978  0.00  0.00    +0.256 C 
ATOM      4  O   UNL     1       4.508   1.494  -6.056  0.00  0.00    -0.269 OA
ATOM      5  N   UNL     1       4.709  -0.513  -6.976  0.00  0.00    -0.260 N 
ATOM      6  C   UNL     1       4.551  -1.877  -6.868  0.00  0.00    +0.166 C 
ATOM      7  N   UNL     1       4.830  -2.805  -7.755  0.00  0.00    -0.225 NA
ATOM      8  S   UNL     1       3.880  -2.077  -5.225  0.00  0.00    -0.049 S 
ATOM      9  H   UNL     1       5.070  -0.135  -7.794  0.00  0.00    +0.157 HD
ENDROOT
BRANCH   1  12
ATOM     10  C   UNL     1       1.984  -0.901  -0.322  0.00  0.00    +0.162 A 
ATOM     11  C   UNL     1       2.308  -0.102  -1.401  0.00  0.00    +0.057 A 
ATOM     12  C   UNL     1       3.066  -0.626  -2.454  0.00  0.00    -0.020 A 
ATOM     13  C   UNL     1       3.493  -1.959  -2.408  0.00  0.00    +0.012 A 
ATOM     14  C   UNL     1       3.165  -2.749  -1.328  0.00  0.00    +0.050 A 
ATOM     15  C   UNL     1       2.417  -2.226  -0.281  0.00  0.00    +0.158 A 
BRANCH  10  17
ATOM     16  C   UNL     1       0.838   0.970   0.595  0.00  0.00    +0.277 C 
ATOM     17  O   UNL     1       1.248  -0.395   0.703  0.00  0.00    -0.491 OA
ENDBRANCH  10  17
BRANCH  15  18
ATOM     18  O   UNL     1       2.102  -3.009   0.784  0.00  0.00    -0.503 OA
ATOM     19  H   UNL     1       1.269  -3.490   0.685  0.00  0.00    +0.292 HD
ENDBRANCH  15  18
ENDBRANCH   1  12
BRANCH   7  20
ATOM     20  C   UNL     1       4.520  -4.113  -7.498  0.00  0.00    +0.078 A 
ATOM     21  C   UNL     1       3.244  -4.455  -7.042  0.00  0.00    +0.028 A 
ATOM     22  C   UNL     1       2.938  -5.775  -6.785  0.00  0.00    +0.002 A 
ATOM     23  C   UNL     1       3.891  -6.760  -6.979  0.00  0.00    +0.001 A 
ATOM     24  C   UNL     1       5.156  -6.429  -7.431  0.00  0.00    +0.014 A 
ATOM     25  C   UNL     1       5.474  -5.113  -7.697  0.00  0.00    +0.080 A 
BRANCH  25  26
ATOM     26  C   UNL     1       6.851  -4.755  -8.194  0.00  0.00    +0.419 C 
ATOM     27  F   UNL     1       7.621  -5.917  -8.312  0.00  0.00    -0.166 F 
ATOM     28  F   UNL     1       6.748  -4.134  -9.444  0.00  0.00    -0.166 F 
ATOM     29  F   UNL     1       7.462  -3.881  -7.288  0.00  0.00    -0.166 F 
ENDBRANCH  25  26
ENDBRANCH   7  20
TORSDOF 5
