REMARK  Name = ZINC13471543
REMARK  12 active torsions:
REMARK  status: ('A' for Active; 'I' for Inactive)
REMARK    1  A    between atoms: C_1  and  C_2
REMARK    2  A    between atoms: C_2  and  C_3
REMARK    3  A    between atoms: C_3  and  N_4
REMARK    4  A    between atoms: C_11  and  C_23
REMARK    5  A    between atoms: C_13  and  C_19
REMARK    6  A    between atoms: C_13  and  C_21
REMARK    7  A    between atoms: C_14  and  N_18
REMARK    8  A    between atoms: C_15  and  C_16
REMARK    9  A    between atoms: C_26  and  C_29
REMARK   10  A    between atoms: C_29  and  C_30
REMARK   11  A    between atoms: C_29  and  C_31
REMARK   12  A    between atoms: C_29  and  C_32
REMARK                            x       y       z     vdW  Elec       q    Type
REMARK                         _______ _______ _______ _____ _____    ______ ____
ROOT
ATOM      1  N   UNL     1      -0.348   1.509   1.164  0.00  0.00    -0.298 NA
ATOM      2  C   UNL     1      -1.770   1.196   0.935  0.00  0.00    +0.112 C 
ATOM      3  C   UNL     1      -2.562   1.812   2.061  0.00  0.00    -0.007 C 
ATOM      4  C   UNL     1      -2.034   1.911   3.267  0.00  0.00    -0.026 C 
ATOM      5  C   UNL     1      -0.669   1.384   3.608  0.00  0.00    +0.044 C 
ATOM      6  C   UNL     1       0.112   0.891   2.411  0.00  0.00    +0.093 C 
ATOM      7  C   UNL     1       0.085   2.474   4.372  0.00  0.00    +0.067 C 
ATOM      8  C   UNL     1      -0.650   2.761   5.682  0.00  0.00    +0.188 C 
ATOM      9  C   UNL     1      -2.110   3.015   5.455  0.00  0.00    +0.054 C 
ATOM     10  C   UNL     1      -2.775   2.617   4.342  0.00  0.00    +0.074 C 
ENDROOT
BRANCH   7  11
ATOM     11  C   UNL     1       0.139   3.728   3.539  0.00  0.00    -0.041 A 
ATOM     12  C   UNL     1       1.181   3.924   2.651  0.00  0.00    +0.004 A 
ATOM     13  C   UNL     1       1.228   5.073   1.884  0.00  0.00    +0.004 A 
ATOM     14  C   UNL     1       0.239   6.030   2.010  0.00  0.00    -0.042 A 
ATOM     15  C   UNL     1      -0.800   5.837   2.902  0.00  0.00    +0.004 A 
ATOM     16  C   UNL     1      -0.850   4.686   3.666  0.00  0.00    +0.004 A 
BRANCH  14  17
ATOM     17  C   UNL     1       0.292   7.284   1.176  0.00  0.00    -0.013 C 
ATOM     18  C   UNL     1       0.362   8.505   2.095  0.00  0.00    +0.015 C 
ATOM     19  C   UNL     1       1.532   7.248   0.281  0.00  0.00    +0.015 C 
ATOM     20  C   UNL     1      -0.963   7.371   0.306  0.00  0.00    +0.015 C 
ENDBRANCH  14  17
ENDBRANCH   7  11
BRANCH   9  21
ATOM     21  N   UNL     1      -2.807   3.684   6.422  0.00  0.00    -0.358 N 
ATOM     22  H   UNL     1      -3.880   3.886   6.285  0.00  0.00    +0.142 HD
ATOM     23  H   UNL     1      -2.296   4.019   7.336  0.00  0.00    +0.142 HD
ENDBRANCH   9  21
BRANCH  10  24
ATOM     24  C   UNL     1      -4.177   2.874   4.205  0.00  0.00    +0.101 C 
ATOM     25  N   UNL     1      -5.290   3.079   4.097  0.00  0.00    -0.191 NA
ENDBRANCH  10  24
BRANCH   8  26
ATOM     26  C   UNL     1      -0.498   1.605   6.580  0.00  0.00    +0.091 C 
ATOM     27  N   UNL     1      -0.381   0.713   7.274  0.00  0.00    -0.194 NA
ENDBRANCH   8  26
BRANCH   8  28
ATOM     28  C   UNL     1      -0.051   3.945   6.319  0.00  0.00    +0.091 C 
ATOM     29  N   UNL     1       0.411   4.859   6.810  0.00  0.00    -0.194 NA
ENDBRANCH   8  28
BRANCH   1  30
ATOM     30  C   UNL     1       0.476   1.077   0.027  0.00  0.00    +0.084 C 
BRANCH  30  32
ATOM     31  C   UNL     1       0.682   1.087  -2.463  0.00  0.00    +0.005 C 
ATOM     32  C   UNL     1      -0.176   1.536  -1.279  0.00  0.00    +0.012 C 
ENDBRANCH  30  32
ENDBRANCH   1  30
TORSDOF 8
