REMARK  Name = ZINC13162910
REMARK  6 active torsions:
REMARK  status: ('A' for Active; 'I' for Inactive)
REMARK    1  A    between atoms: C_1  and  N_2
REMARK    2  A    between atoms: N_2  and  C_3
REMARK    3  A    between atoms: N_2  and  C_12
REMARK    4  A    between atoms: C_3  and  C_4
REMARK    5  A    between atoms: C_9  and  N_10
REMARK    6  A    between atoms: C_15  and  C_18
REMARK                            x       y       z     vdW  Elec       q    Type
REMARK                         _______ _______ _______ _____ _____    ______ ____
ROOT
ATOM      1  C   UNL     1       1.522  -1.116   1.724  0.00  0.00    +0.025 A 
ATOM      2  C   UNL     1       2.134  -2.311   1.400  0.00  0.00    +0.094 A 
ATOM      3  N   UNL     1       3.372  -2.538   1.812  0.00  0.00    -0.334 N 
ATOM      4  C   UNL     1       4.027  -1.637   2.530  0.00  0.00    +0.192 A 
ATOM      5  N   UNL     1       3.476  -0.480   2.862  0.00  0.00    -0.201 NA
ATOM      6  C   UNL     1       2.239  -0.183   2.476  0.00  0.00    +0.126 A 
ATOM      7  N   UNL     1       5.319  -1.912   2.942  0.00  0.00    -0.329 N 
ATOM      8  H   UNL     1       5.734  -2.757   2.706  0.00  0.00    +0.145 HD
ATOM      9  H   UNL     1       5.810  -1.261   3.468  0.00  0.00    +0.145 HD
ATOM     10  H   UNL     1       3.805  -3.377   1.587  0.00  0.00    +0.168 HD
ENDROOT
BRANCH   6  11
ATOM     11  N   UNL     1       1.667   1.031   2.820  0.00  0.00    -0.343 N 
ATOM     12  H   UNL     1       0.790   1.267   2.480  0.00  0.00    +0.144 HD
ATOM     13  H   UNL     1       2.144   1.644   3.401  0.00  0.00    +0.144 HD
ENDBRANCH   6  11
BRANCH   1  14
ATOM     14  C   UNL     1       0.115  -0.823   1.271  0.00  0.00    +0.144 C 
BRANCH  14  16
ATOM     15  C   UNL     1       0.041   1.485   0.219  0.00  0.00    +0.129 C 
ATOM     16  N   UNL     1       0.152   0.031   0.081  0.00  0.00    -0.328 N 
BRANCH  16  17
ATOM     17  C   UNL     1       0.294  -0.539  -1.178  0.00  0.00    +0.030 A 
ATOM     18  C   UNL     1       0.279  -1.924  -1.320  0.00  0.00    +0.024 A 
ATOM     19  C   UNL     1       0.418  -2.487  -2.556  0.00  0.00    +0.017 A 
ATOM     20  C   UNL     1       0.576  -1.671  -3.682  0.00  0.00    +0.063 A 
ATOM     21  C   UNL     1       0.592  -0.279  -3.535  0.00  0.00    +0.017 A 
ATOM     22  C   UNL     1       0.446   0.278  -2.296  0.00  0.00    +0.024 A 
BRANCH  20  23
ATOM     23  C   UNL     1       0.727  -2.273  -5.015  0.00  0.00    +0.387 C 
ATOM     24  O   UNL     1       0.714  -3.490  -5.142  0.00  0.00    -0.241 OA
ATOM     25  O   UNL     1       0.865  -1.558  -5.998  0.00  0.00    -0.241 OA
ENDBRANCH  20  23
ENDBRANCH  16  17
ENDBRANCH  14  16
ENDBRANCH   1  14
TORSDOF 5
