REMARK  Name = ZINC39944926
REMARK  10 active torsions:
REMARK  status: ('A' for Active; 'I' for Inactive)
REMARK    1  A    between atoms: C_1  and  C_2
REMARK    2  A    between atoms: C_7  and  C_9
REMARK    3  A    between atoms: C_7  and  C_10
REMARK    4  A    between atoms: N_11  and  S_13
REMARK    5  A    between atoms: S_13  and  C_16
REMARK    6  A    between atoms: C_20  and  C_22
REMARK    7  A    between atoms: C_22  and  O_24
REMARK    8  A    between atoms: O_24  and  C_25
REMARK    9  A    between atoms: C_25  and  C_26
REMARK   10  A    between atoms: C_26  and  C_28
REMARK                            x       y       z     vdW  Elec       q    Type
REMARK                         _______ _______ _______ _____ _____    ______ ____
ROOT
ATOM      1  C   UNL     1      -2.481  -4.103   0.316  0.00  0.00    +0.106 A 
ATOM      2  C   UNL     1      -1.702  -5.246   0.283  0.00  0.00    +0.028 A 
ATOM      3  C   UNL     1      -1.698  -6.119   1.356  0.00  0.00    +0.003 A 
ATOM      4  C   UNL     1      -2.473  -5.856   2.467  0.00  0.00    +0.015 A 
ATOM      5  C   UNL     1      -3.261  -4.705   2.507  0.00  0.00    +0.061 A 
ATOM      6  C   UNL     1      -3.256  -3.824   1.423  0.00  0.00    +0.043 A 
ENDROOT
BRANCH   1   7
ATOM      7  S   UNL     1      -2.478  -2.997  -1.056  0.00  0.00    +0.061 S 
ATOM      8  O   UNL     1      -3.704  -2.279  -1.001  0.00  0.00    -0.153 OA
ATOM      9  O   UNL     1      -2.092  -3.759  -2.191  0.00  0.00    -0.153 OA
BRANCH   7  19
ATOM     10  C   UNL     1      -0.019   1.532   0.011  0.00  0.00    +0.012 C 
ATOM     11  C   UNL     1       0.002  -0.004   0.002  0.00  0.00    -0.016 C 
ATOM     12  C   UNL     1       0.683  -0.579  -1.271  0.00  0.00    +0.028 C 
ATOM     13  C   UNL     1       0.134  -2.027  -1.227  0.00  0.00    +0.081 C 
ATOM     14  C   UNL     1       0.915  -2.768  -0.142  0.00  0.00    +0.027 C 
ATOM     15  C   UNL     1       0.828  -2.105   1.222  0.00  0.00    -0.033 C 
ATOM     16  C   UNL     1       0.726  -0.591   1.212  0.00  0.00    +0.014 C 
ATOM     17  C   UNL     1       2.123  -2.471   1.990  0.00  0.00    +0.011 C 
ATOM     18  C   UNL     1      -0.337  -2.708   2.019  0.00  0.00    +0.011 C 
ATOM     19  N   UNL     1      -1.271  -1.894  -0.793  0.00  0.00    -0.173 NA
ATOM     20  C   UNL     1      -1.417  -0.610  -0.089  0.00  0.00    +0.116 C 
ENDBRANCH   7  19
ENDBRANCH   1   7
BRANCH   5  21
ATOM     21  C   UNL     1      -4.093  -4.416   3.693  0.00  0.00    +0.340 C 
ATOM     22  O   UNL     1      -4.779  -3.414   3.725  0.00  0.00    -0.245 OA
BRANCH  21  23
ATOM     23  O   UNL     1      -4.092  -5.265   4.739  0.00  0.00    -0.453 OA
BRANCH  23  24
ATOM     24  C   UNL     1      -4.920  -4.924   5.852  0.00  0.00    +0.311 C 
BRANCH  24  25
ATOM     25  C   UNL     1      -4.791  -5.981   6.918  0.00  0.00    +0.199 C 
ATOM     26  O   UNL     1      -4.060  -6.935   6.741  0.00  0.00    -0.289 OA
BRANCH  25  27
ATOM     27  C   UNL     1      -5.518  -5.863   8.121  0.00  0.00    +0.026 C 
ATOM     28  C   UNL     1      -5.508  -6.737   9.194  0.00  0.00    +0.006 A 
ATOM     29  C   UNL     1      -4.824  -7.950   9.440  0.00  0.00    +0.010 A 
ATOM     30  C   UNL     1      -5.007  -8.611  10.605  0.00  0.00    +0.001 A 
ATOM     31  C   UNL     1      -5.865  -8.141  11.612  0.00  0.00    +0.002 A 
ATOM     32  C   UNL     1      -6.565  -6.994  11.476  0.00  0.00    +0.026 A 
ATOM     33  C   UNL     1      -6.423  -6.211  10.237  0.00  0.00    +0.043 A 
ATOM     34  N   UNL     1      -6.966  -5.093   9.847  0.00  0.00    -0.380 N 
ATOM     35  C   UNL     1      -6.468  -4.752   8.511  0.00  0.00    +0.152 C 
ATOM     36  H   UNL     1      -7.597  -4.567  10.362  0.00  0.00    +0.160 HD
ENDBRANCH  25  27
ENDBRANCH  24  25
ENDBRANCH  23  24
ENDBRANCH  21  23
ENDBRANCH   5  21
TORSDOF 7
