REMARK  Name = ZINC65408429
REMARK  7 active torsions:
REMARK  status: ('A' for Active; 'I' for Inactive)
REMARK    1  A    between atoms: C_1  and  C_2
REMARK    2  A    between atoms: C_8  and  C_10
REMARK    3  A    between atoms: C_10  and  N_11
REMARK    4  A    between atoms: C_12  and  C_14
REMARK    5  A    between atoms: C_16  and  C_27
REMARK    6  A    between atoms: C_19  and  C_26
REMARK    7  A    between atoms: C_21  and  C_25
REMARK                            x       y       z     vdW  Elec       q    Type
REMARK                         _______ _______ _______ _____ _____    ______ ____
ROOT
ATOM      1  N   UNL     1       3.623  -1.638  -0.025  0.00  0.00    -0.307 N 
ATOM      2  C   UNL     1       4.915  -2.021  -0.034  0.00  0.00    +0.235 C 
ATOM      3  O   UNL     1       5.199  -3.200  -0.042  0.00  0.00    -0.274 OA
ATOM      4  H   UNL     1       3.396  -0.695  -0.019  0.00  0.00    +0.149 HD
ENDROOT
BRANCH   2   5
ATOM      5  C   UNL     1       6.008  -0.983  -0.033  0.00  0.00    +0.168 C 
ATOM      6  C   UNL     1       6.224  -0.465   1.368  0.00  0.00    -0.042 C 
ATOM      7  C   UNL     1       7.474  -0.665   1.725  0.00  0.00    -0.025 C 
ATOM      8  C   UNL     1       8.119  -0.475   3.038  0.00  0.00    +0.009 C 
ATOM      9  C   UNL     1       9.059  -1.419   3.334  0.00  0.00    -0.050 C 
ATOM     10  C   UNL     1       9.308  -2.519   2.404  0.00  0.00    +0.004 C 
ATOM     11  C   UNL     1       8.953  -2.488   1.118  0.00  0.00    -0.051 C 
ATOM     12  C   UNL     1       8.251  -1.272   0.573  0.00  0.00    +0.111 C 
ATOM     13  N   UNL     1       7.278  -1.591  -0.478  0.00  0.00    -0.292 NA
ATOM     14  C   UNL     1       9.252  -3.660   0.219  0.00  0.00    +0.041 C 
ATOM     15  C   UNL     1       9.840  -1.327   4.620  0.00  0.00    +0.044 C 
ATOM     16  C   UNL     1       5.168   0.183   2.226  0.00  0.00    +0.041 C 
ATOM     17  H   UNL     1       7.182  -2.589  -0.591  0.00  0.00    +0.124 HD
ENDBRANCH   2   5
BRANCH   1  18
ATOM     18  C   UNL     1       2.560  -2.647  -0.026  0.00  0.00    +0.178 C 
BRANCH  18  26
ATOM     19  C   UNL     1      -0.018   1.503   0.010  0.00  0.00    +0.066 C 
ATOM     20  C   UNL     1       0.002  -0.004   0.002  0.00  0.00    +0.045 A 
ATOM     21  C   UNL     1      -1.167  -0.702   0.004  0.00  0.00    +0.093 A 
ATOM     22  C   UNL     1      -1.113  -2.111  -0.005  0.00  0.00    +0.252 A 
ATOM     23  O   UNL     1      -2.136  -2.774  -0.004  0.00  0.00    -0.268 OA
ATOM     24  N   UNL     1       0.097  -2.710  -0.014  0.00  0.00    -0.310 N 
ATOM     25  H   UNL     1       0.160  -3.678  -0.020  0.00  0.00    +0.170 HD
ATOM     26  C   UNL     1       1.218  -1.962  -0.015  0.00  0.00    +0.127 A 
ATOM     27  N   UNL     1       1.167  -0.657  -0.013  0.00  0.00    -0.237 NA
ENDBRANCH  18  26
ENDBRANCH   1  18
TORSDOF 3
