REMARK  Name = ZINC64435372
REMARK  5 active torsions:
REMARK  status: ('A' for Active; 'I' for Inactive)
REMARK    1  A    between atoms: C_6  and  C_11
REMARK    2  A    between atoms: C_11  and  C_12
REMARK    3  A    between atoms: C_12  and  N_13
REMARK    4  A    between atoms: C_14  and  C_16
REMARK    5  A    between atoms: C_25  and  N_27
REMARK                            x       y       z     vdW  Elec       q    Type
REMARK                         _______ _______ _______ _____ _____    ______ ____
ROOT
ATOM      1  N   UNL     1       4.810  -3.970  -1.192  0.00  0.00    -0.311 N 
ATOM      2  C   UNL     1       5.204  -4.393  -2.410  0.00  0.00    +0.243 C 
ATOM      3  O   UNL     1       4.973  -3.715  -3.393  0.00  0.00    -0.270 OA
ATOM      4  H   UNL     1       4.929  -4.543  -0.419  0.00  0.00    +0.149 HD
ENDROOT
BRANCH   2   5
ATOM      5  C   UNL     1       5.911  -5.675  -2.551  0.00  0.00    +0.049 C 
ATOM      6  C   UNL     1       5.255  -6.806  -2.509  0.00  0.00    -0.046 C 
ATOM      7  C   UNL     1       3.763  -6.949  -2.207  0.00  0.00    +0.032 C 
ATOM      8  C   UNL     1       3.387  -8.393  -2.554  0.00  0.00    +0.004 C 
ATOM      9  C   UNL     1       4.168  -9.400  -1.723  0.00  0.00    +0.002 C 
ATOM     10  C   UNL     1       5.635  -9.017  -1.547  0.00  0.00    +0.019 C 
ATOM     11  C   UNL     1       6.064  -8.098  -2.693  0.00  0.00    +0.075 C 
ATOM     12  S   UNL     1       7.773  -7.487  -2.405  0.00  0.00    -0.122 S 
ATOM     13  C   UNL     1       7.415  -5.708  -2.753  0.00  0.00    +0.203 C 
BRANCH  13  14
ATOM     14  N   UNL     1       8.097  -4.836  -1.793  0.00  0.00    -0.214 N 
ATOM     15  C   UNL     1       9.046  -5.204  -0.913  0.00  0.00    +0.246 A 
ATOM     16  N   UNL     1       9.384  -4.124  -0.251  0.00  0.00    -0.117 NA
ATOM     17  N   UNL     1       8.678  -3.144  -0.700  0.00  0.00    -0.023 NA
ATOM     18  N   UNL     1       7.903  -3.570  -1.636  0.00  0.00    -0.043 NA
ENDBRANCH  13  14
ENDBRANCH   2   5
BRANCH   1  19
ATOM     19  C   UNL     1       4.204  -2.645  -1.037  0.00  0.00    +0.109 C 
BRANCH  19  20
ATOM     20  C   UNL     1       3.852  -2.414   0.434  0.00  0.00    +0.052 C 
BRANCH  20  26
ATOM     21  C   UNL     1      -0.647   0.392   0.703  0.00  0.00    +0.022 A 
ATOM     22  C   UNL     1       0.413   1.219   0.826  0.00  0.00    +0.027 A 
ATOM     23  C   UNL     1       1.737   0.701   0.786  0.00  0.00    +0.043 A 
ATOM     24  N   UNL     1       2.906   1.287   0.881  0.00  0.00    -0.380 N 
ATOM     25  C   UNL     1       3.952   0.264   0.771  0.00  0.00    +0.144 C 
ATOM     26  C   UNL     1       3.228  -1.052   0.593  0.00  0.00    -0.040 C 
ATOM     27  C   UNL     1       1.908  -0.758   0.606  0.00  0.00    +0.000 A 
ATOM     28  C   UNL     1       0.704  -1.588   0.479  0.00  0.00    +0.030 A 
ATOM     29  C   UNL     1      -0.511  -0.994   0.531  0.00  0.00    +0.042 A 
ATOM     30 CL   UNL     1      -1.937  -1.972   0.382  0.00  0.00    -0.084 Cl
ATOM     31  H   UNL     1       3.055   2.238   1.003  0.00  0.00    +0.160 HD
ENDBRANCH  20  26
ENDBRANCH  19  20
ENDBRANCH   1  19
TORSDOF 5
