REMARK  Name = ZINC34829767
REMARK  10 active torsions:
REMARK  status: ('A' for Active; 'I' for Inactive)
REMARK    1  A    between atoms: C_1  and  C_2
REMARK    2  A    between atoms: C_5  and  C_8
REMARK    3  A    between atoms: N_17  and  C_18
REMARK    4  A    between atoms: C_18  and  C_19
REMARK    5  A    between atoms: C_25  and  C_28
REMARK    6  A    between atoms: C_29  and  C_31
REMARK    7  A    between atoms: C_32  and  O_39
REMARK    8  A    between atoms: C_36  and  O_37
REMARK    9  A    between atoms: O_37  and  C_38
REMARK   10  A    between atoms: O_39  and  C_40
REMARK                            x       y       z     vdW  Elec       q    Type
REMARK                         _______ _______ _______ _____ _____    ______ ____
ROOT
ATOM      1  C   UNL     1      -3.081  -4.809   1.912  0.00  0.00    +0.199 C 
ATOM      2  O   UNL     1      -2.601  -5.371   2.873  0.00  0.00    -0.278 OA
ATOM      3  N   UNL     1      -4.404  -4.553   1.873  0.00  0.00    -0.300 N 
ATOM      4  C   UNL     1      -5.001  -3.878   0.712  0.00  0.00    +0.126 C 
ATOM      5  C   UNL     1      -5.757  -2.637   1.202  0.00  0.00    +0.127 C 
ATOM      6  N   UNL     1      -6.628  -3.028   2.319  0.00  0.00    -0.292 N 
ATOM      7  C   UNL     1      -6.031  -3.704   3.480  0.00  0.00    +0.091 C 
ATOM      8  C   UNL     1      -5.276  -4.950   2.987  0.00  0.00    +0.130 C 
ATOM      9  C   UNL     1      -5.062  -2.752   4.185  0.00  0.00    +0.029 C 
ATOM     10  C   UNL     1      -7.951  -2.772   2.280  0.00  0.00    +0.254 C 
ATOM     11  O   UNL     1      -8.662  -3.101   3.210  0.00  0.00    -0.270 OA
ENDROOT
BRANCH  10  12
ATOM     12  C   UNL     1      -8.535  -2.095   1.111  0.00  0.00    +0.120 A 
ATOM     13  C   UNL     1      -9.013  -2.844   0.026  0.00  0.00    +0.136 A 
ATOM     14  C   UNL     1      -9.562  -2.196  -1.069  0.00  0.00    +0.046 A 
ATOM     15  C   UNL     1      -9.639  -0.816  -1.095  0.00  0.00    +0.007 A 
ATOM     16  C   UNL     1      -9.170  -0.068  -0.031  0.00  0.00    +0.046 A 
ATOM     17  C   UNL     1      -8.623  -0.695   1.076  0.00  0.00    +0.136 A 
BRANCH  17  18
ATOM     18  O   UNL     1      -8.170   0.041   2.122  0.00  0.00    -0.494 OA
ATOM     19  C   UNL     1      -8.293   1.461   2.016  0.00  0.00    +0.277 C 
ENDBRANCH  17  18
BRANCH  13  20
ATOM     20  O   UNL     1      -8.938  -4.199   0.048  0.00  0.00    -0.494 OA
ATOM     21  C   UNL     1      -9.445  -4.895  -1.092  0.00  0.00    +0.277 C 
ENDBRANCH  13  20
ENDBRANCH  10  12
BRANCH   1  22
ATOM     22  C   UNL     1      -2.200  -4.396   0.761  0.00  0.00    +0.020 C 
BRANCH  22  31
ATOM     23  C   UNL     1       0.059  -4.275  -0.021  0.00  0.00    -0.005 C 
ATOM     24  C   UNL     1       1.481  -4.770   0.225  0.00  0.00    -0.047 A 
ATOM     25  C   UNL     1       2.616  -4.189  -0.335  0.00  0.00    +0.010 A 
ATOM     26  C   UNL     1       3.842  -4.694  -0.058  0.00  0.00    +0.045 A 
ATOM     27  S   UNL     1       3.443  -6.051   1.035  0.00  0.00    -0.101 S 
ATOM     28  C   UNL     1       1.686  -5.844   1.039  0.00  0.00    -0.010 A 
ATOM     29  C   UNL     1       0.633  -6.634   1.746  0.00  0.00    +0.024 C 
ATOM     30  C   UNL     1      -0.725  -6.249   1.134  0.00  0.00    -0.072 C 
ATOM     31  N   UNL     1      -0.811  -4.785   1.044  0.00  0.00    +0.393 N 
ATOM     32  H   UNL     1      -0.528  -4.382   1.925  0.00  0.00    -0.080 HD
BRANCH  23  37
ATOM     33  C   UNL     1      -0.018   1.503   0.010  0.00  0.00    +0.044 C 
ATOM     34  C   UNL     1       0.002  -0.004   0.002  0.00  0.00    -0.050 A 
ATOM     35  C   UNL     1       0.006  -0.689  -1.199  0.00  0.00    +0.003 A 
ATOM     36  C   UNL     1       0.025  -2.071  -1.206  0.00  0.00    +0.002 A 
ATOM     37  C   UNL     1       0.040  -2.768  -0.013  0.00  0.00    -0.057 A 
ATOM     38  C   UNL     1       0.037  -2.084   1.188  0.00  0.00    +0.002 A 
ATOM     39  C   UNL     1       0.023  -0.702   1.195  0.00  0.00    +0.003 A 
ENDBRANCH  23  37
ENDBRANCH  22  31
ENDBRANCH   1  22
TORSDOF 6
