REMARK  Name = ZINC11815788
REMARK  10 active torsions:
REMARK  status: ('A' for Active; 'I' for Inactive)
REMARK    1  A    between atoms: C_1  and  N_68
REMARK    2  A    between atoms: C_2  and  N_68
REMARK    3  A    between atoms: C_3  and  C_4
REMARK    4  A    between atoms: C_3  and  N_68
REMARK    5  A    between atoms: C_4  and  N_5
REMARK    6  A    between atoms: C_8  and  C_12
REMARK    7  A    between atoms: C_8  and  C_20
REMARK    8  A    between atoms: C_12  and  C_13
REMARK    9  A    between atoms: C_13  and  C_14
REMARK   10  A    between atoms: C_26  and  C_28
REMARK                            x       y       z     vdW  Elec       q    Type
REMARK                         _______ _______ _______ _____ _____    ______ ____
ROOT
ATOM      1  N   UNL     1       0.612   2.408  -6.237  0.00  0.00    -0.226 N 
ATOM      2  C   UNL     1       0.235   3.169  -5.191  0.00  0.00    +0.247 C 
ATOM      3  O   UNL     1      -0.896   3.381  -4.810  0.00  0.00    -0.273 OA
ATOM      4  C   UNL     1       1.519   3.705  -4.590  0.00  0.00    +0.116 C 
ATOM      5  N   UNL     1       2.569   3.130  -5.448  0.00  0.00    -0.285 N 
ATOM      6  C   UNL     1       1.942   2.389  -6.380  0.00  0.00    +0.309 C 
ATOM      7  O   UNL     1       2.520   1.772  -7.253  0.00  0.00    -0.252 OA
ATOM      8  H   UNL     1       3.526   3.261  -5.359  0.00  0.00    +0.151 HD
ENDROOT
BRANCH   4   9
ATOM      9  C   UNL     1       1.680   3.223  -3.146  0.00  0.00    +0.024 C 
ATOM     10  C   UNL     1       1.578   1.697  -3.104  0.00  0.00    +0.025 C 
ATOM     11  C   UNL     1       1.774   1.216  -1.663  0.00  0.00    +0.108 C 
ATOM     12  N   UNL     1       0.810   1.909  -0.798  0.00  0.00    -0.298 N 
ATOM     13  C   UNL     1       0.757   3.377  -0.833  0.00  0.00    +0.108 C 
ATOM     14  C   UNL     1       0.576   3.834  -2.279  0.00  0.00    +0.025 C 
ATOM     15  C   UNL     1      -0.014   1.211   0.009  0.00  0.00    +0.247 C 
ATOM     16  O   UNL     1      -0.759   1.797   0.770  0.00  0.00    -0.270 OA
BRANCH  15  17
ATOM     17  C   UNL     1      -0.008  -0.267  -0.028  0.00  0.00    +0.042 A 
ATOM     18  C   UNL     1       1.196  -0.965   0.073  0.00  0.00    +0.051 A 
ATOM     19  C   UNL     1       1.196  -2.346   0.044  0.00  0.00    +0.127 A 
ATOM     20  C   UNL     1       0.004  -3.038  -0.098  0.00  0.00    +0.076 A 
ATOM     21  C   UNL     1      -1.194  -2.350  -0.204  0.00  0.00    +0.127 A 
ATOM     22  C   UNL     1      -1.206  -0.969  -0.171  0.00  0.00    +0.051 A 
ATOM     23  F   UNL     1      -2.353  -3.031  -0.342  0.00  0.00    -0.205 F 
ATOM     24  F   UNL     1       2.360  -3.023   0.147  0.00  0.00    -0.205 F 
ENDBRANCH  15  17
ENDBRANCH   4   9
BRANCH   1  25
ATOM     25  C   UNL     1      -0.319   1.690  -7.111  0.00  0.00    +0.099 C 
BRANCH  25  26
ATOM     26  C   UNL     1      -0.720   2.592  -8.280  0.00  0.00    -0.060 C 
BRANCH  26  29
ATOM     27  C   UNL     1      -2.244   2.775 -10.152  0.00  0.00    -0.097 C 
ATOM     28  C   UNL     1      -0.994   0.731  -9.805  0.00  0.00    -0.097 C 
ATOM     29  N   UNL     1      -1.675   1.861  -9.139  0.00  0.00    +0.377 N 
ATOM     30  H   UNL     1      -2.437   1.495  -8.556  0.00  0.00    -0.083 HD
ENDBRANCH  26  29
ENDBRANCH  25  26
ENDBRANCH   1  25
BRANCH   4  31
ATOM     31  C   UNL     1       1.545   5.234  -4.651  0.00  0.00    +0.040 C 
BRANCH  31  32
ATOM     32  C   UNL     1       1.383   5.688  -6.103  0.00  0.00    +0.038 C 
BRANCH  32  33
ATOM     33  C   UNL     1       1.408   7.194  -6.164  0.00  0.00    -0.047 A 
ATOM     34  C   UNL     1       0.231   7.910  -6.057  0.00  0.00    +0.003 A 
ATOM     35  C   UNL     1       0.255   9.291  -6.108  0.00  0.00    +0.000 A 
ATOM     36  C   UNL     1       1.456   9.956  -6.277  0.00  0.00    +0.000 A 
ATOM     37  C   UNL     1       2.632   9.239  -6.389  0.00  0.00    +0.000 A 
ATOM     38  C   UNL     1       2.609   7.858  -6.333  0.00  0.00    +0.003 A 
ENDBRANCH  32  33
ENDBRANCH  31  32
ENDBRANCH   4  31
TORSDOF 8
