REMARK  Name = ZINC39154601
REMARK  8 active torsions:
REMARK  status: ('A' for Active; 'I' for Inactive)
REMARK    1  A    between atoms: C_1  and  O_2
REMARK    2  A    between atoms: O_2  and  C_3
REMARK    3  A    between atoms: C_6  and  C_11
REMARK    4  A    between atoms: C_8  and  O_9
REMARK    5  A    between atoms: O_9  and  C_10
REMARK    6  A    between atoms: C_17  and  C_19
REMARK    7  A    between atoms: C_19  and  S_20
REMARK    8  A    between atoms: S_20  and  C_21
REMARK                            x       y       z     vdW  Elec       q    Type
REMARK                         _______ _______ _______ _____ _____    ______ ____
ROOT
ATOM      1  C   UNL     1       2.582  -2.539   4.300  0.00  0.00    +0.080 A 
ATOM      2  C   UNL     1       3.057  -1.802   5.348  0.00  0.00    +0.076 A 
ATOM      3  S   UNL     1       3.752  -3.092   6.372  0.00  0.00    -0.060 S 
ATOM      4  C   UNL     1       3.341  -4.468   5.308  0.00  0.00    +0.165 A 
ATOM      5  N   UNL     1       2.732  -3.855   4.310  0.00  0.00    -0.225 NA
ATOM      6  N   UNL     1       3.591  -5.823   5.486  0.00  0.00    -0.264 N 
ATOM      7  C   UNL     1       4.230  -6.250   6.593  0.00  0.00    +0.229 C 
ATOM      8  O   UNL     1       4.587  -5.452   7.433  0.00  0.00    -0.275 OA
ATOM      9  H   UNL     1       3.305  -6.461   4.814  0.00  0.00    +0.157 HD
ENDROOT
BRANCH   1  13
ATOM     10  C   UNL     1       0.626  -0.619   1.042  0.00  0.00    +0.162 A 
ATOM     11  C   UNL     1       1.202   0.140   2.050  0.00  0.00    +0.050 A 
ATOM     12  C   UNL     1       1.836  -0.480   3.108  0.00  0.00    +0.014 A 
ATOM     13  C   UNL     1       1.899  -1.872   3.164  0.00  0.00    +0.005 A 
ATOM     14  C   UNL     1       1.321  -2.635   2.151  0.00  0.00    +0.059 A 
ATOM     15  C   UNL     1       0.681  -2.009   1.096  0.00  0.00    +0.162 A 
BRANCH  10  17
ATOM     16  C   UNL     1      -0.017   1.425   0.010  0.00  0.00    +0.277 C 
ATOM     17  O   UNL     1       0.002  -0.004   0.002  0.00  0.00    -0.491 OA
ENDBRANCH  10  17
BRANCH  15  18
ATOM     18  O   UNL     1       0.112  -2.751   0.110  0.00  0.00    -0.491 OA
ATOM     19  C   UNL     1       0.206  -4.172   0.229  0.00  0.00    +0.277 C 
ENDBRANCH  15  18
ENDBRANCH   1  13
BRANCH   7  20
ATOM     20  C   UNL     1       4.501  -7.720   6.786  0.00  0.00    +0.173 C 
BRANCH  20  21
ATOM     21  S   UNL     1       5.369  -7.973   8.359  0.00  0.00    -0.075 S 
BRANCH  21  22
ATOM     22  C   UNL     1       5.610  -9.717   8.437  0.00  0.00    +0.208 C 
ATOM     23  N   UNL     1       5.169 -10.447   7.441  0.00  0.00    -0.227 NA
ATOM     24  C   UNL     1       5.302 -11.898   7.550  0.00  0.00    +0.252 C 
ATOM     25  C   UNL     1       6.516 -12.151   8.432  0.00  0.00    +0.117 C 
ATOM     26  C   UNL     1       7.269 -13.068   7.764  0.00  0.00    +0.025 A 
ATOM     27  C   UNL     1       8.447 -13.771   8.117  0.00  0.00    +0.012 A 
ATOM     28  C   UNL     1       8.967 -14.624   7.194  0.00  0.00    +0.001 A 
ATOM     29  C   UNL     1       8.415 -14.845   5.929  0.00  0.00    +0.002 A 
ATOM     30  C   UNL     1       7.285 -14.232   5.486  0.00  0.00    +0.026 A 
ATOM     31  C   UNL     1       6.646 -13.293   6.423  0.00  0.00    +0.046 A 
ATOM     32  N   UNL     1       5.565 -12.585   6.293  0.00  0.00    -0.358 N 
ATOM     33  N   UNL     1       6.734 -11.428   9.535  0.00  0.00    -0.147 NA
ATOM     34  N   UNL     1       6.246 -10.226   9.520  0.00  0.00    -0.122 NA
ATOM     35  H   UNL     1       5.022 -12.525   5.492  0.00  0.00    +0.162 HD
ENDBRANCH  21  22
ENDBRANCH  20  21
ENDBRANCH   7  20
TORSDOF 6
