REMARK  Name = ZINC14063548
REMARK  16 active torsions:
REMARK  status: ('A' for Active; 'I' for Inactive)
REMARK    1  A    between atoms: C_1  and  C_2
REMARK    2  A    between atoms: C_2  and  O_3
REMARK    3  A    between atoms: O_3  and  C_4
REMARK    4  A    between atoms: C_4  and  C_6
REMARK    5  A    between atoms: C_7  and  C_33
REMARK    6  A    between atoms: C_8  and  C_28
REMARK    7  A    between atoms: C_10  and  N_11
REMARK    8  A    between atoms: C_12  and  C_14
REMARK    9  A    between atoms: C_14  and  S_15
REMARK   10  A    between atoms: S_15  and  C_16
REMARK   11  A    between atoms: C_19  and  C_22
REMARK   12  A    between atoms: N_20  and  C_21
REMARK   13  A    between atoms: C_26  and  C_27
REMARK   14  A    between atoms: C_28  and  O_30
REMARK   15  A    between atoms: O_30  and  C_31
REMARK   16  A    between atoms: C_31  and  C_32
REMARK                            x       y       z     vdW  Elec       q    Type
REMARK                         _______ _______ _______ _____ _____    ______ ____
ROOT
ATOM      1  N   UNL     1      -7.054   2.943   0.515  0.00  0.00    -0.279 N 
ATOM      2  C   UNL     1      -5.840   2.617   0.030  0.00  0.00    +0.228 C 
ATOM      3  O   UNL     1      -5.694   2.421  -1.158  0.00  0.00    -0.275 OA
ATOM      4  H   UNL     1      -7.171   3.100   1.466  0.00  0.00    +0.155 HD
ENDROOT
BRANCH   1   9
ATOM      5  C   UNL     1      -9.458   3.381  -0.034  0.00  0.00    +0.091 A 
ATOM      6  C   UNL     1     -10.368   3.431  -1.079  0.00  0.00    -0.014 A 
ATOM      7  C   UNL     1      -9.905   3.158  -2.338  0.00  0.00    +0.102 A 
ATOM      8  S   UNL     1      -8.175   2.834  -2.059  0.00  0.00    -0.066 S 
ATOM      9  C   UNL     1      -8.132   3.055  -0.340  0.00  0.00    +0.087 A 
ATOM     10  C   UNL     1     -11.816   3.773  -0.836  0.00  0.00    +0.046 C 
BRANCH   5  11
ATOM     11  C   UNL     1      -9.872   3.659   1.346  0.00  0.00    +0.342 C 
ATOM     12  O   UNL     1      -9.825   4.795   1.778  0.00  0.00    -0.245 OA
BRANCH  11  13
ATOM     13  O   UNL     1     -10.303   2.655   2.136  0.00  0.00    -0.461 OA
BRANCH  13  15
ATOM     14  C   UNL     1     -11.153   1.744   4.229  0.00  0.00    +0.048 C 
ATOM     15  C   UNL     1     -10.696   3.004   3.490  0.00  0.00    +0.229 C 
ENDBRANCH  13  15
ENDBRANCH  11  13
ENDBRANCH   5  11
BRANCH   7  16
ATOM     16  C   UNL     1     -10.645   3.142  -3.599  0.00  0.00    +0.346 C 
ATOM     17  O   UNL     1     -11.835   3.396  -3.610  0.00  0.00    -0.244 OA
BRANCH  16  18
ATOM     18  O   UNL     1     -10.008   2.847  -4.752  0.00  0.00    -0.461 OA
BRANCH  18  19
ATOM     19  C   UNL     1     -10.793   2.850  -5.946  0.00  0.00    +0.229 C 
ATOM     20  C   UNL     1      -9.905   2.496  -7.140  0.00  0.00    +0.048 C 
ENDBRANCH  18  19
ENDBRANCH  16  18
ENDBRANCH   7  16
ENDBRANCH   1   9
BRANCH   2  21
ATOM     21  C   UNL     1      -4.663   2.495   0.964  0.00  0.00    +0.173 C 
BRANCH  21  22
ATOM     22  S   UNL     1      -3.186   2.049   0.018  0.00  0.00    -0.077 S 
BRANCH  22  23
ATOM     23  C   UNL     1      -2.000   1.976   1.319  0.00  0.00    +0.192 A 
ATOM     24  N   UNL     1      -2.227   2.197   2.593  0.00  0.00    -0.122 NA
ATOM     25  N   UNL     1      -1.139   2.066   3.265  0.00  0.00    -0.128 NA
ATOM     26  C   UNL     1      -0.152   1.746   2.461  0.00  0.00    +0.168 A 
ATOM     27  N   UNL     1      -0.672   1.675   1.190  0.00  0.00    -0.305 N 
ATOM     28  C   UNL     1       0.046   1.350  -0.044  0.00  0.00    +0.153 C 
BRANCH  26  29
ATOM     29  C   UNL     1       1.256   1.508   2.849  0.00  0.00    +0.060 A 
ATOM     30  C   UNL     1       2.116   0.396   2.425  0.00  0.00    +0.053 A 
ATOM     31  C   UNL     1       3.302   0.596   3.025  0.00  0.00    +0.196 A 
ATOM     32  O   UNL     1       3.236   1.713   3.764  0.00  0.00    -0.467 OA
ATOM     33  C   UNL     1       2.023   2.276   3.668  0.00  0.00    +0.112 A 
ATOM     34  C   UNL     1       1.583   3.544   4.354  0.00  0.00    +0.087 C 
ENDBRANCH  26  29
ENDBRANCH  22  23
ENDBRANCH  21  22
ENDBRANCH   2  21
TORSDOF 11
