REMARK  Name = ZINC14608033
REMARK  9 active torsions:
REMARK  status: ('A' for Active; 'I' for Inactive)
REMARK    1  A    between atoms: C_1  and  C_2
REMARK    2  A    between atoms: C_12  and  C_14
REMARK    3  A    between atoms: C_17  and  O_22
REMARK    4  A    between atoms: C_18  and  O_20
REMARK    5  A    between atoms: O_20  and  C_21
REMARK    6  A    between atoms: O_22  and  C_23
REMARK    7  A    between atoms: N_24  and  C_25
REMARK    8  A    between atoms: C_25  and  C_27
REMARK    9  A    between atoms: C_30  and  N_34
REMARK                            x       y       z     vdW  Elec       q    Type
REMARK                         _______ _______ _______ _____ _____    ______ ____
ROOT
ATOM      1  C   UNL     1       0.201   1.560   0.176  0.00  0.00    +0.062 C 
ATOM      2  C   UNL     1       0.222   0.062   0.015  0.00  0.00    +0.031 C 
ATOM      3  N   UNL     1       0.359  -0.431  -1.149  0.00  0.00    -0.254 NA
ATOM      4  C   UNL     1       0.373  -1.756  -1.468  0.00  0.00    +0.085 A 
ATOM      5  C   UNL     1      -0.329  -2.139  -2.621  0.00  0.00    +0.029 A 
ATOM      6  C   UNL     1      -0.360  -3.457  -3.017  0.00  0.00    +0.002 A 
ATOM      7  C   UNL     1       0.306  -4.418  -2.276  0.00  0.00    +0.002 A 
ATOM      8  C   UNL     1       0.998  -4.058  -1.141  0.00  0.00    +0.025 A 
ATOM      9  C   UNL     1       1.038  -2.726  -0.722  0.00  0.00    +0.058 A 
ATOM     10  N   UNL     1       1.747  -2.453   0.440  0.00  0.00    -0.302 N 
ATOM     11  C   UNL     1       1.352  -1.603   1.395  0.00  0.00    +0.105 C 
ATOM     12  C   UNL     1       0.088  -0.807   1.237  0.00  0.00    +0.124 C 
ATOM     13  N   UNL     1       2.077  -1.462   2.479  0.00  0.00    -0.165 NA
ATOM     14  H   UNL     1       2.591  -2.913   0.569  0.00  0.00    +0.153 HD
ENDROOT
BRANCH  12  15
ATOM     15  C   UNL     1      -1.081  -1.743   1.070  0.00  0.00    -0.028 A 
ATOM     16  C   UNL     1      -1.105  -2.945   1.752  0.00  0.00    +0.008 A 
ATOM     17  C   UNL     1      -2.175  -3.807   1.602  0.00  0.00    +0.050 A 
ATOM     18  C   UNL     1      -3.227  -3.467   0.766  0.00  0.00    +0.162 A 
ATOM     19  C   UNL     1      -3.203  -2.257   0.080  0.00  0.00    +0.162 A 
ATOM     20  C   UNL     1      -2.130  -1.395   0.238  0.00  0.00    +0.054 A 
BRANCH  19  21
ATOM     21  O   UNL     1      -4.233  -1.919  -0.741  0.00  0.00    -0.491 OA
ATOM     22  C   UNL     1      -4.141  -0.661  -1.414  0.00  0.00    +0.277 C 
ENDBRANCH  19  21
BRANCH  18  23
ATOM     23  O   UNL     1      -4.280  -4.315   0.617  0.00  0.00    -0.491 OA
ATOM     24  C   UNL     1      -4.237  -5.539   1.353  0.00  0.00    +0.277 C 
ENDBRANCH  18  23
ENDBRANCH  12  15
BRANCH  13  25
ATOM     25  C   UNL     1       3.142  -2.259   2.685  0.00  0.00    +0.269 C 
ATOM     26  O   UNL     1       3.017  -3.468   2.630  0.00  0.00    -0.268 OA
BRANCH  25  27
ATOM     27  C   UNL     1       4.466  -1.664   2.979  0.00  0.00    +0.040 A 
ATOM     28  C   UNL     1       4.611  -0.278   3.048  0.00  0.00    +0.015 A 
ATOM     29  C   UNL     1       5.847   0.271   3.322  0.00  0.00    +0.035 A 
ATOM     30  C   UNL     1       6.941  -0.550   3.529  0.00  0.00    +0.144 A 
ATOM     31  C   UNL     1       6.804  -1.926   3.461  0.00  0.00    +0.072 A 
ATOM     32  C   UNL     1       5.571  -2.488   3.193  0.00  0.00    +0.035 A 
ATOM     33 CL   UNL     1       8.184  -2.948   3.720  0.00  0.00    -0.081 Cl
BRANCH  30  34
ATOM     34  N   UNL     1       8.264   0.045   3.823  0.00  0.00    +0.058 N 
ATOM     35  O   UNL     1       8.386   1.247   3.882  0.00  0.00    -0.126 OA
ATOM     36  O   UNL     1       9.222  -0.670   4.003  0.00  0.00    -0.126 OA
ENDBRANCH  30  34
ENDBRANCH  25  27
ENDBRANCH  13  25
TORSDOF 6
