REMARK  Name = ZINC01192195
REMARK  10 active torsions:
REMARK  status: ('A' for Active; 'I' for Inactive)
REMARK    1  A    between atoms: C_1  and  C_2
REMARK    2  A    between atoms: C_5  and  N_8
REMARK    3  A    between atoms: C_11  and  C_16
REMARK    4  A    between atoms: C_13  and  C_15
REMARK    5  A    between atoms: C_16  and  C_17
REMARK    6  A    between atoms: C_16  and  C_26
REMARK    7  A    between atoms: C_21  and  N_23
REMARK    8  A    between atoms: C_28  and  C_40
REMARK    9  A    between atoms: N_30  and  C_33
REMARK   10  A    between atoms: C_36  and  C_39
REMARK                            x       y       z     vdW  Elec       q    Type
REMARK                         _______ _______ _______ _____ _____    ______ ____
ROOT
ATOM      1  C   UNL     1      -1.061  -7.121   1.146  0.00  0.00    +0.054 C 
ENDROOT
BRANCH   1   5
ATOM      2  N   UNL     1      -0.037  -4.138  -0.028  0.00  0.00    -0.160 N 
ATOM      3  C   UNL     1       0.093  -4.899   1.079  0.00  0.00    +0.249 C 
ATOM      4  O   UNL     1       0.174  -4.521   2.229  0.00  0.00    -0.273 OA
ATOM      5  C   UNL     1       0.116  -6.329   0.573  0.00  0.00    +0.131 C 
ATOM      6  C   UNL     1      -0.020  -6.176  -0.928  0.00  0.00    +0.047 C 
ATOM      7  N   UNL     1      -0.105  -4.927  -1.173  0.00  0.00    -0.181 NA
ATOM      8  C   UNL     1      -0.055  -7.291  -1.941  0.00  0.00    +0.063 C 
BRANCH   2  13
ATOM      9  C   UNL     1      -0.300   1.529  -0.015  0.00  0.00    +0.044 C 
ATOM     10  C   UNL     1      -0.230   0.024  -0.019  0.00  0.00    -0.050 A 
ATOM     11  C   UNL     1      -0.188  -0.662  -1.219  0.00  0.00    +0.005 A 
ATOM     12  C   UNL     1      -0.124  -2.042  -1.225  0.00  0.00    +0.026 A 
ATOM     13  C   UNL     1      -0.102  -2.740  -0.025  0.00  0.00    +0.060 A 
ATOM     14  C   UNL     1      -0.144  -2.048   1.178  0.00  0.00    +0.026 A 
ATOM     15  C   UNL     1      -0.202  -0.668   1.178  0.00  0.00    +0.005 A 
ENDBRANCH   2  13
ENDBRANCH   1   5
BRANCH   1  16
ATOM     16  C   UNL     1      -1.016  -7.067   2.674  0.00  0.00    +0.131 C 
ATOM     17  C   UNL     1      -2.033  -8.018   3.271  0.00  0.00    +0.047 C 
ATOM     18  N   UNL     1      -1.387  -8.875   3.960  0.00  0.00    -0.181 NA
ATOM     19  N   UNL     1      -0.012  -8.669   3.942  0.00  0.00    -0.160 N 
ATOM     20  C   UNL     1       0.311  -7.592   3.188  0.00  0.00    +0.249 C 
ATOM     21  O   UNL     1       1.417  -7.144   2.970  0.00  0.00    -0.273 OA
ATOM     22  C   UNL     1      -3.527  -7.960   3.086  0.00  0.00    +0.063 C 
BRANCH  19  23
ATOM     23  C   UNL     1       0.918  -9.469   4.617  0.00  0.00    +0.060 A 
ATOM     24  C   UNL     1       2.274  -9.175   4.541  0.00  0.00    +0.026 A 
ATOM     25  C   UNL     1       3.188  -9.967   5.208  0.00  0.00    +0.005 A 
ATOM     26  C   UNL     1       2.756 -11.050   5.950  0.00  0.00    -0.050 A 
ATOM     27  C   UNL     1       1.407 -11.345   6.028  0.00  0.00    +0.005 A 
ATOM     28  C   UNL     1       0.487 -10.554   5.368  0.00  0.00    +0.026 A 
ATOM     29  C   UNL     1       3.757 -11.911   6.677  0.00  0.00    +0.044 C 
ENDBRANCH  19  23
ENDBRANCH   1  16
BRANCH   1  30
ATOM     30  C   UNL     1      -0.969  -8.555   0.691  0.00  0.00    -0.040 A 
ATOM     31  C   UNL     1       0.135  -9.317   1.025  0.00  0.00    +0.004 A 
ATOM     32  C   UNL     1       0.219 -10.632   0.607  0.00  0.00    +0.002 A 
ATOM     33  C   UNL     1      -0.802 -11.186  -0.143  0.00  0.00    +0.033 A 
ATOM     34  C   UNL     1      -1.906 -10.424  -0.476  0.00  0.00    +0.126 A 
ATOM     35  C   UNL     1      -1.992  -9.110  -0.055  0.00  0.00    +0.036 A 
BRANCH  34  36
ATOM     36  N   UNL     1      -2.998 -11.017  -1.280  0.00  0.00    +0.056 N 
ATOM     37  O   UNL     1      -2.925 -12.167  -1.646  0.00  0.00    -0.126 OA
ATOM     38  O   UNL     1      -3.965 -10.351  -1.571  0.00  0.00    -0.126 OA
ENDBRANCH  34  36
ENDBRANCH   1  30
TORSDOF 6
