REMARK  Name = ZINC58915411
REMARK  12 active torsions:
REMARK  status: ('A' for Active; 'I' for Inactive)
REMARK    1  A    between atoms: C_1  and  C_2
REMARK    2  A    between atoms: C_5  and  N_9
REMARK    3  A    between atoms: C_6  and  C_8
REMARK    4  A    between atoms: C_10  and  C_37
REMARK    5  A    between atoms: C_12  and  C_15
REMARK    6  A    between atoms: C_13  and  C_14
REMARK    7  A    between atoms: N_16  and  N_17
REMARK    8  A    between atoms: C_18  and  C_20
REMARK    9  A    between atoms: C_23  and  N_26
REMARK   10  A    between atoms: N_26  and  C_27
REMARK   11  A    between atoms: N_26  and  S_28
REMARK   12  A    between atoms: S_28  and  C_31
REMARK                            x       y       z     vdW  Elec       q    Type
REMARK                         _______ _______ _______ _____ _____    ______ ____
ROOT
ATOM      1  N   UNL     1       3.878  -8.336   0.132  0.00  0.00    -0.203 N 
ATOM      2  C   UNL     1       5.201  -8.188  -0.076  0.00  0.00    +0.263 C 
ATOM      3  O   UNL     1       5.667  -7.081  -0.265  0.00  0.00    -0.268 OA
ATOM      4  H   UNL     1       3.506  -9.219   0.283  0.00  0.00    +0.178 HD
ENDROOT
BRANCH   2   5
ATOM      5  C   UNL     1       6.084  -9.370  -0.074  0.00  0.00    +0.038 A 
ATOM      6  C   UNL     1       5.549 -10.644   0.138  0.00  0.00    +0.015 A 
ATOM      7  C   UNL     1       6.376 -11.744   0.138  0.00  0.00    +0.025 A 
ATOM      8  C   UNL     1       7.743 -11.589  -0.072  0.00  0.00    +0.051 A 
ATOM      9  C   UNL     1       8.279 -10.322  -0.282  0.00  0.00    +0.025 A 
ATOM     10  C   UNL     1       7.457  -9.218  -0.289  0.00  0.00    +0.015 A 
BRANCH   8  11
ATOM     11  N   UNL     1       8.576 -12.704  -0.070  0.00  0.00    -0.206 N 
ATOM     12  C   UNL     1       8.364 -13.777  -1.044  0.00  0.00    +0.157 C 
BRANCH  11  13
ATOM     13  S   UNL     1       9.807 -12.816   1.032  0.00  0.00    +0.074 S 
ATOM     14  O   UNL     1      10.831 -13.586   0.419  0.00  0.00    -0.150 OA
ATOM     15  O   UNL     1      10.032 -11.502   1.524  0.00  0.00    -0.150 OA
BRANCH  13  16
ATOM     16  C   UNL     1       9.206 -13.766   2.389  0.00  0.00    +0.109 A 
ATOM     17  C   UNL     1       8.581 -13.138   3.449  0.00  0.00    +0.029 A 
ATOM     18  C   UNL     1       8.109 -13.883   4.514  0.00  0.00    +0.002 A 
ATOM     19  C   UNL     1       8.262 -15.257   4.517  0.00  0.00    +0.000 A 
ATOM     20  C   UNL     1       8.886 -15.885   3.456  0.00  0.00    +0.002 A 
ATOM     21  C   UNL     1       9.354 -15.140   2.389  0.00  0.00    +0.029 A 
ENDBRANCH  13  16
ENDBRANCH  11  13
ENDBRANCH   8  11
ENDBRANCH   2   5
BRANCH   1  23
ATOM     22  C   UNL     1       1.764  -7.356   0.331  0.00  0.00    +0.140 C 
ATOM     23  N   UNL     1       3.039  -7.214   0.131  0.00  0.00    -0.187 NA
BRANCH  22  27
ATOM     24  N   UNL     1       0.138  -4.099   0.210  0.00  0.00    -0.317 N 
ATOM     25  C   UNL     1      -0.958  -4.876   0.454  0.00  0.00    +0.022 A 
ATOM     26  C   UNL     1      -0.569  -6.162   0.539  0.00  0.00    +0.032 A 
ATOM     27  C   UNL     1       0.881  -6.176   0.329  0.00  0.00    +0.016 A 
ATOM     28  C   UNL     1       1.252  -4.876   0.128  0.00  0.00    +0.030 A 
ATOM     29  C   UNL     1       2.652  -4.388  -0.136  0.00  0.00    +0.064 C 
ATOM     30  C   UNL     1      -2.372  -4.376   0.605  0.00  0.00    +0.064 C 
BRANCH  24  35
ATOM     31  C   UNL     1       0.055   1.543  -0.398  0.00  0.00    +0.044 C 
ATOM     32  C   UNL     1       0.077   0.045  -0.237  0.00  0.00    -0.050 A 
ATOM     33  C   UNL     1      -0.090  -0.771  -1.341  0.00  0.00    +0.005 A 
ATOM     34  C   UNL     1      -0.070  -2.144  -1.196  0.00  0.00    +0.026 A 
ATOM     35  C   UNL     1       0.118  -2.705   0.060  0.00  0.00    +0.049 A 
ATOM     36  C   UNL     1       0.285  -1.884   1.167  0.00  0.00    -0.026 A 
ATOM     37  C   UNL     1       0.269  -0.511   1.014  0.00  0.00    +0.008 A 
ATOM     38  C   UNL     1       0.489  -2.490   2.531  0.00  0.00    +0.046 C 
ENDBRANCH  24  35
ENDBRANCH  22  27
ENDBRANCH   1  23
TORSDOF 7
