REMARK  Name = ZINC22698300
REMARK  14 active torsions:
REMARK  status: ('A' for Active; 'I' for Inactive)
REMARK    1  A    between atoms: C_1  and  C_2
REMARK    2  A    between atoms: C_2  and  O_3
REMARK    3  A    between atoms: O_3  and  C_4
REMARK    4  A    between atoms: C_7  and  C_12
REMARK    5  A    between atoms: C_9  and  O_10
REMARK    6  A    between atoms: O_10  and  C_11
REMARK    7  A    between atoms: N_14  and  N_15
REMARK    8  A    between atoms: C_16  and  C_18
REMARK    9  A    between atoms: C_18  and  C_20
REMARK   10  A    between atoms: C_18  and  N_23
REMARK   11  A    between atoms: C_20  and  C_21
REMARK   12  A    between atoms: C_20  and  C_22
REMARK   13  A    between atoms: N_23  and  S_24
REMARK   14  A    between atoms: S_24  and  C_27
REMARK                            x       y       z     vdW  Elec       q    Type
REMARK                         _______ _______ _______ _____ _____    ______ ____
ROOT
ATOM      1  N   UNL     1       2.572  -0.487   0.589  0.00  0.00    -0.233 N 
ATOM      2  C   UNL     1       1.307  -0.900   0.801  0.00  0.00    +0.248 C 
ATOM      3  O   UNL     1       1.093  -1.854   1.519  0.00  0.00    -0.273 OA
ATOM      4  H   UNL     1       2.761   0.429   0.009  0.00  0.00    +0.173 HD
ENDROOT
BRANCH   1   7
ATOM      5  C   UNL     1       4.911  -0.809   0.894  0.00  0.00    +0.260 C 
ATOM      6  O   UNL     1       5.120   0.203   0.254  0.00  0.00    -0.269 OA
ATOM      7  N   UNL     1       3.646  -1.223   1.106  0.00  0.00    -0.230 N 
ATOM      8  H   UNL     1       3.457  -2.138   1.686  0.00  0.00    +0.173 HD
BRANCH   5  12
ATOM      9  C   UNL     1       8.164  -3.046   2.467  0.00  0.00    +0.162 A 
ATOM     10  C   UNL     1       6.861  -3.470   2.685  0.00  0.00    +0.050 A 
ATOM     11  C   UNL     1       5.803  -2.745   2.181  0.00  0.00    +0.017 A 
ATOM     12  C   UNL     1       6.042  -1.585   1.440  0.00  0.00    +0.042 A 
ATOM     13  C   UNL     1       7.354  -1.157   1.220  0.00  0.00    +0.062 A 
ATOM     14  C   UNL     1       8.410  -1.887   1.733  0.00  0.00    +0.162 A 
BRANCH  14  15
ATOM     15  O   UNL     1       9.688  -1.474   1.521  0.00  0.00    -0.491 OA
ATOM     16  C   UNL     1       9.866  -0.277   0.760  0.00  0.00    +0.277 C 
ENDBRANCH  14  15
BRANCH   9  17
ATOM     17  O   UNL     1       9.203  -3.762   2.970  0.00  0.00    -0.489 OA
BRANCH  17  19
ATOM     18  C   UNL     1      10.169  -5.608   4.195  0.00  0.00    +0.048 C 
ATOM     19  C   UNL     1       8.880  -4.940   3.712  0.00  0.00    +0.226 C 
ENDBRANCH  17  19
ENDBRANCH   9  17
ENDBRANCH   5  12
ENDBRANCH   1   7
BRANCH   2  20
ATOM     20  C   UNL     1       0.158  -0.178   0.146  0.00  0.00    +0.166 C 
BRANCH  20  21
ATOM     21  C   UNL     1      -0.096   1.143   0.874  0.00  0.00    +0.010 C 
ATOM     22  C   UNL     1      -1.175   1.935   0.133  0.00  0.00    +0.009 C 
ATOM     23  C   UNL     1      -0.564   0.856   2.302  0.00  0.00    +0.009 C 
ENDBRANCH  20  21
BRANCH  20  24
ATOM     24  N   UNL     1      -1.045  -1.011   0.212  0.00  0.00    -0.178 NA
ATOM     25  H   UNL     1      -1.408  -1.376   1.185  0.00  0.00    +0.149 HD
BRANCH  24  26
ATOM     26  S   UNL     1      -1.715  -1.610  -1.178  0.00  0.00    +0.059 S 
ATOM     27  O   UNL     1      -2.792  -2.449  -0.782  0.00  0.00    -0.153 OA
ATOM     28  O   UNL     1      -1.893  -0.504  -2.052  0.00  0.00    -0.153 OA
BRANCH  26  29
ATOM     29  C   UNL     1      -0.512  -2.656  -1.929  0.00  0.00    +0.106 A 
ATOM     30  C   UNL     1       0.391  -2.118  -2.844  0.00  0.00    +0.029 A 
ATOM     31  C   UNL     1       1.336  -2.897  -3.437  0.00  0.00    +0.010 A 
ATOM     32  C   UNL     1       1.398  -4.267  -3.133  0.00  0.00    -0.018 A 
ATOM     33  C   UNL     1       2.356  -5.104  -3.731  0.00  0.00    +0.008 A 
ATOM     34  C   UNL     1       2.386  -6.427  -3.412  0.00  0.00    +0.001 A 
ATOM     35  C   UNL     1       1.480  -6.967  -2.501  0.00  0.00    +0.001 A 
ATOM     36  C   UNL     1       0.539  -6.187  -1.903  0.00  0.00    +0.008 A 
ATOM     37  C   UNL     1       0.477  -4.816  -2.207  0.00  0.00    -0.016 A 
ATOM     38  C   UNL     1      -0.481  -3.979  -1.610  0.00  0.00    +0.037 A 
ENDBRANCH  26  29
ENDBRANCH  24  26
ENDBRANCH  20  24
ENDBRANCH   2  20
TORSDOF 10
