REMARK  Name = ZINC43263035
REMARK  12 active torsions:
REMARK  status: ('A' for Active; 'I' for Inactive)
REMARK    1  A    between atoms: C_1  and  C_2
REMARK    2  A    between atoms: C_2  and  C_3
REMARK    3  A    between atoms: C_3  and  C_4
REMARK    4  A    between atoms: C_4  and  N_5
REMARK    5  A    between atoms: N_5  and  C_6
REMARK    6  A    between atoms: N_5  and  C_10
REMARK    7  A    between atoms: C_6  and  C_7
REMARK    8  A    between atoms: C_10  and  C_12
REMARK    9  A    between atoms: C_10  and  C_18
REMARK   10  A    between atoms: C_18  and  C_20
REMARK   11  A    between atoms: C_18  and  N_22
REMARK   12  A    between atoms: C_20  and  C_21
REMARK                            x       y       z     vdW  Elec       q    Type
REMARK                         _______ _______ _______ _____ _____    ______ ____
ROOT
ATOM      1  C   UNL     1       1.518  -3.945  -2.554  0.00  0.00    -0.045 C 
ENDROOT
BRANCH   1   2
ATOM      2  C   UNL     1       2.302  -4.295  -3.793  0.00  0.00    -0.024 A 
ATOM      3  C   UNL     1       3.140  -5.338  -4.005  0.00  0.00    +0.010 A 
ATOM      4  C   UNL     1       3.759  -5.462  -5.236  0.00  0.00    +0.023 A 
ATOM      5  C   UNL     1       3.507  -4.535  -6.194  0.00  0.00    +0.055 A 
ATOM      6  S   UNL     1       2.360  -3.447  -5.363  0.00  0.00    -0.088 S 
ATOM      7 BR   UNL     1       4.188  -4.427  -7.955  0.00  0.00    -0.043 Br
ENDBRANCH   1   2
BRANCH   1   8
ATOM      8  N   UNL     1       1.514  -2.487  -2.374  0.00  0.00    +0.389 N 
ATOM      9  H   UNL     1       1.022  -2.055  -3.142  0.00  0.00    -0.080 HD
BRANCH   8  10
ATOM     10  C   UNL     1       0.841  -2.152  -1.111  0.00  0.00    -0.077 C 
BRANCH  10  11
ATOM     11  C   UNL     1       0.716  -0.632  -0.988  0.00  0.00    -0.019 C 
BRANCH  11  13
ATOM     12  C   UNL     1      -0.110   1.237   0.450  0.00  0.00    +0.004 C 
ATOM     13  C   UNL     1       0.015  -0.283   0.327  0.00  0.00    -0.005 C 
ENDBRANCH  11  13
ENDBRANCH  10  11
ENDBRANCH   8  10
BRANCH   8  14
ATOM     14  C   UNL     1       2.897  -1.993  -2.337  0.00  0.00    +0.019 C 
BRANCH  14  15
ATOM     15  C   UNL     1       3.655  -2.705  -1.246  0.00  0.00    +0.194 C 
ATOM     16  O   UNL     1       3.073  -3.457  -0.494  0.00  0.00    -0.278 OA
ATOM     17  N   UNL     1       4.981  -2.505  -1.107  0.00  0.00    -0.331 N 
ATOM     18  H   UNL     1       5.447  -1.903  -1.708  0.00  0.00    +0.145 HD
ATOM     19  H   UNL     1       5.469  -2.963  -0.405  0.00  0.00    +0.145 HD
ENDBRANCH  14  15
ENDBRANCH   8  14
ENDBRANCH   1   8
BRANCH   1  20
ATOM     20  C   UNL     1       0.080  -4.445  -2.702  0.00  0.00    -0.085 C 
BRANCH  20  21
ATOM     21  N   UNL     1       0.090  -5.883  -3.001  0.00  0.00    +0.379 N 
ATOM     22  H   UNL     1      -0.858  -6.213  -3.099  0.00  0.00    -0.090 HD
ATOM     23  H   UNL     1       0.593  -6.044  -3.862  0.00  0.00    -0.090 HD
ATOM     24  H   UNL     1       0.544  -6.380  -2.249  0.00  0.00    -0.090 HD
ENDBRANCH  20  21
BRANCH  20  25
ATOM     25  C   UNL     1      -0.607  -3.692  -3.842  0.00  0.00    -0.021 C 
ATOM     26  C   UNL     1      -2.080  -4.102  -3.910  0.00  0.00    +0.002 C 
ENDBRANCH  20  25
ENDBRANCH   1  20
TORSDOF 10
