REMARK  Name = ZINC61320749
REMARK  5 active torsions:
REMARK  status: ('A' for Active; 'I' for Inactive)
REMARK    1  A    between atoms: C_1  and  C_2
REMARK    2  A    between atoms: C_5  and  C_8
REMARK    3  A    between atoms: C_8  and  N_9
REMARK    4  A    between atoms: N_9  and  C_10
REMARK    5  A    between atoms: C_15  and  N_16
REMARK                            x       y       z     vdW  Elec       q    Type
REMARK                         _______ _______ _______ _____ _____    ______ ____
ROOT
ATOM      1  C   UNL     1      -1.547  -6.074  -0.220  0.00  0.00    +0.051 A 
ATOM      2  C   UNL     1      -0.472  -6.953  -0.131  0.00  0.00    +0.026 A 
ATOM      3  C   UNL     1      -0.702  -8.316  -0.158  0.00  0.00    +0.019 A 
ATOM      4  C   UNL     1      -1.988  -8.787  -0.273  0.00  0.00    +0.041 A 
ATOM      5  C   UNL     1      -3.106  -7.928  -0.365  0.00  0.00    +0.100 A 
ATOM      6  C   UNL     1      -2.845  -6.538  -0.330  0.00  0.00    +0.073 A 
ATOM      7  N   UNL     1      -4.280  -8.585  -0.470  0.00  0.00    -0.246 NA
ATOM      8  C   UNL     1      -4.348  -9.884  -0.483  0.00  0.00    +0.157 A 
ATOM      9  S   UNL     1      -2.748 -10.388  -0.347  0.00  0.00    -0.075 S 
ENDROOT
BRANCH   6  10
ATOM     10  N   UNL     1      -3.907  -5.628  -0.411  0.00  0.00    -0.355 N 
ATOM     11  H   UNL     1      -3.731  -4.674  -0.391  0.00  0.00    +0.142 HD
ATOM     12  H   UNL     1      -4.818  -5.951  -0.488  0.00  0.00    +0.142 HD
ENDBRANCH   6  10
BRANCH   1  13
ATOM     13  N   UNL     1      -1.310  -4.691  -0.191  0.00  0.00    -0.337 N 
ATOM     14  H   UNL     1      -2.054  -4.070  -0.248  0.00  0.00    +0.147 HD
BRANCH  13  15
ATOM     15  C   UNL     1       0.059  -4.184  -0.075  0.00  0.00    +0.158 C 
BRANCH  15  20
ATOM     16  C   UNL     1      -0.018   1.503   0.010  0.00  0.00    +0.067 C 
ATOM     17  C   UNL     1       0.002  -0.004   0.002  0.00  0.00    +0.056 A 
ATOM     18  C   UNL     1       0.006  -0.689  -1.200  0.00  0.00    +0.134 A 
ATOM     19  N   UNL     1       0.024  -2.010  -1.207  0.00  0.00    -0.255 NA
ATOM     20  C   UNL     1       0.039  -2.677  -0.067  0.00  0.00    +0.076 A 
ATOM     21  C   UNL     1       0.035  -1.992   1.135  0.00  0.00    +0.136 A 
ATOM     22  N   UNL     1       0.022  -0.671   1.143  0.00  0.00    -0.257 NA
ENDBRANCH  15  20
ENDBRANCH  13  15
ENDBRANCH   1  13
TORSDOF 4
