REMARK  Name = ZINC14889234
REMARK  10 active torsions:
REMARK  status: ('A' for Active; 'I' for Inactive)
REMARK    1  A    between atoms: C_1  and  C_2
REMARK    2  A    between atoms: C_2  and  C_3
REMARK    3  A    between atoms: C_2  and  C_4
REMARK    4  A    between atoms: C_4  and  C_5
REMARK    5  A    between atoms: C_5  and  C_7
REMARK    6  A    between atoms: C_5  and  N_60
REMARK    7  A    between atoms: C_10  and  N_60
REMARK    8  A    between atoms: N_21  and  C_24
REMARK    9  A    between atoms: C_24  and  C_25
REMARK   10  A    between atoms: C_29  and  C_31
REMARK                            x       y       z     vdW  Elec       q    Type
REMARK                         _______ _______ _______ _____ _____    ______ ____
ROOT
ATOM      1  C   UNL     1      -4.630   7.295  -6.070  0.00  0.00    -0.066 C 
ATOM      2  C   UNL     1      -4.972   7.753  -4.648  0.00  0.00    -0.011 C 
ATOM      3  C   UNL     1      -4.032   7.080  -3.646  0.00  0.00    +0.035 C 
ATOM      4  C   UNL     1      -2.591   7.317  -4.086  0.00  0.00    -0.023 A 
ATOM      5  C   UNL     1      -2.309   7.685  -5.354  0.00  0.00    -0.006 A 
ATOM      6  S   UNL     1      -0.544   7.845  -5.405  0.00  0.00    -0.073 S 
ATOM      7  C   UNL     1      -0.190   7.416  -3.719  0.00  0.00    +0.116 A 
ATOM      8  C   UNL     1      -1.459   7.164  -3.174  0.00  0.00    +0.076 A 
ATOM      9  C   UNL     1      -1.475   6.787  -1.790  0.00  0.00    +0.263 A 
ATOM     10  O   UNL     1      -2.528   6.548  -1.226  0.00  0.00    -0.267 OA
ATOM     11  N   UNL     1      -0.307   6.703  -1.126  0.00  0.00    -0.294 N 
ATOM     12  C   UNL     1       0.875   6.971  -1.737  0.00  0.00    +0.203 A 
ATOM     13  N   UNL     1       0.922   7.311  -2.998  0.00  0.00    -0.230 NA
ATOM     14  C   UNL     1      -3.281   7.907  -6.473  0.00  0.00    +0.027 C 
ENDROOT
BRANCH   1  15
ATOM     15  N   UNL     1      -5.681   7.758  -6.996  0.00  0.00    +0.389 N 
ATOM     16  H   UNL     1      -6.591   7.720  -6.522  0.00  0.00    -0.084 HD
ATOM     17  H   UNL     1      -5.482   8.726  -7.277  0.00  0.00    -0.084 HD
BRANCH  15  18
ATOM     18  C   UNL     1      -5.720   6.901  -8.196  0.00  0.00    +0.016 C 
BRANCH  18  19
ATOM     19  C   UNL     1      -4.707   7.391  -9.197  0.00  0.00    +0.196 C 
ATOM     20  O   UNL     1      -4.014   8.353  -8.939  0.00  0.00    -0.278 OA
ATOM     21  N   UNL     1      -4.569   6.761 -10.381  0.00  0.00    -0.331 N 
ATOM     22  H   UNL     1      -5.123   5.992 -10.588  0.00  0.00    +0.145 HD
ATOM     23  H   UNL     1      -3.917   7.077 -11.026  0.00  0.00    +0.145 HD
ENDBRANCH  18  19
BRANCH  18  24
ATOM     24  C   UNL     1      -7.119   6.964  -8.812  0.00  0.00    -0.004 C 
BRANCH  24  26
ATOM     25  C   UNL     1      -9.550   6.587  -8.380  0.00  0.00    +0.007 C 
ATOM     26  C   UNL     1      -8.138   6.392  -7.825  0.00  0.00    -0.018 C 
ATOM     27  C   UNL     1      -7.870   4.899  -7.625  0.00  0.00    +0.007 C 
ENDBRANCH  24  26
ENDBRANCH  18  24
ENDBRANCH  15  18
ENDBRANCH   1  15
BRANCH  11  28
ATOM     28  C   UNL     1      -0.312   6.319   0.288  0.00  0.00    +0.161 C 
BRANCH  28  29
ATOM     29  C   UNL     1      -0.202   4.821   0.402  0.00  0.00    -0.027 A 
ATOM     30  C   UNL     1       1.042   4.223   0.484  0.00  0.00    +0.005 A 
ATOM     31  C   UNL     1       1.143   2.849   0.589  0.00  0.00    +0.001 A 
ATOM     32  C   UNL     1      -0.000   2.071   0.612  0.00  0.00    +0.012 A 
ATOM     33  C   UNL     1      -1.244   2.668   0.525  0.00  0.00    +0.055 A 
ATOM     34  C   UNL     1      -1.345   4.043   0.426  0.00  0.00    +0.017 A 
BRANCH  33  35
ATOM     35  C   UNL     1      -2.490   1.820   0.545  0.00  0.00    +0.417 C 
ATOM     36  F   UNL     1      -2.135   0.472   0.656  0.00  0.00    -0.166 F 
ATOM     37  F   UNL     1      -3.285   2.185   1.637  0.00  0.00    -0.166 F 
ATOM     38  F   UNL     1      -3.206   2.018  -0.641  0.00  0.00    -0.166 F 
ENDBRANCH  33  35
ENDBRANCH  28  29
ENDBRANCH  11  28
TORSDOF 8
