REMARK  Name = ZINC02257810
REMARK  4 active torsions:
REMARK  status: ('A' for Active; 'I' for Inactive)
REMARK    1  A    between atoms: C_1  and  S_2
REMARK    2  A    between atoms: S_2  and  C_3
REMARK    3  A    between atoms: C_6  and  C_29
REMARK    4  A    between atoms: C_17  and  C_19
REMARK                            x       y       z     vdW  Elec       q    Type
REMARK                         _______ _______ _______ _____ _____    ______ ____
ROOT
ATOM      1  C   UNL     1       0.756  -0.846   1.349  0.00  0.00    +0.210 A 
ATOM      2  N   UNL     1       1.071  -2.027   1.833  0.00  0.00    -0.141 NA
ATOM      3  N   UNL     1       1.775  -1.803   3.015  0.00  0.00    -0.220 N 
ATOM      4  C   UNL     1       2.349  -2.760   3.954  0.00  0.00    +0.172 C 
ATOM      5  C   UNL     1       3.285  -2.058   4.906  0.00  0.00    +0.025 C 
ATOM      6  C   UNL     1       3.315  -0.729   5.026  0.00  0.00    +0.050 C 
ATOM      7  C   UNL     1       4.255  -0.130   6.003  0.00  0.00    +0.038 A 
ATOM      8  C   UNL     1       4.586   1.219   5.959  0.00  0.00    +0.013 A 
ATOM      9  C   UNL     1       5.466   1.735   6.891  0.00  0.00    +0.001 A 
ATOM     10  C   UNL     1       6.014   0.916   7.863  0.00  0.00    +0.004 A 
ATOM     11  C   UNL     1       5.689  -0.428   7.914  0.00  0.00    +0.046 A 
ATOM     12  C   UNL     1       4.810  -0.958   6.988  0.00  0.00    +0.131 A 
ATOM     13  O   UNL     1       4.468  -2.271   7.003  0.00  0.00    -0.479 OA
ATOM     14  C   UNL     1       4.227  -2.895   5.742  0.00  0.00    +0.237 C 
ATOM     15  N   UNL     1       2.498   0.108   4.257  0.00  0.00    -0.283 N 
ATOM     16  C   UNL     1       1.847  -0.458   3.173  0.00  0.00    +0.220 A 
ATOM     17  N   UNL     1       1.236   0.103   2.167  0.00  0.00    -0.187 NA
ATOM     18  H   UNL     1       2.393   1.047   4.475  0.00  0.00    +0.155 HD
ENDROOT
BRANCH  14  19
ATOM     19  C   UNL     1       5.533  -3.054   5.008  0.00  0.00    +0.032 A 
ATOM     20  C   UNL     1       6.580  -2.189   5.264  0.00  0.00    +0.010 A 
ATOM     21  C   UNL     1       7.779  -2.336   4.591  0.00  0.00    +0.001 A 
ATOM     22  C   UNL     1       7.932  -3.347   3.662  0.00  0.00    +0.003 A 
ATOM     23  C   UNL     1       6.886  -4.214   3.404  0.00  0.00    +0.039 A 
ATOM     24  C   UNL     1       5.687  -4.071   4.082  0.00  0.00    +0.130 A 
ATOM     25  F   UNL     1       4.666  -4.921   3.834  0.00  0.00    -0.205 F 
ENDBRANCH  14  19
BRANCH   4  26
ATOM     26  C   UNL     1       1.242  -3.416   4.739  0.00  0.00    -0.019 A 
ATOM     27  C   UNL     1       0.395  -2.645   5.513  0.00  0.00    +0.009 A 
ATOM     28  C   UNL     1      -0.622  -3.245   6.233  0.00  0.00    +0.039 A 
ATOM     29  C   UNL     1      -0.791  -4.618   6.178  0.00  0.00    +0.123 A 
ATOM     30  C   UNL     1       0.059  -5.389   5.402  0.00  0.00    +0.039 A 
ATOM     31  C   UNL     1       1.071  -4.786   4.679  0.00  0.00    +0.009 A 
ATOM     32  F   UNL     1      -1.783  -5.205   6.881  0.00  0.00    -0.205 F 
ENDBRANCH   4  26
BRANCH   1  34
ATOM     33  C   UNL     1      -0.237   1.252  -0.249  0.00  0.00    +0.093 C 
ATOM     34  S   UNL     1      -0.144  -0.556  -0.138  0.00  0.00    -0.088 S 
ENDBRANCH   1  34
TORSDOF 3
