REMARK  Name = ZINC08961684
REMARK  4 active torsions:
REMARK  status: ('A' for Active; 'I' for Inactive)
REMARK    1  A    between atoms: C_4  and  N_7
REMARK    2  A    between atoms: C_14  and  N_19
REMARK    3  A    between atoms: N_19  and  S_20
REMARK    4  A    between atoms: S_20  and  C_23
REMARK                            x       y       z     vdW  Elec       q    Type
REMARK                         _______ _______ _______ _____ _____    ______ ____
ROOT
ATOM      1  N   UNL     1       2.355   3.889   0.001  0.00  0.00    -0.264 N 
ATOM      2  C   UNL     1       2.339   5.349  -0.102  0.00  0.00    +0.155 C 
ATOM      3  C   UNL     1       2.652   5.989   1.244  0.00  0.00    +0.248 C 
ATOM      4  O   UNL     1       3.757   5.357   1.879  0.00  0.00    -0.490 OA
ATOM      5  C   UNL     1       4.842   5.084   1.111  0.00  0.00    +0.133 A 
ATOM      6  C   UNL     1       6.002   5.831   1.226  0.00  0.00    +0.048 A 
ATOM      7  C   UNL     1       7.093   5.539   0.431  0.00  0.00    +0.028 A 
ATOM      8  C   UNL     1       7.037   4.497  -0.489  0.00  0.00    +0.049 A 
ATOM      9  C   UNL     1       5.884   3.740  -0.614  0.00  0.00    +0.041 A 
ATOM     10  C   UNL     1       4.780   4.029   0.187  0.00  0.00    +0.081 A 
ATOM     11  C   UNL     1       3.539   3.238   0.094  0.00  0.00    +0.255 C 
ATOM     12  O   UNL     1       3.579   2.022   0.097  0.00  0.00    -0.270 OA
ENDROOT
BRANCH   1  16
ATOM     13  C   UNL     1      -1.222   1.754   0.023  0.00  0.00    +0.000 A 
ATOM     14  C   UNL     1      -0.824   2.421  -1.121  0.00  0.00    +0.002 A 
ATOM     15  C   UNL     1       0.360   3.132  -1.131  0.00  0.00    +0.023 A 
ATOM     16  C   UNL     1       1.155   3.171   0.008  0.00  0.00    +0.037 A 
ATOM     17  C   UNL     1       0.755   2.495   1.153  0.00  0.00    +0.023 A 
ATOM     18  C   UNL     1      -0.431   1.786   1.157  0.00  0.00    +0.002 A 
ENDBRANCH   1  16
BRANCH   8  19
ATOM     19  N   UNL     1       8.149   4.213  -1.290  0.00  0.00    -0.216 N 
ATOM     20  H   UNL     1       8.033   4.046  -2.239  0.00  0.00    +0.174 HD
BRANCH  19  21
ATOM     21  S   UNL     1       9.662   4.161  -0.620  0.00  0.00    +0.072 S 
ATOM     22  O   UNL     1      10.560   3.828  -1.669  0.00  0.00    -0.150 OA
ATOM     23  O   UNL     1       9.803   5.343   0.156  0.00  0.00    -0.150 OA
BRANCH  21  24
ATOM     24  C   UNL     1       9.684   2.810   0.511  0.00  0.00    +0.109 A 
ATOM     25  C   UNL     1       9.330   3.023   1.842  0.00  0.00    +0.029 A 
ATOM     26  C   UNL     1       9.332   2.001   2.740  0.00  0.00    +0.010 A 
ATOM     27  C   UNL     1       9.707   0.712   2.325  0.00  0.00    -0.018 A 
ATOM     28  C   UNL     1       9.728  -0.368   3.225  0.00  0.00    +0.008 A 
ATOM     29  C   UNL     1      10.097  -1.602   2.787  0.00  0.00    +0.001 A 
ATOM     30  C   UNL     1      10.456  -1.814   1.457  0.00  0.00    +0.001 A 
ATOM     31  C   UNL     1      10.449  -0.793   0.558  0.00  0.00    +0.008 A 
ATOM     32  C   UNL     1      10.073   0.496   0.973  0.00  0.00    -0.016 A 
ATOM     33  C   UNL     1      10.053   1.576   0.073  0.00  0.00    +0.037 A 
ENDBRANCH  21  24
ENDBRANCH  19  21
ENDBRANCH   8  19
TORSDOF 4
