REMARK  Name = ZINC14697638
REMARK  8 active torsions:
REMARK  status: ('A' for Active; 'I' for Inactive)
REMARK    1  A    between atoms: C_4  and  C_7
REMARK    2  A    between atoms: C_7  and  N_8
REMARK    3  A    between atoms: C_9  and  N_38
REMARK    4  A    between atoms: C_10  and  N_17
REMARK    5  A    between atoms: N_17  and  C_18
REMARK    6  A    between atoms: C_18  and  C_19
REMARK    7  A    between atoms: C_19  and  C_20
REMARK    8  A    between atoms: C_26  and  C_28
REMARK                            x       y       z     vdW  Elec       q    Type
REMARK                         _______ _______ _______ _____ _____    ______ ____
ROOT
ATOM      1  N   UNL     1       1.136   3.223   0.138  0.00  0.00    -0.259 N 
ATOM      2  C   UNL     1       2.230   3.975  -0.097  0.00  0.00    +0.269 C 
ATOM      3  O   UNL     1       2.142   5.187  -0.118  0.00  0.00    -0.268 OA
ENDROOT
BRANCH   2   4
ATOM      4  C   UNL     1       3.541   3.323  -0.329  0.00  0.00    +0.127 A 
ATOM      5  C   UNL     1       4.694   4.117  -0.429  0.00  0.00    +0.033 A 
ATOM      6  C   UNL     1       5.907   3.529  -0.636  0.00  0.00    +0.012 A 
ATOM      7  C   UNL     1       5.957   2.127  -0.755  0.00  0.00    +0.000 A 
ATOM      8  C   UNL     1       7.171   1.456  -0.975  0.00  0.00    +0.010 A 
ATOM      9  C   UNL     1       7.180   0.100  -1.085  0.00  0.00    +0.001 A 
ATOM     10  C   UNL     1       6.000  -0.636  -0.983  0.00  0.00    +0.002 A 
ATOM     11  C   UNL     1       4.806  -0.021  -0.769  0.00  0.00    +0.028 A 
ATOM     12  C   UNL     1       4.754   1.382  -0.650  0.00  0.00    +0.072 A 
ATOM     13  N   UNL     1       3.597   2.010  -0.441  0.00  0.00    -0.242 NA
ENDBRANCH   2   4
BRANCH   1  16
ATOM     14  N   UNL     1       0.895  -0.382  -0.521  0.00  0.00    -0.276 N 
ATOM     15  C   UNL     1       0.761   0.977  -0.688  0.00  0.00    +0.128 A 
ATOM     16  C   UNL     1       1.258   1.827   0.280  0.00  0.00    +0.140 A 
ATOM     17  C   UNL     1       1.889   1.274   1.411  0.00  0.00    +0.277 A 
ATOM     18  O   UNL     1       2.332   2.001   2.283  0.00  0.00    -0.266 OA
ATOM     19  N   UNL     1       1.994  -0.065   1.525  0.00  0.00    -0.273 N 
ATOM     20  H   UNL     1       2.442  -0.458   2.328  0.00  0.00    +0.173 HD
ATOM     21  C   UNL     1       1.504  -0.877   0.572  0.00  0.00    +0.331 A 
ATOM     22  O   UNL     1       1.612  -2.081   0.701  0.00  0.00    -0.246 OA
BRANCH  15  23
ATOM     23  N   UNL     1       0.139   1.482  -1.804  0.00  0.00    -0.343 N 
ATOM     24  H   UNL     1      -0.144   0.884  -2.514  0.00  0.00    +0.144 HD
ATOM     25  H   UNL     1      -0.017   2.436  -1.882  0.00  0.00    +0.144 HD
ENDBRANCH  15  23
BRANCH  14  26
ATOM     26  C   UNL     1       0.372  -1.296  -1.540  0.00  0.00    +0.163 C 
BRANCH  26  30
ATOM     27  C   UNL     1      -3.675  -2.298  -0.612  0.00  0.00    +0.000 A 
ATOM     28  C   UNL     1      -3.399  -1.200  -1.406  0.00  0.00    +0.000 A 
ATOM     29  C   UNL     1      -2.090  -0.876  -1.706  0.00  0.00    +0.005 A 
ATOM     30  C   UNL     1      -1.056  -1.649  -1.212  0.00  0.00    -0.028 A 
ATOM     31  C   UNL     1      -1.331  -2.750  -0.422  0.00  0.00    +0.005 A 
ATOM     32  C   UNL     1      -2.641  -3.071  -0.118  0.00  0.00    +0.000 A 
ENDBRANCH  26  30
ENDBRANCH  14  26
ENDBRANCH   1  16
BRANCH   1  33
ATOM     33  C   UNL     1      -0.179   3.859   0.245  0.00  0.00    +0.118 C 
BRANCH  33  34
ATOM     34  C   UNL     1      -0.493   4.136   1.717  0.00  0.00    +0.050 C 
BRANCH  34  35
ATOM     35  C   UNL     1      -1.894   4.678   1.839  0.00  0.00    -0.072 C 
ATOM     36  C   UNL     1      -2.845   3.844   2.114  0.00  0.00    -0.028 C 
ATOM     37  C   UNL     1      -4.288   4.231   2.257  0.00  0.00    +0.027 C 
ATOM     38  C   UNL     1      -4.411   5.743   2.455  0.00  0.00    +0.004 C 
ATOM     39  C   UNL     1      -3.580   6.443   1.373  0.00  0.00    +0.005 C 
ATOM     40  C   UNL     1      -2.100   6.150   1.638  0.00  0.00    +0.030 C 
ENDBRANCH  34  35
ENDBRANCH  33  34
ENDBRANCH   1  33
TORSDOF 8
