REMARK  Name = ZINC40053472
REMARK  18 active torsions:
REMARK  status: ('A' for Active; 'I' for Inactive)
REMARK    1  A    between atoms: C_1  and  C_2
REMARK    2  A    between atoms: C_2  and  O_3
REMARK    3  A    between atoms: O_3  and  C_4
REMARK    4  A    between atoms: C_6  and  C_16
REMARK    5  A    between atoms: C_9  and  O_10
REMARK    6  A    between atoms: O_10  and  C_11
REMARK    7  A    between atoms: C_11  and  C_12
REMARK    8  A    between atoms: C_12  and  C_13
REMARK    9  A    between atoms: C_13  and  C_14
REMARK   10  A    between atoms: C_13  and  C_15
REMARK   11  A    between atoms: C_18  and  C_28
REMARK   12  A    between atoms: N_22  and  C_23
REMARK   13  A    between atoms: C_23  and  C_24
REMARK   14  A    between atoms: C_24  and  C_25
REMARK   15  A    between atoms: C_25  and  O_26
REMARK   16  A    between atoms: C_28  and  C_30
REMARK   17  A    between atoms: C_31  and  C_36
REMARK   18  A    between atoms: C_33  and  C_35
REMARK                            x       y       z     vdW  Elec       q    Type
REMARK                         _______ _______ _______ _____ _____    ______ ____
ROOT
ATOM      1  C   UNL     1      -0.654  -4.627  -0.435  0.00  0.00    +0.145 C 
ATOM      2  C   UNL     1      -1.890  -5.311   0.100  0.00  0.00    +0.077 C 
ATOM      3  C   UNL     1      -1.680  -6.642  -0.015  0.00  0.00    +0.249 C 
ATOM      4  C   UNL     1      -0.348  -6.875  -0.608  0.00  0.00    +0.288 C 
ATOM      5  O   UNL     1       0.131  -7.967  -0.839  0.00  0.00    -0.266 OA
ATOM      6  N   UNL     1       0.257  -5.697  -0.857  0.00  0.00    -0.283 N 
ATOM      7  O   UNL     1      -2.553  -7.608   0.355  0.00  0.00    -0.282 OA
ENDROOT
BRANCH   1  10
ATOM      8  C   UNL     1       0.389  -3.365   2.970  0.00  0.00    +0.162 A 
ATOM      9  C   UNL     1      -0.201  -4.128   1.974  0.00  0.00    +0.055 A 
ATOM     10  C   UNL     1      -0.012  -3.796   0.646  0.00  0.00    -0.019 A 
ATOM     11  C   UNL     1       0.765  -2.704   0.306  0.00  0.00    +0.009 A 
ATOM     12  C   UNL     1       1.356  -1.939   1.294  0.00  0.00    +0.050 A 
ATOM     13  C   UNL     1       1.166  -2.262   2.628  0.00  0.00    +0.162 A 
BRANCH   8  14
ATOM     14  O   UNL     1       0.204  -3.690   4.277  0.00  0.00    -0.489 OA
BRANCH  14  16
ATOM     15  C   UNL     1      -0.713  -5.037   6.062  0.00  0.00    +0.048 C 
ATOM     16  C   UNL     1      -0.521  -4.890   4.551  0.00  0.00    +0.226 C 
ENDBRANCH  14  16
ENDBRANCH   8  14
BRANCH  13  17
ATOM     17  O   UNL     1       1.742  -1.507   3.602  0.00  0.00    -0.488 OA
BRANCH  17  18
ATOM     18  C   UNL     1       2.526  -0.390   3.178  0.00  0.00    +0.229 C 
BRANCH  18  19
ATOM     19  C   UNL     1       3.089   0.333   4.403  0.00  0.00    +0.044 C 
BRANCH  19  20
ATOM     20  C   UNL     1       3.929   1.528   3.949  0.00  0.00    -0.014 C 
ATOM     21  C   UNL     1       3.027   2.551   3.254  0.00  0.00    +0.007 C 
ATOM     22  C   UNL     1       4.592   2.177   5.165  0.00  0.00    +0.007 C 
ENDBRANCH  19  20
ENDBRANCH  18  19
ENDBRANCH  17  18
ENDBRANCH  13  17
ENDBRANCH   1  10
BRANCH   2  23
ATOM     23  C   UNL     1      -3.087  -4.657   0.641  0.00  0.00    +0.203 C 
ATOM     24  O   UNL     1      -3.973  -5.326   1.143  0.00  0.00    -0.286 OA
BRANCH  23  25
ATOM     25  C   UNL     1      -3.218  -3.197   0.578  0.00  0.00    +0.082 A 
ATOM     26  C   UNL     1      -4.177  -2.365   1.143  0.00  0.00    +0.057 A 
ATOM     27  N   UNL     1      -4.038  -1.083   0.916  0.00  0.00    -0.249 NA
ATOM     28  C   UNL     1      -3.046  -0.614   0.193  0.00  0.00    +0.076 A 
ATOM     29  S   UNL     1      -2.184  -1.993  -0.241  0.00  0.00    -0.069 S 
ATOM     30  C   UNL     1      -2.747   0.821  -0.159  0.00  0.00    +0.073 C 
ATOM     31  C   UNL     1      -5.313  -2.908   1.971  0.00  0.00    +0.067 C 
ENDBRANCH  23  25
ENDBRANCH   2  23
BRANCH   6  32
ATOM     32  C   UNL     1       1.587  -5.517  -1.444  0.00  0.00    +0.111 C 
BRANCH  32  33
ATOM     33  C   UNL     1       2.635  -5.476  -0.330  0.00  0.00    +0.047 C 
BRANCH  33  34
ATOM     34  C   UNL     1       4.024  -5.287  -0.943  0.00  0.00    +0.157 C 
BRANCH  34  35
ATOM     35  O   UNL     1       5.003  -5.249   0.098  0.00  0.00    -0.395 OA
ATOM     36  H   UNL     1       5.909  -5.131  -0.219  0.00  0.00    +0.209 HD
ENDBRANCH  34  35
ENDBRANCH  33  34
ENDBRANCH  32  33
ENDBRANCH   6  32
TORSDOF 13
