REMARK  Name = ZINC14688308
REMARK  7 active torsions:
REMARK  status: ('A' for Active; 'I' for Inactive)
REMARK    1  A    between atoms: C_1  and  C_2
REMARK    2  A    between atoms: N_5  and  S_11
REMARK    3  A    between atoms: C_7  and  C_10
REMARK    4  A    between atoms: S_11  and  C_14
REMARK    5  A    between atoms: C_17  and  C_20
REMARK    6  A    between atoms: N_22  and  C_23
REMARK    7  A    between atoms: C_23  and  C_24
REMARK                            x       y       z     vdW  Elec       q    Type
REMARK                         _______ _______ _______ _____ _____    ______ ____
ROOT
ATOM      1  C   UNL     1      -1.394   8.392   2.321  0.00  0.00    +0.106 A 
ATOM      2  C   UNL     1      -1.976   7.689   3.362  0.00  0.00    +0.029 A 
ATOM      3  C   UNL     1      -1.961   6.310   3.360  0.00  0.00    +0.015 A 
ATOM      4  C   UNL     1      -1.358   5.623   2.305  0.00  0.00    +0.037 A 
ATOM      5  C   UNL     1      -0.769   6.338   1.261  0.00  0.00    +0.015 A 
ATOM      6  C   UNL     1      -0.795   7.717   1.273  0.00  0.00    +0.029 A 
ENDROOT
BRANCH   4   7
ATOM      7  C   UNL     1      -1.338   4.144   2.297  0.00  0.00    +0.244 C 
ATOM      8  O   UNL     1      -1.847   3.525   3.211  0.00  0.00    -0.270 OA
ATOM      9  N   UNL     1      -0.755   3.484   1.277  0.00  0.00    -0.311 N 
ATOM     10  H   UNL     1      -0.348   3.979   0.548  0.00  0.00    +0.149 HD
BRANCH   9  11
ATOM     11  C   UNL     1      -0.735   2.019   1.269  0.00  0.00    +0.111 C 
BRANCH  11  12
ATOM     12  C   UNL     1      -0.019   1.526   0.010  0.00  0.00    -0.013 C 
ATOM     13  C   UNL     1       1.417   2.055  -0.000  0.00  0.00    +0.012 C 
ATOM     14  C   UNL     1       2.133   1.562  -1.259  0.00  0.00    -0.010 C 
ATOM     15  C   UNL     1       2.154   0.032  -1.268  0.00  0.00    +0.007 C 
ATOM     16  C   UNL     1       0.718  -0.497  -1.257  0.00  0.00    -0.010 C 
ATOM     17  C   UNL     1       0.002  -0.004   0.002  0.00  0.00    +0.012 C 
ATOM     18  C   UNL     1      -0.022   0.009  -2.496  0.00  0.00    +0.007 C 
ATOM     19  C   UNL     1      -0.043   1.539  -2.488  0.00  0.00    -0.010 C 
ATOM     20  C   UNL     1       1.393   2.069  -2.499  0.00  0.00    +0.007 C 
ATOM     21  C   UNL     1      -0.759   2.033  -1.229  0.00  0.00    +0.012 C 
ENDBRANCH  11  12
ENDBRANCH   9  11
ENDBRANCH   4   7
BRANCH   1  22
ATOM     22  S   UNL     1      -1.417  10.153   2.331  0.00  0.00    +0.061 S 
ATOM     23  O   UNL     1      -1.289  10.569   0.979  0.00  0.00    -0.153 OA
ATOM     24  O   UNL     1      -2.515  10.540   3.147  0.00  0.00    -0.153 OA
BRANCH  22  28
ATOM     25  C   UNL     1       2.118   8.641   2.925  0.00  0.00    +0.039 C 
ATOM     26  C   UNL     1       2.336  10.148   3.075  0.00  0.00    +0.131 C 
ATOM     27  C   UNL     1       1.201  10.902   2.372  0.00  0.00    +0.140 C 
ATOM     28  N   UNL     1      -0.047  10.657   3.113  0.00  0.00    -0.172 NA
ATOM     29  C   UNL     1      -0.043  10.879   4.568  0.00  0.00    +0.140 C 
ATOM     30  C   UNL     1       1.154  10.121   5.164  0.00  0.00    +0.131 C 
ATOM     31  O   UNL     1       2.342  10.494   4.462  0.00  0.00    -0.371 OA
ATOM     32  C   UNL     1       1.300  10.483   6.644  0.00  0.00    +0.039 C 
ENDBRANCH  22  28
ENDBRANCH   1  22
TORSDOF 5
