REMARK  Name = ZINC20467062
REMARK  8 active torsions:
REMARK  status: ('A' for Active; 'I' for Inactive)
REMARK    1  A    between atoms: C_1  and  C_2
REMARK    2  A    between atoms: C_2  and  C_3
REMARK    3  A    between atoms: C_3  and  C_5
REMARK    4  A    between atoms: C_3  and  N_21
REMARK    5  A    between atoms: N_7  and  C_8
REMARK    6  A    between atoms: C_8  and  C_10
REMARK    7  A    between atoms: C_8  and  C_11
REMARK    8  A    between atoms: C_33  and  C_35
REMARK                            x       y       z     vdW  Elec       q    Type
REMARK                         _______ _______ _______ _____ _____    ______ ____
ROOT
ATOM      1  C   UNL     1       3.713  -0.497  -0.038  0.00  0.00    +0.196 C 
ENDROOT
BRANCH   1   2
ATOM      2  N   UNL     1       2.398   0.148  -0.022  0.00  0.00    -0.217 N 
ATOM      3  C   UNL     1       1.294  -0.617  -0.015  0.00  0.00    +0.277 A 
ATOM      4  O   UNL     1       1.393  -1.833  -0.022  0.00  0.00    -0.265 OA
ATOM      5  C   UNL     1       0.002  -0.004   0.002  0.00  0.00    +0.065 A 
ATOM      6  C   UNL     1      -1.314  -0.671   0.011  0.00  0.00    +0.002 A 
ATOM      7  C   UNL     1      -1.572  -2.061   0.006  0.00  0.00    +0.010 A 
ATOM      8  C   UNL     1      -2.859  -2.532   0.016  0.00  0.00    +0.001 A 
ATOM      9  C   UNL     1      -3.943  -1.666   0.031  0.00  0.00    +0.001 A 
ATOM     10  C   UNL     1      -3.723  -0.303   0.037  0.00  0.00    +0.015 A 
ATOM     11  C   UNL     1      -2.430   0.181   0.027  0.00  0.00    +0.021 A 
ATOM     12  S   UNL     1      -1.739   1.815   0.036  0.00  0.00    -0.086 S 
ATOM     13  C   UNL     1      -0.017   1.393   0.010  0.00  0.00    +0.048 A 
ATOM     14  C   UNL     1       1.163   2.145   0.003  0.00  0.00    +0.073 A 
ATOM     15  N   UNL     1       2.323   1.544  -0.013  0.00  0.00    -0.172 NA
ATOM     16  C   UNL     1       1.096   3.651   0.011  0.00  0.00    +0.068 C 
ENDBRANCH   1   2
BRANCH   1  17
ATOM     17  C   UNL     1       4.465  -0.073  -1.274  0.00  0.00    +0.238 C 
ATOM     18  O   UNL     1       3.952   0.691  -2.063  0.00  0.00    -0.273 OA
ATOM     19  N   UNL     1       5.707  -0.545  -1.502  0.00  0.00    -0.310 N 
ATOM     20  H   UNL     1       6.172  -1.238  -0.786  0.00  0.00    +0.149 HD
BRANCH  19  21
ATOM     21  C   UNL     1       6.437  -0.133  -2.704  0.00  0.00    +0.076 C 
ATOM     22  C   UNL     1       7.148   1.195  -2.438  0.00  0.00    +0.028 C 
BRANCH  21  23
ATOM     23  C   UNL     1       7.471  -1.202  -3.063  0.00  0.00    -0.010 C 
ATOM     24  C   UNL     1       6.759  -2.531  -3.329  0.00  0.00    +0.012 C 
ATOM     25  C   UNL     1       7.793  -3.600  -3.688  0.00  0.00    -0.010 C 
ATOM     26  C   UNL     1       8.556  -3.170  -4.943  0.00  0.00    +0.007 C 
ATOM     27  C   UNL     1       9.267  -1.842  -4.678  0.00  0.00    -0.010 C 
ATOM     28  C   UNL     1       8.233  -0.773  -4.318  0.00  0.00    +0.012 C 
ATOM     29  C   UNL     1      10.249  -2.013  -3.517  0.00  0.00    +0.007 C 
ATOM     30  C   UNL     1       9.486  -2.442  -2.262  0.00  0.00    -0.010 C 
ATOM     31  C   UNL     1       8.775  -3.771  -2.528  0.00  0.00    +0.007 C 
ATOM     32  C   UNL     1       8.453  -1.373  -1.903  0.00  0.00    +0.012 C 
ENDBRANCH  21  23
ENDBRANCH  19  21
ENDBRANCH   1  17
BRANCH   1  34
ATOM     33  C   UNL     1       3.803  -0.617   2.456  0.00  0.00    +0.006 C 
ATOM     34  C   UNL     1       4.501  -0.080   1.205  0.00  0.00    +0.033 C 
ENDBRANCH   1  34
TORSDOF 5
