REMARK  Name = ZINC13064886
REMARK  14 active torsions:
REMARK  status: ('A' for Active; 'I' for Inactive)
REMARK    1  A    between atoms: C_1  and  C_2
REMARK    2  A    between atoms: C_2  and  C_3
REMARK    3  A    between atoms: C_3  and  C_5
REMARK    4  A    between atoms: C_3  and  N_73
REMARK    5  A    between atoms: N_9  and  C_10
REMARK    6  A    between atoms: C_10  and  C_11
REMARK    7  A    between atoms: C_14  and  O_17
REMARK    8  A    between atoms: O_17  and  C_18
REMARK    9  A    between atoms: C_19  and  C_20
REMARK   10  A    between atoms: C_19  and  N_73
REMARK   11  A    between atoms: C_26  and  C_27
REMARK   12  A    between atoms: C_26  and  N_73
REMARK   13  A    between atoms: C_30  and  C_40
REMARK   14  A    between atoms: C_32  and  C_39
REMARK                            x       y       z     vdW  Elec       q    Type
REMARK                         _______ _______ _______ _____ _____    ______ ____
ROOT
ATOM      1  N   UNL     1       0.001   1.738   0.563  0.00  0.00    +0.392 N 
ATOM      2  H   UNL     1      -0.630   2.165   1.251  0.00  0.00    -0.080 HD
ENDROOT
BRANCH   1   3
ATOM      3  C   UNL     1       0.135   0.297   0.864  0.00  0.00    +0.003 C 
BRANCH   3   4
ATOM      4  C   UNL     1       1.190   0.103   1.922  0.00  0.00    +0.138 A 
ATOM      5  N   UNL     1       1.347   0.816   3.010  0.00  0.00    -0.115 NA
ATOM      6  N   UNL     1       2.354   0.338   3.657  0.00  0.00    -0.023 NA
ATOM      7  N   UNL     1       2.848  -0.656   3.005  0.00  0.00    -0.044 NA
ATOM      8  N   UNL     1       2.158  -0.832   1.930  0.00  0.00    -0.226 N 
BRANCH   8   9
ATOM      9  C   UNL     1       2.386  -1.857   0.908  0.00  0.00    +0.182 C 
BRANCH   9  10
ATOM     10  C   UNL     1       3.326  -1.322  -0.140  0.00  0.00    -0.026 A 
ATOM     11  C   UNL     1       2.823  -0.666  -1.248  0.00  0.00    +0.009 A 
ATOM     12  C   UNL     1       3.684  -0.169  -2.208  0.00  0.00    +0.046 A 
ATOM     13  C   UNL     1       5.053  -0.339  -2.065  0.00  0.00    +0.120 A 
ATOM     14  C   UNL     1       5.555  -1.002  -0.955  0.00  0.00    +0.046 A 
ATOM     15  C   UNL     1       4.691  -1.492   0.005  0.00  0.00    +0.009 A 
BRANCH  13  16
ATOM     16  O   UNL     1       5.902   0.145  -3.010  0.00  0.00    -0.495 OA
ATOM     17  C   UNL     1       5.314   0.817  -4.126  0.00  0.00    +0.277 C 
ENDBRANCH  13  16
ENDBRANCH   9  10
ENDBRANCH   8   9
ENDBRANCH   3   4
BRANCH   3  19
ATOM     18  C   UNL     1      -1.121  -1.731   1.608  0.00  0.00    +0.002 C 
ATOM     19  C   UNL     1      -1.209  -0.220   1.382  0.00  0.00    -0.011 C 
ENDBRANCH   3  19
ENDBRANCH   1   3
BRANCH   1  20
ATOM     20  C   UNL     1       1.322   2.396   0.649  0.00  0.00    -0.042 C 
BRANCH  20  21
ATOM     21  C   UNL     1       1.120   3.889   0.649  0.00  0.00    -0.064 A 
ATOM     22  C   UNL     1       1.147   4.591  -0.541  0.00  0.00    +0.002 A 
ATOM     23  C   UNL     1       0.957   5.960  -0.541  0.00  0.00    +0.000 A 
ATOM     24  C   UNL     1       0.750   6.629   0.651  0.00  0.00    +0.000 A 
ATOM     25  C   UNL     1       0.729   5.928   1.842  0.00  0.00    +0.000 A 
ATOM     26  C   UNL     1       0.914   4.559   1.841  0.00  0.00    +0.002 A 
ENDBRANCH  20  21
ENDBRANCH   1  20
BRANCH   1  27
ATOM     27  C   UNL     1      -0.567   1.921  -0.789  0.00  0.00    -0.036 C 
BRANCH  27  28
ATOM     28  C   UNL     1      -2.010   1.486  -0.772  0.00  0.00    +0.001 A 
ATOM     29  C   UNL     1      -2.960   2.314  -0.273  0.00  0.00    +0.017 A 
ATOM     30  C   UNL     1      -4.352   1.861  -0.271  0.00  0.00    +0.002 A 
ATOM     31  C   UNL     1      -5.376   2.672   0.230  0.00  0.00    -0.041 A 
ATOM     32  C   UNL     1      -6.665   2.220   0.218  0.00  0.00    +0.007 A 
ATOM     33  C   UNL     1      -6.968   0.963  -0.287  0.00  0.00    -0.048 A 
ATOM     34  C   UNL     1      -5.976   0.147  -0.786  0.00  0.00    +0.029 A 
ATOM     35  C   UNL     1      -4.656   0.586  -0.784  0.00  0.00    +0.050 A 
ATOM     36  N   UNL     1      -3.643  -0.208  -1.277  0.00  0.00    -0.322 N 
ATOM     37  H   UNL     1      -3.854  -1.087  -1.631  0.00  0.00    +0.169 HD
ATOM     38  C   UNL     1      -2.368   0.218  -1.280  0.00  0.00    +0.251 A 
ATOM     39  O   UNL     1      -1.499  -0.509  -1.728  0.00  0.00    -0.268 OA
ATOM     40  C   UNL     1      -8.398   0.486  -0.291  0.00  0.00    +0.044 C 
ATOM     41  C   UNL     1      -5.059   4.038   0.782  0.00  0.00    +0.044 C 
ENDBRANCH  27  28
ENDBRANCH   1  27
TORSDOF 10
