REMARK  Name = ZINC39639163
REMARK  10 active torsions:
REMARK  status: ('A' for Active; 'I' for Inactive)
REMARK    1  A    between atoms: C_1  and  O_2
REMARK    2  A    between atoms: O_2  and  C_3
REMARK    3  A    between atoms: C_5  and  O_35
REMARK    4  A    between atoms: C_6  and  C_11
REMARK    5  A    between atoms: C_7  and  O_9
REMARK    6  A    between atoms: O_9  and  C_10
REMARK    7  A    between atoms: C_11  and  N_12
REMARK    8  A    between atoms: C_13  and  C_15
REMARK    9  A    between atoms: C_26  and  C_28
REMARK   10  A    between atoms: O_35  and  C_36
REMARK                            x       y       z     vdW  Elec       q    Type
REMARK                         _______ _______ _______ _____ _____    ______ ____
ROOT
ATOM      1  C   UNL     1       6.589  -3.988  -3.926  0.00  0.00    +0.100 C 
ATOM      2  C   UNL     1       7.036  -2.557  -4.302  0.00  0.00    +0.121 C 
ATOM      3  N   UNL     1       8.360  -2.735  -4.943  0.00  0.00    -0.300 N 
ATOM      4  C   UNL     1       8.213  -3.964  -5.759  0.00  0.00    +0.115 C 
ATOM      5  C   UNL     1       7.363  -4.908  -4.885  0.00  0.00    -0.004 C 
ATOM      6  C   UNL     1       8.265  -5.853  -4.097  0.00  0.00    -0.010 C 
ATOM      7  C   UNL     1       8.981  -6.795  -5.068  0.00  0.00    -0.082 C 
ATOM      8  N   UNL     1       7.988  -7.559  -5.833  0.00  0.00    +0.379 N 
ATOM      9  C   UNL     1       7.185  -6.650  -6.659  0.00  0.00    -0.082 C 
ATOM     10  C   UNL     1       6.393  -5.701  -5.755  0.00  0.00    -0.010 C 
ATOM     11  C   UNL     1       9.452  -1.955  -4.814  0.00  0.00    +0.219 C 
ATOM     12  O   UNL     1       9.441  -1.020  -4.042  0.00  0.00    -0.275 OA
ATOM     13  H   UNL     1       8.461  -8.222  -6.428  0.00  0.00    -0.086 HD
ATOM     14  H   UNL     1       7.384  -8.055  -5.196  0.00  0.00    -0.086 HD
ENDROOT
BRANCH  11  15
ATOM     15  C   UNL     1      10.686  -2.246  -5.629  0.00  0.00    +0.079 C 
ATOM     16  C   UNL     1      11.923  -1.700  -4.904  0.00  0.00    +0.017 C 
ATOM     17  C   UNL     1      13.170  -2.162  -5.660  0.00  0.00    +0.027 C 
ATOM     18  C   UNL     1      13.024  -1.871  -7.125  0.00  0.00    -0.031 C 
ATOM     19  C   UNL     1      11.896  -1.611  -7.704  0.00  0.00    -0.030 C 
ATOM     20  C   UNL     1      10.575  -1.559  -6.992  0.00  0.00    +0.039 C 
ENDBRANCH  11  15
BRANCH   1  22
ATOM     21  N   UNL     1       4.411  -5.031  -3.391  0.00  0.00    -0.311 N 
ATOM     22  C   UNL     1       5.104  -4.145  -4.132  0.00  0.00    +0.218 C 
ATOM     23  O   UNL     1       4.534  -3.473  -4.965  0.00  0.00    -0.275 OA
ATOM     24  H   UNL     1       4.868  -5.568  -2.725  0.00  0.00    +0.149 HD
BRANCH  21  25
ATOM     25  C   UNL     1       2.968  -5.184  -3.591  0.00  0.00    +0.147 C 
BRANCH  25  29
ATOM     26  C   UNL     1       1.459  -8.155  -0.905  0.00  0.00    +0.127 A 
ATOM     27  C   UNL     1       1.500  -6.825  -0.515  0.00  0.00    +0.091 A 
ATOM     28  C   UNL     1       1.989  -5.862  -1.385  0.00  0.00    +0.132 A 
ATOM     29  C   UNL     1       2.437  -6.230  -2.645  0.00  0.00    +0.053 A 
ATOM     30  C   UNL     1       2.397  -7.560  -3.034  0.00  0.00    +0.132 A 
ATOM     31  C   UNL     1       1.912  -8.524  -2.163  0.00  0.00    +0.091 A 
BRANCH  26  33
ATOM     32  C   UNL     1       0.530  -8.648   1.227  0.00  0.00    +0.277 C 
ATOM     33  O   UNL     1       0.980  -9.099  -0.052  0.00  0.00    -0.495 OA
ENDBRANCH  26  33
BRANCH  30  34
ATOM     34  O   UNL     1       2.836  -7.921  -4.269  0.00  0.00    -0.495 OA
ATOM     35  C   UNL     1       2.766  -9.308  -4.603  0.00  0.00    +0.277 C 
ENDBRANCH  30  34
BRANCH  28  36
ATOM     36  O   UNL     1       2.029  -4.559  -1.004  0.00  0.00    -0.495 OA
ATOM     37  C   UNL     1       1.550  -4.252   0.307  0.00  0.00    +0.277 C 
ENDBRANCH  28  36
ENDBRANCH  25  29
ENDBRANCH  21  25
ENDBRANCH   1  22
TORSDOF 7
