REMARK  Name = ZINC14957650
REMARK  9 active torsions:
REMARK  status: ('A' for Active; 'I' for Inactive)
REMARK    1  A    between atoms: C_1  and  N_2
REMARK    2  A    between atoms: N_2  and  C_3
REMARK    3  A    between atoms: C_3  and  C_4
REMARK    4  A    between atoms: C_9  and  C_11
REMARK    5  A    between atoms: C_11  and  C_12
REMARK    6  A    between atoms: C_19  and  C_20
REMARK    7  A    between atoms: C_19  and  N_58
REMARK    8  A    between atoms: C_24  and  O_26
REMARK    9  A    between atoms: O_26  and  C_27
REMARK                            x       y       z     vdW  Elec       q    Type
REMARK                         _______ _______ _______ _____ _____    ______ ____
ROOT
ATOM      1  C   UNL     1       3.258   5.439   3.367  0.00  0.00    +0.028 C 
ATOM      2  C   UNL     1       3.308   5.619   4.858  0.00  0.00    +0.200 C 
ATOM      3  O   UNL     1       2.369   5.232   5.521  0.00  0.00    -0.278 OA
ATOM      4  N   UNL     1       4.344   6.187   5.484  0.00  0.00    -0.318 N 
ATOM      5  C   UNL     1       5.505   6.717   4.776  0.00  0.00    +0.085 C 
ATOM      6  C   UNL     1       5.566   6.138   3.361  0.00  0.00    -0.058 C 
ATOM      7  H   UNL     1       4.323   6.250   6.451  0.00  0.00    +0.149 HD
ATOM      8  N   UNL     1       4.245   6.331   2.730  0.00  0.00    +0.391 N 
ATOM      9  H   UNL     1       3.950   7.306   2.862  0.00  0.00    -0.080 HD
ENDROOT
BRANCH   1  10
ATOM     10  C   UNL     1       1.861   5.799   2.858  0.00  0.00    +0.090 C 
BRANCH  10  13
ATOM     11  C   UNL     1      -0.569   7.004   2.034  0.00  0.00    +0.132 C 
ATOM     12  N   UNL     1       0.381   7.781   2.835  0.00  0.00    -0.298 N 
ATOM     13  C   UNL     1       1.541   7.223   3.235  0.00  0.00    +0.215 C 
ATOM     14  O   UNL     1       2.327   7.866   3.898  0.00  0.00    -0.276 OA
BRANCH  12  15
ATOM     15  C   UNL     1       0.070   9.165   3.201  0.00  0.00    +0.170 C 
BRANCH  15  16
ATOM     16  C   UNL     1       0.593  10.096   2.138  0.00  0.00    +0.096 A 
ATOM     17  N   UNL     1      -0.010  10.536   1.058  0.00  0.00    -0.251 NA
ATOM     18  C   UNL     1       0.590  11.358   0.222  0.00  0.00    +0.119 A 
ATOM     19  C   UNL     1       1.864  11.738   0.495  0.00  0.00    +0.066 A 
ATOM     20  S   UNL     1       2.148  10.860   2.026  0.00  0.00    -0.079 S 
ENDBRANCH  15  16
ENDBRANCH  12  15
ENDBRANCH  10  13
ENDBRANCH   1  10
BRANCH   8  21
ATOM     21  C   UNL     1       4.327   6.044   1.280  0.00  0.00    -0.042 C 
BRANCH  21  22
ATOM     22  C   UNL     1       5.211   7.074   0.626  0.00  0.00    -0.060 A 
ATOM     23  C   UNL     1       6.569   6.843   0.505  0.00  0.00    +0.002 A 
ATOM     24  C   UNL     1       7.383   7.785  -0.095  0.00  0.00    +0.004 A 
ATOM     25  C   UNL     1       6.841   8.962  -0.575  0.00  0.00    +0.046 A 
ATOM     26  C   UNL     1       5.479   9.196  -0.456  0.00  0.00    +0.129 A 
ATOM     27  C   UNL     1       4.663   8.246   0.141  0.00  0.00    +0.048 A 
BRANCH  26  28
ATOM     28  O   UNL     1       4.943  10.352  -0.928  0.00  0.00    -0.456 OA
BRANCH  28  29
ATOM     29  C   UNL     1       4.832  10.501  -2.275  0.00  0.00    +0.128 A 
ATOM     30  C   UNL     1       5.229   9.477  -3.122  0.00  0.00    +0.046 A 
ATOM     31  C   UNL     1       5.110   9.628  -4.490  0.00  0.00    +0.004 A 
ATOM     32  C   UNL     1       4.605  10.803  -5.015  0.00  0.00    +0.000 A 
ATOM     33  C   UNL     1       4.213  11.828  -4.173  0.00  0.00    +0.004 A 
ATOM     34  C   UNL     1       4.325  11.679  -2.804  0.00  0.00    +0.046 A 
ENDBRANCH  28  29
ENDBRANCH  26  28
ENDBRANCH  21  22
ENDBRANCH   8  21
TORSDOF 8
