REMARK  Name = ZINC05927473
REMARK  8 active torsions:
REMARK  status: ('A' for Active; 'I' for Inactive)
REMARK    1  A    between atoms: C_1  and  C_2
REMARK    2  A    between atoms: C_5  and  N_9
REMARK    3  A    between atoms: C_6  and  C_8
REMARK    4  A    between atoms: C_10  and  O_30
REMARK    5  A    between atoms: C_11  and  C_15
REMARK    6  A    between atoms: C_12  and  C_14
REMARK    7  A    between atoms: C_17  and  C_29
REMARK    8  A    between atoms: N_19  and  C_22
REMARK                            x       y       z     vdW  Elec       q    Type
REMARK                         _______ _______ _______ _____ _____    ______ ____
ROOT
ATOM      1  N   UNL     1       3.583   2.130  -0.012  0.00  0.00    -0.200 N 
ATOM      2  C   UNL     1       4.812   1.586   0.080  0.00  0.00    +0.223 A 
ATOM      3  C   UNL     1       5.735   2.638   0.037  0.00  0.00    +0.060 A 
ATOM      4  C   UNL     1       4.946   3.866  -0.079  0.00  0.00    +0.071 A 
ATOM      5  N   UNL     1       3.690   3.520  -0.104  0.00  0.00    -0.168 NA
ATOM      6  C   UNL     1       5.486   5.271  -0.155  0.00  0.00    +0.068 C 
ENDROOT
BRANCH   1  11
ATOM      7  C   UNL     1      -1.289  -0.781   0.001  0.00  0.00    +0.044 C 
ATOM      8  C   UNL     1       0.004  -0.008  -0.003  0.00  0.00    -0.050 A 
ATOM      9  C   UNL     1       0.973  -0.280   0.946  0.00  0.00    +0.005 A 
ATOM     10  C   UNL     1       2.160   0.426   0.946  0.00  0.00    +0.028 A 
ATOM     11  C   UNL     1       2.379   1.412  -0.008  0.00  0.00    +0.072 A 
ATOM     12  C   UNL     1       1.405   1.683  -0.959  0.00  0.00    -0.025 A 
ATOM     13  C   UNL     1       0.220   0.972  -0.954  0.00  0.00    +0.008 A 
ATOM     14  C   UNL     1       1.639   2.750  -1.997  0.00  0.00    +0.046 C 
ENDBRANCH   1  11
BRANCH   3  15
ATOM     15  C   UNL     1       7.141   2.536   0.101  0.00  0.00    +0.030 C 
ATOM     16  C   UNL     1       7.738   1.779   1.102  0.00  0.00    +0.062 C 
ATOM     17  C   UNL     1       9.174   1.556   1.318  0.00  0.00    +0.069 C 
ATOM     18  N   UNL     1       9.300   0.795   2.362  0.00  0.00    -0.177 NA
ATOM     19  N   UNL     1       8.056   0.454   2.894  0.00  0.00    -0.156 N 
ATOM     20  C   UNL     1       7.072   1.024   2.170  0.00  0.00    +0.272 C 
ATOM     21  O   UNL     1       5.871   0.930   2.363  0.00  0.00    -0.268 OA
ATOM     22  C   UNL     1      10.298   2.114   0.482  0.00  0.00    +0.068 C 
BRANCH  19  23
ATOM     23  C   UNL     1       7.859  -0.361   4.017  0.00  0.00    +0.061 A 
ATOM     24  C   UNL     1       6.572  -0.630   4.463  0.00  0.00    +0.028 A 
ATOM     25  C   UNL     1       6.379  -1.438   5.566  0.00  0.00    +0.040 A 
ATOM     26  C   UNL     1       7.469  -1.970   6.235  0.00  0.00    +0.124 A 
ATOM     27  C   UNL     1       8.754  -1.698   5.795  0.00  0.00    +0.040 A 
ATOM     28  C   UNL     1       8.950  -0.895   4.689  0.00  0.00    +0.028 A 
ATOM     29  F   UNL     1       7.279  -2.756   7.317  0.00  0.00    -0.205 F 
ENDBRANCH  19  23
ENDBRANCH   3  15
BRANCH   2  30
ATOM     30  O   UNL     1       5.100   0.270   0.189  0.00  0.00    -0.492 OA
ATOM     31  H   UNL     1       5.221  -0.178  -0.659  0.00  0.00    +0.294 HD
ENDBRANCH   2  30
TORSDOF 4
