REMARK  Name = ZINC13255206
REMARK  7 active torsions:
REMARK  status: ('A' for Active; 'I' for Inactive)
REMARK    1  A    between atoms: C_1  and  C_2
REMARK    2  A    between atoms: C_3  and  C_33
REMARK    3  A    between atoms: C_9  and  C_13
REMARK    4  A    between atoms: C_13  and  S_14
REMARK    5  A    between atoms: S_14  and  C_15
REMARK    6  A    between atoms: N_29  and  C_30
REMARK    7  A    between atoms: C_30  and  C_31
REMARK                            x       y       z     vdW  Elec       q    Type
REMARK                         _______ _______ _______ _____ _____    ______ ____
ROOT
ATOM      1  C   UNL     1       4.524  -6.577  -0.055  0.00  0.00    +0.173 A 
ATOM      2  N   UNL     1       3.871  -7.722  -0.063  0.00  0.00    -0.216 NA
ATOM      3  C   UNL     1       4.525  -8.877  -0.073  0.00  0.00    +0.117 A 
ATOM      4  C   UNL     1       5.927  -8.942  -0.077  0.00  0.00    +0.076 A 
ATOM      5  C   UNL     1       6.511 -10.288  -0.092  0.00  0.00    -0.023 A 
ATOM      6  C   UNL     1       5.648 -11.323  -0.105  0.00  0.00    -0.004 A 
ATOM      7  S   UNL     1       4.036 -10.583  -0.086  0.00  0.00    -0.073 S 
ATOM      8  C   UNL     1       5.967 -12.786  -0.140  0.00  0.00    +0.043 C 
ATOM      9  C   UNL     1       7.015 -13.101   0.935  0.00  0.00    +0.005 C 
ATOM     10  C   UNL     1       8.401 -12.936   0.321  0.00  0.00    +0.001 C 
ATOM     11  C   UNL     1       8.379 -11.823  -0.726  0.00  0.00    +0.005 C 
ATOM     12  C   UNL     1       8.024 -10.489  -0.081  0.00  0.00    +0.037 C 
ATOM     13  C   UNL     1       6.611  -7.685  -0.066  0.00  0.00    +0.263 A 
ATOM     14  O   UNL     1       7.829  -7.643  -0.066  0.00  0.00    -0.267 OA
ATOM     15  N   UNL     1       5.889  -6.549  -0.062  0.00  0.00    -0.283 N 
ENDROOT
BRANCH   1  16
ATOM     16  S   UNL     1       3.624  -5.063  -0.043  0.00  0.00    -0.080 S 
BRANCH  16  17
ATOM     17  C   UNL     1       1.887  -5.585  -0.037  0.00  0.00    +0.151 C 
BRANCH  17  26
ATOM     18  C   UNL     1      -0.018   1.503   0.010  0.00  0.00    +0.087 C 
ATOM     19  C   UNL     1       0.002  -0.004   0.002  0.00  0.00    +0.119 A 
ATOM     20  C   UNL     1      -1.102  -0.806   0.003  0.00  0.00    +0.118 A 
ATOM     21  C   UNL     1      -0.586  -2.186  -0.007  0.00  0.00    +0.118 A 
ATOM     22  C   UNL     1      -1.171  -3.470  -0.011  0.00  0.00    +0.263 A 
ATOM     23  O   UNL     1      -2.382  -3.607  -0.006  0.00  0.00    -0.267 OA
ATOM     24  N   UNL     1      -0.348  -4.544  -0.020  0.00  0.00    -0.309 N 
ATOM     25  H   UNL     1      -0.720  -5.439  -0.023  0.00  0.00    +0.170 HD
ATOM     26  C   UNL     1       0.997  -4.369  -0.026  0.00  0.00    +0.124 A 
ATOM     27  N   UNL     1       1.547  -3.188  -0.022  0.00  0.00    -0.198 NA
ATOM     28  C   UNL     1       0.804  -2.070  -0.013  0.00  0.00    +0.235 A 
ATOM     29  O   UNL     1       1.106  -0.761  -0.013  0.00  0.00    -0.441 OA
BRANCH  20  30
ATOM     30  C   UNL     1      -2.507  -0.383   0.012  0.00  0.00    +0.391 C 
ATOM     31  O   UNL     1      -2.788   0.808   0.020  0.00  0.00    -0.240 OA
ATOM     32  O   UNL     1      -3.398  -1.222   0.012  0.00  0.00    -0.240 OA
ENDBRANCH  20  30
ENDBRANCH  17  26
ENDBRANCH  16  17
ENDBRANCH   1  16
BRANCH  15  33
ATOM     33  C   UNL     1       6.581  -5.258  -0.058  0.00  0.00    +0.154 C 
BRANCH  33  34
ATOM     34  C   UNL     1       6.825  -4.823   1.364  0.00  0.00    -0.013 C 
ATOM     35  C   UNL     1       8.039  -4.531   1.760  0.00  0.00    +0.005 C 
ENDBRANCH  33  34
ENDBRANCH  15  33
TORSDOF 6
