REMARK  Name = ZINC39982283
REMARK  6 active torsions:
REMARK  status: ('A' for Active; 'I' for Inactive)
REMARK    1  A    between atoms: C_1  and  C_2
REMARK    2  A    between atoms: C_8  and  C_14
REMARK    3  A    between atoms: C_16  and  N_26
REMARK    4  A    between atoms: C_20  and  C_25
REMARK    5  A    between atoms: N_26  and  C_27
REMARK    6  A    between atoms: C_27  and  C_28
REMARK                            x       y       z     vdW  Elec       q    Type
REMARK                         _______ _______ _______ _____ _____    ______ ____
ROOT
ATOM      1  C   UNL     1      -1.013  -2.596   4.436  0.00  0.00    +0.126 C 
ATOM      2  C   UNL     1      -1.191  -1.919   5.807  0.00  0.00    +0.049 C 
ATOM      3  N   UNL     1      -2.490  -1.236   5.689  0.00  0.00    -0.304 N 
ATOM      4  C   UNL     1      -3.170  -0.472   6.593  0.00  0.00    +0.078 C 
ATOM      5  C   UNL     1      -4.365   0.071   6.281  0.00  0.00    -0.036 C 
ATOM      6  C   UNL     1      -4.927  -0.146   5.011  0.00  0.00    +0.008 C 
ATOM      7  C   UNL     1      -4.264  -0.903   4.102  0.00  0.00    +0.044 C 
ATOM      8  C   UNL     1      -3.003  -1.471   4.440  0.00  0.00    +0.119 C 
ATOM      9  N   UNL     1      -2.223  -2.228   3.693  0.00  0.00    -0.265 NA
ATOM     10  C   UNL     1      -5.098   0.910   7.295  0.00  0.00    +0.045 C 
ENDROOT
BRANCH   1  18
ATOM     11  C   UNL     1       3.296  -4.869   0.702  0.00  0.00    +0.045 C 
ATOM     12  C   UNL     1       3.369  -4.370   2.122  0.00  0.00    -0.029 A 
ATOM     13  C   UNL     1       4.452  -4.668   2.886  0.00  0.00    +0.005 A 
ATOM     14  C   UNL     1       4.582  -4.237   4.206  0.00  0.00    +0.001 A 
ATOM     15  C   UNL     1       3.620  -3.488   4.804  0.00  0.00    +0.009 A 
ATOM     16  C   UNL     1       2.426  -3.131   4.038  0.00  0.00    -0.007 A 
ATOM     17  C   UNL     1       1.434  -2.381   4.597  0.00  0.00    -0.003 C 
ATOM     18  C   UNL     1       0.233  -2.058   3.730  0.00  0.00    +0.123 C 
ATOM     19  C   UNL     1       0.233  -2.595   2.316  0.00  0.00    +0.226 C 
ATOM     20  O   UNL     1      -0.706  -2.367   1.576  0.00  0.00    -0.275 OA
ATOM     21  N   UNL     1       1.257  -3.314   1.887  0.00  0.00    -0.284 N 
ATOM     22  C   UNL     1       2.317  -3.595   2.644  0.00  0.00    +0.043 A 
ATOM     23  H   UNL     1       1.237  -3.649   0.977  0.00  0.00    +0.155 HD
ENDBRANCH   1  18
BRANCH   2  24
ATOM     24  N   UNL     1      -1.226  -2.923   6.878  0.00  0.00    +0.398 N 
ATOM     25  H   UNL     1      -2.055  -3.490   6.780  0.00  0.00    -0.082 HD
ATOM     26  H   UNL     1      -0.408  -3.510   6.817  0.00  0.00    -0.082 HD
BRANCH  24  27
ATOM     27  C   UNL     1      -1.247  -2.247   8.182  0.00  0.00    -0.004 C 
BRANCH  27  28
ATOM     28  C   UNL     1      -1.152  -3.274   9.282  0.00  0.00    +0.088 A 
ATOM     29  C   UNL     1      -0.015  -3.729   9.837  0.00  0.00    +0.042 A 
ATOM     30  C   UNL     1      -0.389  -4.674  10.820  0.00  0.00    +0.041 A 
ATOM     31  C   UNL     1      -1.732  -4.739  10.807  0.00  0.00    +0.195 A 
ATOM     32  O   UNL     1      -2.189  -3.885   9.877  0.00  0.00    -0.470 OA
ENDBRANCH  27  28
ENDBRANCH  24  27
ENDBRANCH   2  24
TORSDOF 4
