REMARK  Name = ZINC33959223
REMARK  15 active torsions:
REMARK  status: ('A' for Active; 'I' for Inactive)
REMARK    1  A    between atoms: C_1  and  C_2
REMARK    2  A    between atoms: C_7  and  O_8
REMARK    3  A    between atoms: O_8  and  C_9
REMARK    4  A    between atoms: C_9  and  C_10
REMARK    5  A    between atoms: N_12  and  N_13
REMARK    6  A    between atoms: C_14  and  C_15
REMARK    7  A    between atoms: C_18  and  O_23
REMARK    8  A    between atoms: C_19  and  O_21
REMARK    9  A    between atoms: O_21  and  C_22
REMARK   10  A    between atoms: O_23  and  C_24
REMARK   11  A    between atoms: C_24  and  C_26
REMARK   12  A    between atoms: C_29  and  O_34
REMARK   13  A    between atoms: C_30  and  O_32
REMARK   14  A    between atoms: O_32  and  C_33
REMARK   15  A    between atoms: O_34  and  C_35
REMARK                            x       y       z     vdW  Elec       q    Type
REMARK                         _______ _______ _______ _____ _____    ______ ____
ROOT
ATOM      1  C   UNL     1       0.080   0.778   9.521  0.00  0.00    -0.002 A 
ATOM      2  C   UNL     1       0.084   2.163   9.340  0.00  0.00    +0.013 A 
ATOM      3  C   UNL     1       0.084   3.001  10.435  0.00  0.00    +0.051 A 
ATOM      4  C   UNL     1       0.081   2.471  11.718  0.00  0.00    +0.173 A 
ATOM      5  C   UNL     1       0.077   1.091  11.905  0.00  0.00    +0.163 A 
ATOM      6  C   UNL     1       0.070   0.245  10.812  0.00  0.00    +0.059 A 
ENDROOT
BRANCH   1   8
ATOM      7  N   UNL     1       0.087   0.377   7.152  0.00  0.00    -0.188 NA
ATOM      8  C   UNL     1       0.079  -0.120   8.351  0.00  0.00    +0.138 C 
BRANCH   7  11
ATOM      9  C   UNL     1       0.095   0.040   4.795  0.00  0.00    +0.270 C 
ATOM     10  O   UNL     1       0.103   1.243   4.637  0.00  0.00    -0.270 OA
ATOM     11  N   UNL     1       0.086  -0.476   6.040  0.00  0.00    -0.204 N 
ATOM     12  H   UNL     1       0.079  -1.437   6.167  0.00  0.00    +0.177 HD
BRANCH   9  13
ATOM     13  C   UNL     1       0.094  -0.877   3.599  0.00  0.00    +0.326 C 
BRANCH  13  14
ATOM     14  O   UNL     1       0.104  -0.098   2.401  0.00  0.00    -0.482 OA
BRANCH  14  21
ATOM     15  C   UNL     1       0.124   1.423   0.021  0.00  0.00    +0.047 C 
ATOM     16  C   UNL     1       0.114  -0.084   0.023  0.00  0.00    -0.009 A 
ATOM     17  C   UNL     1       0.121  -0.776  -1.173  0.00  0.00    +0.007 A 
ATOM     18  C   UNL     1       0.112  -2.158  -1.173  0.00  0.00    +0.000 A 
ATOM     19  C   UNL     1       0.097  -2.852   0.024  0.00  0.00    +0.004 A 
ATOM     20  C   UNL     1       0.090  -2.164   1.222  0.00  0.00    +0.046 A 
ATOM     21  C   UNL     1       0.105  -0.777   1.224  0.00  0.00    +0.124 A 
ENDBRANCH  14  21
ENDBRANCH  13  14
ENDBRANCH   9  13
ENDBRANCH   7  11
ENDBRANCH   1   8
BRANCH   5  22
ATOM     22  O   UNL     1       0.075   0.575  13.164  0.00  0.00    -0.491 OA
ATOM     23  C   UNL     1       0.071  -0.849  13.281  0.00  0.00    +0.277 C 
ENDBRANCH   5  22
BRANCH   4  24
ATOM     24  O   UNL     1       0.082   3.301  12.794  0.00  0.00    -0.419 OA
BRANCH  24  25
ATOM     25  C   UNL     1       1.257   3.540  13.408  0.00  0.00    +0.345 C 
ATOM     26  O   UNL     1       2.288   3.100  12.939  0.00  0.00    -0.245 OA
BRANCH  25  27
ATOM     27  C   UNL     1       1.293   4.337  14.649  0.00  0.00    +0.063 A 
ATOM     28  C   UNL     1       0.107   4.839  15.193  0.00  0.00    +0.019 A 
ATOM     29  C   UNL     1       0.143   5.583  16.352  0.00  0.00    +0.050 A 
ATOM     30  C   UNL     1       1.354   5.835  16.982  0.00  0.00    +0.162 A 
ATOM     31  C   UNL     1       2.540   5.337  16.445  0.00  0.00    +0.162 A 
ATOM     32  C   UNL     1       2.511   4.585  15.287  0.00  0.00    +0.064 A 
BRANCH  31  33
ATOM     33  O   UNL     1       3.724   5.586  17.065  0.00  0.00    -0.491 OA
ATOM     34  C   UNL     1       4.900   5.044  16.460  0.00  0.00    +0.277 C 
ENDBRANCH  31  33
BRANCH  30  35
ATOM     35  O   UNL     1       1.383   6.569  18.124  0.00  0.00    -0.491 OA
ATOM     36  C   UNL     1       0.131   7.049  18.619  0.00  0.00    +0.277 C 
ENDBRANCH  30  35
ENDBRANCH  25  27
ENDBRANCH  24  25
ENDBRANCH   4  24
TORSDOF 11
