REMARK  Name = ZINC33860909
REMARK  8 active torsions:
REMARK  status: ('A' for Active; 'I' for Inactive)
REMARK    1  A    between atoms: C_1  and  C_2
REMARK    2  A    between atoms: C_5  and  C_40
REMARK    3  A    between atoms: C_6  and  C_8
REMARK    4  A    between atoms: N_16  and  C_19
REMARK    5  A    between atoms: C_25  and  C_27
REMARK    6  A    between atoms: C_25  and  C_37
REMARK    7  A    between atoms: C_27  and  C_28
REMARK    8  A    between atoms: C_31  and  N_34
REMARK                            x       y       z     vdW  Elec       q    Type
REMARK                         _______ _______ _______ _____ _____    ______ ____
ROOT
ATOM      1  C   UNL     1       0.054  -2.845   2.489  0.00  0.00    +0.098 C 
ATOM      2  C   UNL     1      -1.347  -3.317   2.839  0.00  0.00    +0.111 C 
ATOM      3  C   UNL     1      -1.853  -2.019   3.578  0.00  0.00    +0.121 C 
ATOM      4  C   UNL     1      -3.279  -2.229   3.598  0.00  0.00    +0.228 C 
ATOM      5  O   UNL     1      -4.062  -1.892   4.459  0.00  0.00    -0.275 OA
ATOM      6  N   UNL     1      -3.557  -2.893   2.429  0.00  0.00    -0.238 N 
ATOM      7  C   UNL     1      -2.430  -3.384   1.808  0.00  0.00    +0.228 C 
ATOM      8  O   UNL     1      -2.329  -3.783   0.667  0.00  0.00    -0.275 OA
ATOM      9  C   UNL     1      -0.739  -1.740   4.501  0.00  0.00    +0.138 C 
ATOM     10  N   UNL     1       0.467  -1.945   3.607  0.00  0.00    -0.293 NA
ATOM     11  H   UNL     1       1.234  -2.344   4.128  0.00  0.00    +0.124 HD
ENDROOT
BRANCH   1  17
ATOM     12  C   UNL     1      -0.018   1.503   0.010  0.00  0.00    +0.044 C 
ATOM     13  C   UNL     1       0.002  -0.004   0.002  0.00  0.00    -0.050 A 
ATOM     14  C   UNL     1       0.006  -0.689  -1.199  0.00  0.00    +0.003 A 
ATOM     15  C   UNL     1       0.025  -2.071  -1.207  0.00  0.00    +0.004 A 
ATOM     16  C   UNL     1       0.040  -2.768  -0.013  0.00  0.00    -0.046 A 
ATOM     17  C   UNL     1       0.037  -2.084   1.188  0.00  0.00    -0.027 A 
ATOM     18  C   UNL     1       0.023  -0.702   1.195  0.00  0.00    +0.008 A 
ATOM     19  C   UNL     1       0.059  -4.275  -0.021  0.00  0.00    +0.044 C 
ENDBRANCH   1  17
BRANCH   6  20
ATOM     20  C   UNL     1      -4.912  -3.073   1.901  0.00  0.00    +0.084 C 
ATOM     21  C   UNL     1      -5.220  -4.567   1.786  0.00  0.00    +0.023 C 
ATOM     22  C   UNL     1      -6.635  -4.755   1.234  0.00  0.00    +0.002 C 
ATOM     23  C   UNL     1      -6.734  -4.107  -0.148  0.00  0.00    +0.000 C 
ATOM     24  C   UNL     1      -6.425  -2.612  -0.033  0.00  0.00    +0.002 C 
ATOM     25  C   UNL     1      -5.011  -2.425   0.518  0.00  0.00    +0.023 C 
ENDBRANCH   6  20
BRANCH   9  26
ATOM     26  C   UNL     1      -0.744  -2.710   5.654  0.00  0.00    +0.377 C 
ATOM     27  O   UNL     1       0.218  -3.435   5.846  0.00  0.00    -0.244 OA
ATOM     28  O   UNL     1      -1.710  -2.771   6.396  0.00  0.00    -0.244 OA
ENDBRANCH   9  26
BRANCH   9  29
ATOM     29  C   UNL     1      -0.796  -0.296   5.003  0.00  0.00    +0.069 C 
BRANCH  29  30
ATOM     30  C   UNL     1       0.420  -0.008   5.845  0.00  0.00    -0.045 A 
ATOM     31  C   UNL     1       0.390  -0.244   7.206  0.00  0.00    +0.006 A 
ATOM     32  C   UNL     1       1.506   0.020   7.978  0.00  0.00    +0.033 A 
ATOM     33  C   UNL     1       2.652   0.520   7.389  0.00  0.00    +0.126 A 
ATOM     34  C   UNL     1       2.682   0.755   6.027  0.00  0.00    +0.033 A 
ATOM     35  C   UNL     1       1.568   0.487   5.254  0.00  0.00    +0.006 A 
BRANCH  33  36
ATOM     36  N   UNL     1       3.846   0.804   8.216  0.00  0.00    +0.056 N 
ATOM     37  O   UNL     1       3.819   0.599   9.407  0.00  0.00    -0.126 OA
ATOM     38  O   UNL     1       4.848   1.241   7.700  0.00  0.00    -0.126 OA
ENDBRANCH  33  36
ENDBRANCH  29  30
ENDBRANCH   9  29
TORSDOF 6
