REMARK  Name = ZINC33289404
REMARK  6 active torsions:
REMARK  status: ('A' for Active; 'I' for Inactive)
REMARK    1  A    between atoms: C_1  and  C_2
REMARK    2  A    between atoms: C_5  and  C_8
REMARK    3  A    between atoms: C_8  and  N_9
REMARK    4  A    between atoms: C_10  and  C_12
REMARK    5  A    between atoms: C_12  and  N_13
REMARK    6  A    between atoms: C_27  and  C_31
REMARK                            x       y       z     vdW  Elec       q    Type
REMARK                         _______ _______ _______ _____ _____    ______ ____
ROOT
ATOM      1  N   UNL     1       1.250  -5.952  -3.087  0.00  0.00    -0.217 N 
ATOM      2  C   UNL     1       0.178  -6.772  -3.080  0.00  0.00    +0.366 A 
ATOM      3  O   UNL     1      -0.987  -6.415  -3.067  0.00  0.00    -0.243 OA
ATOM      4  N   UNL     1       0.603  -8.037  -3.092  0.00  0.00    -0.172 NA
ATOM      5  C   UNL     1       1.929  -8.062  -3.106  0.00  0.00    +0.169 A 
ATOM      6  N   UNL     1       2.387  -6.774  -3.108  0.00  0.00    -0.218 N 
ATOM      7  C   UNL     1       3.716  -6.506  -3.115  0.00  0.00    +0.224 A 
ATOM      8  N   UNL     1       4.598  -7.471  -3.129  0.00  0.00    -0.228 NA
ATOM      9  C   UNL     1       4.226  -8.747  -3.133  0.00  0.00    +0.114 A 
ATOM     10  C   UNL     1       2.874  -9.133  -3.122  0.00  0.00    +0.055 A 
ATOM     11  C   UNL     1       2.620 -10.573  -3.130  0.00  0.00    -0.024 A 
ATOM     12  C   UNL     1       3.698 -11.385  -3.146  0.00  0.00    -0.004 A 
ATOM     13  S   UNL     1       5.096 -10.294  -3.152  0.00  0.00    -0.073 S 
ATOM     14  C   UNL     1       3.706 -12.883  -3.156  0.00  0.00    +0.046 C 
ATOM     15  C   UNL     1       2.304 -13.378  -2.772  0.00  0.00    -0.009 C 
ATOM     16  C   UNL     1       1.269 -12.606  -3.595  0.00  0.00    +0.008 C 
ATOM     17  C   UNL     1       1.208 -11.153  -3.122  0.00  0.00    +0.037 C 
ATOM     18  C   UNL     1       2.189 -14.874  -3.070  0.00  0.00    +0.008 C 
ENDROOT
BRANCH   1  19
ATOM     19  C   UNL     1       1.230  -4.487  -3.080  0.00  0.00    +0.243 C 
BRANCH  19  21
ATOM     20  N   UNL     1       1.222  -2.667  -1.404  0.00  0.00    -0.310 N 
ATOM     21  C   UNL     1       1.237  -3.991  -1.657  0.00  0.00    +0.235 C 
ATOM     22  O   UNL     1       1.257  -4.784  -0.739  0.00  0.00    -0.274 OA
ATOM     23  H   UNL     1       1.204  -1.949  -2.237  0.00  0.00    +0.149 HD
BRANCH  20  24
ATOM     24  C   UNL     1       1.229  -2.186  -0.021  0.00  0.00    +0.139 C 
BRANCH  24  29
ATOM     25  C   UNL     1       1.151   3.592   0.010  0.00  0.00    +0.044 C 
ATOM     26  C   UNL     1       1.171   2.086   0.002  0.00  0.00    -0.050 A 
ATOM     27  C   UNL     1      -0.017   1.378   0.010  0.00  0.00    +0.003 A 
ATOM     28  C   UNL     1       0.002  -0.004   0.002  0.00  0.00    +0.005 A 
ATOM     29  C   UNL     1       1.208  -0.679  -0.013  0.00  0.00    -0.030 A 
ATOM     30  C   UNL     1       2.396   0.029  -0.021  0.00  0.00    +0.005 A 
ATOM     31  C   UNL     1       2.377   1.411  -0.015  0.00  0.00    +0.003 A 
ENDBRANCH  24  29
ENDBRANCH  20  24
ENDBRANCH  19  21
ENDBRANCH   1  19
TORSDOF 4
