REMARK  Name = ZINC13940336
REMARK  5 active torsions:
REMARK  status: ('A' for Active; 'I' for Inactive)
REMARK    1  A    between atoms: C_3  and  N_23
REMARK    2  A    between atoms: C_6  and  C_7
REMARK    3  A    between atoms: C_10  and  C_12
REMARK    4  A    between atoms: N_13  and  N_14
REMARK    5  A    between atoms: C_15  and  C_16
REMARK                            x       y       z     vdW  Elec       q    Type
REMARK                         _______ _______ _______ _____ _____    ______ ____
ROOT
ATOM      1  C   UNL     1      -4.667  -0.452   0.711  0.00  0.00    +0.178 C 
ATOM      2  N   UNL     1      -5.353   0.673   0.470  0.00  0.00    -0.177 NA
ENDROOT
BRANCH   2   3
ATOM      3  N   UNL     1      -6.638   0.634   0.365  0.00  0.00    -0.262 N 
ATOM      4  C   UNL     1      -7.329   1.765   0.123  0.00  0.00    +0.143 C 
ATOM      5  N   UNL     1      -6.677   2.937  -0.009  0.00  0.00    -0.342 N 
ATOM      6  H   UNL     1      -5.708   2.950  -0.058  0.00  0.00    +0.144 HD
ATOM      7  H   UNL     1      -7.176   3.767  -0.057  0.00  0.00    +0.144 HD
ATOM      8  H   UNL     1      -7.107  -0.209   0.460  0.00  0.00    +0.190 HD
BRANCH   4   9
ATOM      9  C   UNL     1      -8.795   1.721   0.002  0.00  0.00    +0.187 A 
ATOM     10  C   UNL     1      -9.637   2.726  -0.663  0.00  0.00    +0.191 A 
ATOM     11  N   UNL     1     -10.882   2.347  -0.567  0.00  0.00    -0.033 NA
ATOM     12  O   UNL     1     -10.913   1.120   0.140  0.00  0.00    -0.240 OA
ATOM     13  N   UNL     1      -9.578   0.775   0.466  0.00  0.00    -0.044 NA
ATOM     14  N   UNL     1      -9.185   3.880  -1.286  0.00  0.00    -0.339 N 
ATOM     15  H   UNL     1      -8.234   4.024  -1.408  0.00  0.00    +0.144 HD
ATOM     16  H   UNL     1      -9.821   4.543  -1.599  0.00  0.00    +0.144 HD
ENDBRANCH   4   9
ENDBRANCH   2   3
BRANCH   1  20
ATOM     17  C   UNL     1      -1.222   0.338   0.884  0.00  0.00    +0.136 A 
ATOM     18  C   UNL     1      -1.137  -1.047   1.114  0.00  0.00    +0.050 A 
ATOM     19  C   UNL     1      -2.404  -1.548   1.085  0.00  0.00    +0.051 A 
ATOM     20  C   UNL     1      -3.289  -0.410   0.825  0.00  0.00    +0.148 A 
ATOM     21  O   UNL     1      -2.508   0.689   0.721  0.00  0.00    -0.454 OA
BRANCH  17  27
ATOM     22  C   UNL     1      -0.290   2.627   0.602  0.00  0.00    +0.014 A 
ATOM     23  C   UNL     1       0.787   3.484   0.558  0.00  0.00    +0.033 A 
ATOM     24  C   UNL     1       2.072   2.998   0.742  0.00  0.00    +0.126 A 
ATOM     25  C   UNL     1       2.287   1.648   0.972  0.00  0.00    +0.033 A 
ATOM     26  C   UNL     1       1.223   0.776   1.020  0.00  0.00    +0.014 A 
ATOM     27  C   UNL     1      -0.083   1.258   0.835  0.00  0.00    +0.017 A 
BRANCH  24  28
ATOM     28  N   UNL     1       3.224   3.927   0.692  0.00  0.00    +0.056 N 
ATOM     29  O   UNL     1       3.025   5.211   0.473  0.00  0.00    -0.126 OA
ATOM     30  O   UNL     1       4.447   3.471   0.866  0.00  0.00    -0.126 OA
ENDBRANCH  24  28
ENDBRANCH  17  27
ENDBRANCH   1  20
TORSDOF 5
