REMARK  Name = ZINC13499328
REMARK  11 active torsions:
REMARK  status: ('A' for Active; 'I' for Inactive)
REMARK    1  A    between atoms: C_1  and  C_2
REMARK    2  A    between atoms: C_2  and  C_3
REMARK    3  A    between atoms: C_3  and  C_4
REMARK    4  A    between atoms: C_4  and  C_6
REMARK    5  A    between atoms: C_4  and  N_66
REMARK    6  A    between atoms: N_10  and  C_11
REMARK    7  A    between atoms: C_11  and  C_12
REMARK    8  A    between atoms: C_17  and  C_18
REMARK    9  A    between atoms: C_17  and  N_66
REMARK   10  A    between atoms: C_23  and  C_30
REMARK   11  A    between atoms: C_31  and  N_66
REMARK                            x       y       z     vdW  Elec       q    Type
REMARK                         _______ _______ _______ _____ _____    ______ ____
ROOT
ATOM      1  N   UNL     1      -0.997   1.455   1.606  0.00  0.00    +0.391 N 
ATOM      2  H   UNL     1      -1.130   2.421   1.927  0.00  0.00    -0.080 HD
ENDROOT
BRANCH   1   3
ATOM      3  C   UNL     1       0.227   1.386   0.781  0.00  0.00    -0.067 C 
ATOM      4  C   UNL     1       0.205   2.505  -0.290  0.00  0.00    -0.015 C 
ATOM      5  C   UNL     1       1.708   2.706  -0.606  0.00  0.00    -0.002 C 
ATOM      6  C   UNL     1       2.405   2.552   0.761  0.00  0.00    -0.002 C 
ATOM      7  C   UNL     1       1.464   1.713   1.643  0.00  0.00    -0.015 C 
ENDBRANCH   1   3
BRANCH   1   8
ATOM      8  C   UNL     1      -2.171   1.050   0.804  0.00  0.00    +0.003 C 
BRANCH   8   9
ATOM      9  C   UNL     1      -1.810  -0.085  -0.120  0.00  0.00    +0.139 A 
ATOM     10  N   UNL     1      -0.902  -0.067  -1.065  0.00  0.00    -0.115 NA
ATOM     11  N   UNL     1      -0.892  -1.224  -1.631  0.00  0.00    -0.023 NA
ATOM     12  N   UNL     1      -1.771  -1.980  -1.071  0.00  0.00    -0.044 NA
ATOM     13  N   UNL     1      -2.354  -1.316  -0.132  0.00  0.00    -0.223 N 
BRANCH  13  14
ATOM     14  C   UNL     1      -3.412  -1.808   0.754  0.00  0.00    +0.221 C 
BRANCH  14  15
ATOM     15  C   UNL     1      -4.757  -1.534   0.131  0.00  0.00    +0.126 A 
ATOM     16  C   UNL     1      -5.422  -2.359  -0.697  0.00  0.00    +0.046 A 
ATOM     17  C   UNL     1      -6.632  -1.710  -1.037  0.00  0.00    +0.041 A 
ATOM     18  C   UNL     1      -6.629  -0.524  -0.402  0.00  0.00    +0.195 A 
ATOM     19  O   UNL     1      -5.491  -0.423   0.303  0.00  0.00    -0.466 OA
ENDBRANCH  14  15
ENDBRANCH  13  14
ENDBRANCH   8   9
BRANCH   8  20
ATOM     20  C   UNL     1      -2.636   2.251  -0.022  0.00  0.00    -0.008 C 
BRANCH  20  22
ATOM     21  C   UNL     1      -3.612   4.548   0.100  0.00  0.00    +0.004 C 
ATOM     22  C   UNL     1      -3.030   3.393   0.917  0.00  0.00    -0.005 C 
ENDBRANCH  20  22
ENDBRANCH   8  20
ENDBRANCH   1   8
BRANCH   1  23
ATOM     23  C   UNL     1      -0.862   0.573   2.785  0.00  0.00    -0.036 C 
BRANCH  23  24
ATOM     24  C   UNL     1      -1.904   0.962   3.801  0.00  0.00    +0.001 A 
ATOM     25  C   UNL     1      -3.061   0.260   3.886  0.00  0.00    +0.017 A 
ATOM     26  C   UNL     1      -4.050   0.660   4.889  0.00  0.00    -0.001 A 
ATOM     27  C   UNL     1      -5.260  -0.029   5.027  0.00  0.00    +0.010 A 
ATOM     28  C   UNL     1      -6.165   0.373   5.968  0.00  0.00    +0.004 A 
ATOM     29  C   UNL     1      -5.894   1.460   6.788  0.00  0.00    -0.048 A 
ATOM     30  C   UNL     1      -4.709   2.153   6.671  0.00  0.00    +0.029 A 
ATOM     31  C   UNL     1      -3.773   1.762   5.719  0.00  0.00    +0.049 A 
ATOM     32  N   UNL     1      -2.579   2.438   5.578  0.00  0.00    -0.322 N 
ATOM     33  H   UNL     1      -2.390   3.197   6.151  0.00  0.00    +0.169 HD
ATOM     34  C   UNL     1      -1.675   2.060   4.658  0.00  0.00    +0.251 A 
ATOM     35  O   UNL     1      -0.630   2.681   4.562  0.00  0.00    -0.268 OA
ATOM     36  C   UNL     1      -6.908   1.886   7.820  0.00  0.00    +0.044 C 
ENDBRANCH  23  24
ENDBRANCH   1  23
TORSDOF 9
