REMARK  Name = ZINC40452850
REMARK  7 active torsions:
REMARK  status: ('A' for Active; 'I' for Inactive)
REMARK    1  A    between atoms: C_1  and  C_2
REMARK    2  A    between atoms: C_7  and  C_8
REMARK    3  A    between atoms: C_7  and  C_9
REMARK    4  A    between atoms: N_12  and  N_13
REMARK    5  A    between atoms: N_15  and  C_33
REMARK    6  A    between atoms: C_19  and  C_20
REMARK    7  A    between atoms: C_25  and  C_26
REMARK                            x       y       z     vdW  Elec       q    Type
REMARK                         _______ _______ _______ _____ _____    ______ ____
ROOT
ATOM      1  N   UNL     1       0.563  -0.986  -3.838  0.00  0.00    -0.126 NA
ATOM      2  C   UNL     1       1.214  -0.370  -4.804  0.00  0.00    +0.194 C 
ATOM      3  N   UNL     1       1.374   0.986  -5.001  0.00  0.00    -0.213 N 
ATOM      4  C   UNL     1       2.066   1.438  -6.034  0.00  0.00    +0.263 C 
ATOM      5  O   UNL     1       2.218   2.631  -6.223  0.00  0.00    -0.269 OA
ATOM      6  C   UNL     1       2.644   0.435  -6.943  0.00  0.00    +0.079 C 
ATOM      7  C   UNL     1       3.389   0.617  -8.065  0.00  0.00    +0.032 C 
ATOM      8  S   UNL     1       2.111  -1.086  -6.171  0.00  0.00    -0.047 S 
ENDROOT
BRANCH   1  19
ATOM      9  C   UNL     1      -1.492   1.307  -0.659  0.00  0.00    +0.018 C 
ATOM     10  C   UNL     1      -1.643  -0.205  -0.837  0.00  0.00    +0.013 C 
ATOM     11  C   UNL     1      -3.088  -0.715  -1.127  0.00  0.00    +0.013 C 
ATOM     12  C   UNL     1      -3.055  -2.214  -0.752  0.00  0.00    +0.005 C 
ATOM     13  C   UNL     1      -1.590  -2.465  -0.279  0.00  0.00    +0.001 C 
ATOM     14  C   UNL     1      -1.267  -1.089   0.404  0.00  0.00    -0.021 C 
ATOM     15  C   UNL     1      -2.176  -0.814   1.603  0.00  0.00    +0.012 C 
ATOM     16  C   UNL     1       0.213  -0.962   0.772  0.00  0.00    +0.012 C 
ATOM     17  C   UNL     1      -0.741  -2.357  -1.583  0.00  0.00    +0.057 C 
ATOM     18  C   UNL     1      -0.764  -0.842  -1.922  0.00  0.00    +0.048 C 
ATOM     19  N   UNL     1      -0.191  -0.246  -2.918  0.00  0.00    -0.156 NA
ENDBRANCH   1  19
BRANCH   7  20
ATOM     20  C   UNL     1       3.866  -0.544  -8.825  0.00  0.00    +0.021 A 
ATOM     21  C   UNL     1       3.637  -1.876  -8.534  0.00  0.00    +0.113 A 
ATOM     22  N   UNL     1       4.247  -2.614  -9.478  0.00  0.00    -0.284 N 
ATOM     23  H   UNL     1       4.246  -3.583  -9.516  0.00  0.00    +0.188 HD
ATOM     24  N   UNL     1       4.881  -1.773 -10.396  0.00  0.00    -0.173 NA
ATOM     25  C   UNL     1       4.675  -0.522 -10.049  0.00  0.00    +0.100 A 
BRANCH  25  26
ATOM     26  C   UNL     1       5.169   0.682 -10.758  0.00  0.00    +0.003 A 
ATOM     27  C   UNL     1       4.394   1.841 -10.793  0.00  0.00    +0.010 A 
ATOM     28  C   UNL     1       4.860   2.959 -11.454  0.00  0.00    +0.001 A 
ATOM     29  C   UNL     1       6.093   2.933 -12.080  0.00  0.00    +0.000 A 
ATOM     30  C   UNL     1       6.866   1.786 -12.049  0.00  0.00    +0.001 A 
ATOM     31  C   UNL     1       6.413   0.663 -11.386  0.00  0.00    +0.010 A 
ENDBRANCH  25  26
ENDBRANCH   7  20
BRANCH   3  32
ATOM     32  C   UNL     1       0.799   1.891  -4.101  0.00  0.00    +0.044 A 
ATOM     33  C   UNL     1       1.473   2.240  -2.938  0.00  0.00    +0.024 A 
ATOM     34  C   UNL     1       0.904   3.134  -2.053  0.00  0.00    +0.002 A 
ATOM     35  C   UNL     1      -0.337   3.681  -2.323  0.00  0.00    +0.000 A 
ATOM     36  C   UNL     1      -1.012   3.336  -3.479  0.00  0.00    +0.002 A 
ATOM     37  C   UNL     1      -0.445   2.447  -4.372  0.00  0.00    +0.024 A 
ENDBRANCH   3  32
TORSDOF 4
