REMARK  Name = ZINC64208531
REMARK  3 active torsions:
REMARK  status: ('A' for Active; 'I' for Inactive)
REMARK    1  A    between atoms: C_7  and  C_10
REMARK    2  A    between atoms: C_16  and  C_18
REMARK    3  A    between atoms: C_21  and  C_25
REMARK                            x       y       z     vdW  Elec       q    Type
REMARK                         _______ _______ _______ _____ _____    ______ ____
ROOT
ATOM      1  C   UNL     1       0.513  -2.901  -0.062  0.00  0.00    -0.043 C 
ATOM      2  C   UNL     1      -0.780  -2.851   0.234  0.00  0.00    -0.004 C 
ATOM      3  C   UNL     1      -1.674  -4.060   0.223  0.00  0.00    +0.135 C 
ATOM      4  N   UNL     1      -0.963  -5.180  -0.407  0.00  0.00    -0.294 N 
ATOM      5  C   UNL     1       0.445  -5.388  -0.029  0.00  0.00    +0.113 C 
ATOM      6  C   UNL     1       1.238  -4.151  -0.464  0.00  0.00    +0.054 C 
ATOM      7  C   UNL     1      -1.575  -5.986  -1.298  0.00  0.00    +0.241 C 
ATOM      8  O   UNL     1      -0.995  -6.964  -1.733  0.00  0.00    -0.271 OA
ENDROOT
BRANCH   1  15
ATOM      9  C   UNL     1       4.773  -1.895  -1.249  0.00  0.00    +0.001 A 
ATOM     10  C   UNL     1       5.119  -0.559  -1.019  0.00  0.00    +0.002 A 
ATOM     11  C   UNL     1       4.243   0.327  -0.490  0.00  0.00    +0.026 A 
ATOM     12  C   UNL     1       2.929  -0.096  -0.153  0.00  0.00    +0.043 A 
ATOM     13  N   UNL     1       1.910   0.556   0.364  0.00  0.00    -0.380 N 
ATOM     14  C   UNL     1       0.775  -0.360   0.512  0.00  0.00    +0.149 C 
ATOM     15  C   UNL     1       1.252  -1.701  -0.000  0.00  0.00    -0.016 C 
ATOM     16  C   UNL     1       2.568  -1.504  -0.397  0.00  0.00    +0.003 A 
ATOM     17  C   UNL     1       3.538  -2.370  -0.953  0.00  0.00    +0.010 A 
ATOM     18  H   UNL     1       1.910   1.495   0.609  0.00  0.00    +0.160 HD
ENDBRANCH   1  15
BRANCH   7  19
ATOM     19  C   UNL     1      -2.890  -5.694  -1.728  0.00  0.00    +0.086 C 
ATOM     20  C   UNL     1      -3.560  -6.578  -2.496  0.00  0.00    +0.020 C 
ATOM     21  N   UNL     1      -3.063  -7.805  -2.759  0.00  0.00    -0.329 N 
ATOM     22  C   UNL     1      -3.553  -8.476  -3.983  0.00  0.00    +0.196 C 
ATOM     23  S   UNL     1      -5.245  -7.751  -4.106  0.00  0.00    -0.125 S 
ATOM     24  C   UNL     1      -4.914  -6.242  -3.100  0.00  0.00    +0.122 C 
ATOM     25  H   UNL     1      -2.415  -8.226  -2.173  0.00  0.00    +0.147 HD
BRANCH  22  26
ATOM     26  C   UNL     1      -3.611  -9.971  -3.800  0.00  0.00    +0.135 A 
ATOM     27  C   UNL     1      -3.445 -10.889  -4.768  0.00  0.00    +0.047 A 
ATOM     28  C   UNL     1      -3.579 -12.157  -4.158  0.00  0.00    +0.041 A 
ATOM     29  C   UNL     1      -3.818 -11.938  -2.852  0.00  0.00    +0.195 A 
ATOM     30  O   UNL     1      -3.831 -10.612  -2.640  0.00  0.00    -0.465 OA
ENDBRANCH  22  26
ENDBRANCH   7  19
TORSDOF 3
