REMARK  Name = ZINC00985602
REMARK  8 active torsions:
REMARK  status: ('A' for Active; 'I' for Inactive)
REMARK    1  A    between atoms: C_1  and  C_2
REMARK    2  A    between atoms: C_5  and  C_8
REMARK    3  A    between atoms: C_15  and  N_36
REMARK    4  A    between atoms: C_16  and  C_34
REMARK    5  A    between atoms: C_17  and  C_19
REMARK    6  A    between atoms: C_22  and  O_25
REMARK    7  A    between atoms: O_25  and  C_26
REMARK    8  A    between atoms: C_26  and  C_28
REMARK                            x       y       z     vdW  Elec       q    Type
REMARK                         _______ _______ _______ _____ _____    ______ ____
ROOT
ATOM      1  C   UNL     1       0.138  -4.513  -0.092  0.00  0.00    +0.100 A 
ATOM      2  C   UNL     1       0.796  -5.244   0.901  0.00  0.00    +0.054 A 
ATOM      3  C   UNL     1       0.626  -6.571   0.632  0.00  0.00    +0.223 A 
ATOM      4  N   UNL     1      -0.112  -6.671  -0.492  0.00  0.00    -0.246 N 
ATOM      5  H   UNL     1      -0.389  -7.495  -0.921  0.00  0.00    +0.192 HD
ATOM      6  N   UNL     1      -0.414  -5.371  -0.929  0.00  0.00    -0.171 NA
ATOM      7  O   UNL     1       1.145  -7.549   1.416  0.00  0.00    -0.423 OA
ATOM      8  C   UNL     1       1.609  -7.196   2.632  0.00  0.00    +0.200 C 
ATOM      9  C   UNL     1       1.829  -5.917   3.010  0.00  0.00    +0.098 C 
ATOM     10  C   UNL     1       1.578  -4.748   2.090  0.00  0.00    +0.102 C 
ENDROOT
BRANCH   1  15
ATOM     11  C   UNL     1      -0.142   1.228  -0.453  0.00  0.00    +0.044 C 
ATOM     12  C   UNL     1      -0.069  -0.274  -0.358  0.00  0.00    -0.050 A 
ATOM     13  C   UNL     1      -0.004  -1.034  -1.512  0.00  0.00    +0.004 A 
ATOM     14  C   UNL     1       0.063  -2.411  -1.431  0.00  0.00    +0.010 A 
ATOM     15  C   UNL     1       0.066  -3.034  -0.185  0.00  0.00    +0.003 A 
ATOM     16  C   UNL     1       0.001  -2.263   0.974  0.00  0.00    +0.010 A 
ATOM     17  C   UNL     1      -0.061  -0.887   0.882  0.00  0.00    +0.004 A 
ENDBRANCH   1  15
BRANCH  10  18
ATOM     18  C   UNL     1       2.891  -4.170   1.630  0.00  0.00    -0.034 A 
ATOM     19  C   UNL     1       3.792  -4.964   0.945  0.00  0.00    +0.008 A 
ATOM     20  C   UNL     1       4.997  -4.438   0.522  0.00  0.00    +0.046 A 
ATOM     21  C   UNL     1       5.303  -3.110   0.786  0.00  0.00    +0.132 A 
ATOM     22  C   UNL     1       4.398  -2.316   1.474  0.00  0.00    +0.046 A 
ATOM     23  C   UNL     1       3.192  -2.846   1.890  0.00  0.00    +0.008 A 
BRANCH  21  24
ATOM     24  O   UNL     1       6.489  -2.590   0.372  0.00  0.00    -0.422 OA
BRANCH  24  25
ATOM     25  C   UNL     1       6.677  -2.419  -0.951  0.00  0.00    +0.344 C 
ATOM     26  O   UNL     1       5.765  -2.629  -1.726  0.00  0.00    -0.245 OA
BRANCH  25  27
ATOM     27  C   UNL     1       7.991  -1.978  -1.459  0.00  0.00    +0.059 A 
ATOM     28  C   UNL     1       9.043  -1.741  -0.571  0.00  0.00    +0.015 A 
ATOM     29  C   UNL     1      10.268  -1.329  -1.053  0.00  0.00    +0.001 A 
ATOM     30  C   UNL     1      10.456  -1.149  -2.412  0.00  0.00    +0.000 A 
ATOM     31  C   UNL     1       9.418  -1.381  -3.297  0.00  0.00    +0.001 A 
ATOM     32  C   UNL     1       8.190  -1.800  -2.830  0.00  0.00    +0.015 A 
ENDBRANCH  25  27
ENDBRANCH  24  25
ENDBRANCH  21  24
ENDBRANCH  10  18
BRANCH   8  33
ATOM     33  N   UNL     1       1.872  -8.192   3.538  0.00  0.00    -0.328 N 
ATOM     34  H   UNL     1       1.724  -9.120   3.296  0.00  0.00    +0.145 HD
ATOM     35  H   UNL     1       2.207  -7.969   4.421  0.00  0.00    +0.145 HD
ENDBRANCH   8  33
BRANCH   9  36
ATOM     36  C   UNL     1       2.319  -5.662   4.331  0.00  0.00    +0.101 C 
ATOM     37  N   UNL     1       2.708  -5.461   5.379  0.00  0.00    -0.191 NA
ENDBRANCH   9  36
TORSDOF 7
