REMARK  Name = ZINC64186071
REMARK  7 active torsions:
REMARK  status: ('A' for Active; 'I' for Inactive)
REMARK    1  A    between atoms: C_1  and  C_2
REMARK    2  A    between atoms: C_7  and  C_11
REMARK    3  A    between atoms: C_11  and  O_12
REMARK    4  A    between atoms: O_12  and  C_13
REMARK    5  A    between atoms: C_16  and  C_19
REMARK    6  A    between atoms: N_21  and  N_22
REMARK    7  A    between atoms: C_23  and  C_25
REMARK                            x       y       z     vdW  Elec       q    Type
REMARK                         _______ _______ _______ _____ _____    ______ ____
ROOT
ATOM      1  C   UNL     1       0.109  -6.342   4.586  0.00  0.00    +0.121 A 
ATOM      2  C   UNL     1       0.130  -7.620   4.039  0.00  0.00    +0.046 A 
ATOM      3  C   UNL     1       0.148  -8.723   4.862  0.00  0.00    +0.016 A 
ATOM      4  C   UNL     1       0.145  -8.557   6.249  0.00  0.00    +0.038 A 
ATOM      5  C   UNL     1       0.125  -7.271   6.796  0.00  0.00    +0.016 A 
ATOM      6  C   UNL     1       0.112  -6.173   5.966  0.00  0.00    +0.046 A 
ENDROOT
BRANCH   4   7
ATOM      7  C   UNL     1       0.164  -9.738   7.136  0.00  0.00    +0.260 C 
ATOM      8  O   UNL     1       0.182 -10.856   6.659  0.00  0.00    -0.269 OA
ATOM      9  N   UNL     1       0.162  -9.576   8.474  0.00  0.00    -0.230 N 
ATOM     10  H   UNL     1       0.148  -8.684   8.854  0.00  0.00    +0.173 HD
BRANCH   9  11
ATOM     11  N   UNL     1       0.180 -10.696   9.315  0.00  0.00    -0.230 N 
ATOM     12  C   UNL     1       0.178 -10.534  10.653  0.00  0.00    +0.258 C 
ATOM     13  O   UNL     1       0.160  -9.415  11.130  0.00  0.00    -0.269 OA
ATOM     14  H   UNL     1       0.194 -11.588   8.934  0.00  0.00    +0.173 HD
BRANCH  12  15
ATOM     15  C   UNL     1       0.197 -11.707  11.533  0.00  0.00    +0.044 C 
ATOM     16  C   UNL     1       0.191 -11.714  12.911  0.00  0.00    +0.008 A 
ATOM     17  C   UNL     1       0.169 -10.678  13.879  0.00  0.00    +0.010 A 
ATOM     18  C   UNL     1       0.170 -10.978  15.196  0.00  0.00    +0.001 A 
ATOM     19  C   UNL     1       0.193 -12.301  15.668  0.00  0.00    +0.002 A 
ATOM     20  C   UNL     1       0.215 -13.359  14.829  0.00  0.00    +0.026 A 
ATOM     21  C   UNL     1       0.215 -13.122  13.377  0.00  0.00    +0.043 A 
ATOM     22  N   UNL     1       0.234 -13.938  12.361  0.00  0.00    -0.380 N 
ATOM     23  C   UNL     1       0.219 -13.162  11.118  0.00  0.00    +0.154 C 
ATOM     24  H   UNL     1       0.252 -14.907  12.419  0.00  0.00    +0.160 HD
ENDBRANCH  12  15
ENDBRANCH   9  11
ENDBRANCH   4   7
BRANCH   1  25
ATOM     25  O   UNL     1       0.091  -5.257   3.771  0.00  0.00    -0.486 OA
BRANCH  25  26
ATOM     26  C   UNL     1       0.088  -5.503   2.364  0.00  0.00    +0.286 C 
BRANCH  26  33
ATOM     27  C   UNL     1      -0.018   1.503   0.010  0.00  0.00    +0.045 C 
ATOM     28  C   UNL     1       0.002  -0.004   0.002  0.00  0.00    -0.034 A 
ATOM     29  C   UNL     1       0.006  -0.697  -1.220  0.00  0.00    +0.008 A 
ATOM     30  C   UNL     1       0.025  -2.057  -1.224  0.00  0.00    +0.047 A 
ATOM     31  C   UNL     1       0.040  -2.750   0.003  0.00  0.00    +0.138 A 
ATOM     32  N   UNL     1       0.059  -4.043   0.297  0.00  0.00    -0.229 NA
ATOM     33  C   UNL     1       0.067  -4.189   1.625  0.00  0.00    +0.097 A 
ATOM     34  C   UNL     1       0.053  -2.964   2.194  0.00  0.00    +0.119 A 
ATOM     35  N   UNL     1       0.036  -2.047   1.179  0.00  0.00    -0.306 N 
ATOM     36  C   UNL     1       0.022  -0.682   1.169  0.00  0.00    +0.096 A 
ENDBRANCH  26  33
ENDBRANCH  25  26
ENDBRANCH   1  25
TORSDOF 6
