REMARK  Name = ZINC11378860
REMARK  11 active torsions:
REMARK  status: ('A' for Active; 'I' for Inactive)
REMARK    1  A    between atoms: C_1  and  C_2
REMARK    2  A    between atoms: C_2  and  C_3
REMARK    3  A    between atoms: C_2  and  C_4
REMARK    4  A    between atoms: C_8  and  C_29
REMARK    5  A    between atoms: C_9  and  N_10
REMARK    6  A    between atoms: C_11  and  C_13
REMARK    7  A    between atoms: C_13  and  S_14
REMARK    8  A    between atoms: S_14  and  C_15
REMARK    9  A    between atoms: N_19  and  C_20
REMARK   10  A    between atoms: C_29  and  C_30
REMARK   11  A    between atoms: C_29  and  C_31
REMARK                            x       y       z     vdW  Elec       q    Type
REMARK                         _______ _______ _______ _____ _____    ______ ____
ROOT
ATOM      1  N   UNL     1       1.226   7.855   3.800  0.00  0.00    -0.284 N 
ATOM      2  C   UNL     1       1.669   7.049   2.815  0.00  0.00    +0.228 C 
ATOM      3  O   UNL     1       1.574   7.398   1.657  0.00  0.00    -0.275 OA
ATOM      4  H   UNL     1       1.358   7.604   4.728  0.00  0.00    +0.155 HD
ENDROOT
BRANCH   1  10
ATOM      5  C   UNL     1      -0.582   9.035   2.719  0.00  0.00    -0.023 A 
ATOM      6  C   UNL     1      -1.225  10.219   2.413  0.00  0.00    +0.006 A 
ATOM      7  C   UNL     1      -0.711  11.422   2.861  0.00  0.00    +0.001 A 
ATOM      8  C   UNL     1       0.445  11.443   3.620  0.00  0.00    +0.006 A 
ATOM      9  C   UNL     1       1.090  10.262   3.933  0.00  0.00    -0.023 A 
ATOM     10  C   UNL     1       0.576   9.053   3.485  0.00  0.00    +0.040 A 
BRANCH   5  12
ATOM     11  C   UNL     1      -2.012   7.099   3.316  0.00  0.00    +0.012 C 
ATOM     12  C   UNL     1      -1.140   7.725   2.225  0.00  0.00    +0.015 C 
ATOM     13  C   UNL     1      -1.986   7.970   0.974  0.00  0.00    +0.012 C 
ENDBRANCH   5  12
BRANCH   9  14
ATOM     14  C   UNL     1       2.350  10.287   4.759  0.00  0.00    +0.015 C 
ATOM     15  C   UNL     1       3.417  11.111   4.036  0.00  0.00    +0.012 C 
ATOM     16  C   UNL     1       2.054  10.918   6.121  0.00  0.00    +0.012 C 
ENDBRANCH   9  14
ENDBRANCH   1  10
BRANCH   2  17
ATOM     17  C   UNL     1       2.283   5.715   3.152  0.00  0.00    +0.173 C 
BRANCH  17  18
ATOM     18  S   UNL     1       2.777   4.873   1.623  0.00  0.00    -0.077 S 
BRANCH  18  19
ATOM     19  C   UNL     1       3.467   3.350   2.178  0.00  0.00    +0.194 A 
ATOM     20  N   UNL     1       3.572   2.961   3.425  0.00  0.00    -0.121 NA
ATOM     21  N   UNL     1       4.179   1.698   3.435  0.00  0.00    -0.112 NA
ATOM     22  C   UNL     1       4.420   1.355   2.194  0.00  0.00    +0.221 A 
ATOM     23  N   UNL     1       3.984   2.365   1.384  0.00  0.00    -0.287 N 
ATOM     24  N   UNL     1       5.015   0.172   1.775  0.00  0.00    -0.300 N 
ATOM     25  C   UNL     1       4.041  -0.697   1.101  0.00  0.00    +0.108 C 
ATOM     26  C   UNL     1       4.758  -1.921   0.527  0.00  0.00    +0.019 C 
ATOM     27  C   UNL     1       5.448  -2.681   1.663  0.00  0.00    +0.003 C 
ATOM     28  C   UNL     1       6.422  -1.741   2.378  0.00  0.00    +0.019 C 
ATOM     29  C   UNL     1       5.656  -0.522   2.899  0.00  0.00    +0.108 C 
BRANCH  23  30
ATOM     30  C   UNL     1       4.061   2.390  -0.079  0.00  0.00    +0.093 C 
ATOM     31  C   UNL     1       4.605   3.660  -0.736  0.00  0.00    +0.027 C 
ATOM     32  C   UNL     1       5.454   2.387  -0.713  0.00  0.00    +0.027 C 
ENDBRANCH  23  30
ENDBRANCH  18  19
ENDBRANCH  17  18
ENDBRANCH   2  17
TORSDOF 7
