REMARK  Name = ZINC20347507
REMARK  13 active torsions:
REMARK  status: ('A' for Active; 'I' for Inactive)
REMARK    1  A    between atoms: C_1  and  C_2
REMARK    2  A    between atoms: C_2  and  C_3
REMARK    3  A    between atoms: C_6  and  N_9
REMARK    4  A    between atoms: C_10  and  C_12
REMARK    5  A    between atoms: C_12  and  S_13
REMARK    6  A    between atoms: S_13  and  C_14
REMARK    7  A    between atoms: C_15  and  C_38
REMARK    8  A    between atoms: C_16  and  C_33
REMARK    9  A    between atoms: C_18  and  C_22
REMARK   10  A    between atoms: C_19  and  C_21
REMARK   11  A    between atoms: N_24  and  C_25
REMARK   12  A    between atoms: C_26  and  C_32
REMARK   13  A    between atoms: C_30  and  C_31
REMARK                            x       y       z     vdW  Elec       q    Type
REMARK                         _______ _______ _______ _____ _____    ______ ____
ROOT
ATOM      1  C   UNL     1       1.487   2.018   0.396  0.00  0.00    +0.080 C 
ATOM      2  C   UNL     1       0.661   1.501  -0.553  0.00  0.00    +0.072 C 
ATOM      3  C   UNL     1       0.419   0.022  -0.654  0.00  0.00    +0.134 C 
ATOM      4  C   UNL     1       1.460  -0.743   0.111  0.00  0.00    +0.047 C 
ATOM      5  C   UNL     1       2.245  -0.148   1.024  0.00  0.00    +0.015 C 
ATOM      6  N   UNL     1       2.131   1.190   1.287  0.00  0.00    -0.312 N 
ATOM      7  C   UNL     1       3.267  -0.967   1.770  0.00  0.00    +0.061 C 
ATOM      8  H   UNL     1       2.555   1.603   2.214  0.00  0.00    +0.152 HD
ENDROOT
BRANCH   3   9
ATOM      9  C   UNL     1      -0.943  -0.297  -0.092  0.00  0.00    +0.118 A 
ATOM     10  C   UNL     1      -1.958  -0.866  -0.766  0.00  0.00    +0.045 A 
ATOM     11  C   UNL     1      -3.037  -0.982   0.140  0.00  0.00    +0.041 A 
ATOM     12  C   UNL     1      -2.619  -0.469   1.311  0.00  0.00    +0.195 A 
ATOM     13  O   UNL     1      -1.350  -0.056   1.165  0.00  0.00    -0.467 OA
ENDBRANCH   3   9
BRANCH   4  14
ATOM     14  C   UNL     1       1.617  -2.128  -0.136  0.00  0.00    +0.247 C 
ATOM     15  O   UNL     1       2.523  -2.742   0.398  0.00  0.00    -0.270 OA
ATOM     16  N   UNL     1       0.764  -2.767  -0.961  0.00  0.00    -0.281 N 
ATOM     17  H   UNL     1      -0.028  -2.204  -1.476  0.00  0.00    +0.155 HD
BRANCH  16  18
ATOM     18  C   UNL     1       0.887  -4.145  -1.163  0.00  0.00    +0.040 A 
ATOM     19  C   UNL     1       2.080  -4.676  -1.634  0.00  0.00    -0.029 A 
ATOM     20  C   UNL     1       2.200  -6.039  -1.827  0.00  0.00    +0.005 A 
ATOM     21  C   UNL     1       1.129  -6.872  -1.563  0.00  0.00    +0.001 A 
ATOM     22  C   UNL     1      -0.063  -6.346  -1.098  0.00  0.00    +0.005 A 
ATOM     23  C   UNL     1      -0.187  -4.986  -0.897  0.00  0.00    -0.029 A 
ATOM     24  C   UNL     1      -1.486  -4.413  -0.391  0.00  0.00    +0.045 C 
ATOM     25  C   UNL     1       3.246  -3.768  -1.929  0.00  0.00    +0.045 C 
ENDBRANCH  16  18
ENDBRANCH   4  14
BRANCH   2  26
ATOM     26  C   UNL     1       0.014   2.384  -1.478  0.00  0.00    +0.098 C 
ATOM     27  N   UNL     1      -0.498   3.084  -2.211  0.00  0.00    -0.191 NA
ENDBRANCH   2  26
BRANCH   1  28
ATOM     28  S   UNL     1       1.734   3.760   0.485  0.00  0.00    -0.100 S 
BRANCH  28  29
ATOM     29  C   UNL     1       2.882   3.843   1.882  0.00  0.00    +0.171 C 
BRANCH  29  31
ATOM     30  N   UNL     1       4.093   5.588   3.151  0.00  0.00    -0.285 N 
ATOM     31  C   UNL     1       3.245   5.281   2.149  0.00  0.00    +0.227 C 
ATOM     32  O   UNL     1       2.774   6.163   1.463  0.00  0.00    -0.275 OA
ATOM     33  H   UNL     1       4.590   4.785   3.715  0.00  0.00    +0.155 HD
BRANCH  30  37
ATOM     34  C   UNL     1       4.829   9.574   4.112  0.00  0.00    -0.048 A 
ATOM     35  C   UNL     1       3.613   9.210   3.564  0.00  0.00    +0.005 A 
ATOM     36  C   UNL     1       3.366   7.889   3.245  0.00  0.00    +0.023 A 
ATOM     37  C   UNL     1       4.340   6.926   3.474  0.00  0.00    +0.033 A 
ATOM     38  C   UNL     1       5.558   7.295   4.029  0.00  0.00    +0.023 A 
ATOM     39  C   UNL     1       5.802   8.618   4.341  0.00  0.00    +0.005 A 
BRANCH  34  41
ATOM     40  C   UNL     1       4.656  11.283   5.901  0.00  0.00    +0.009 C 
ATOM     41  C   UNL     1       5.096  11.016   4.460  0.00  0.00    +0.032 C 
ENDBRANCH  34  41
ENDBRANCH  30  37
ENDBRANCH  29  31
ENDBRANCH  28  29
ENDBRANCH   1  28
TORSDOF 9
