REMARK  Name = ZINC37359282
REMARK  2 active torsions:
REMARK  status: ('A' for Active; 'I' for Inactive)
REMARK    1  A    between atoms: C_6  and  C_7
REMARK    2  A    between atoms: C_7  and  C_9
REMARK                            x       y       z     vdW  Elec       q    Type
REMARK                         _______ _______ _______ _____ _____    ______ ____
ROOT
ATOM      1  C   UNL     1      -0.005   1.385   0.124  0.00  0.00    +0.014 A 
ATOM      2  C   UNL     1       1.176   2.083   0.232  0.00  0.00    +0.028 A 
ATOM      3  C   UNL     1       2.381   1.399   0.342  0.00  0.00    +0.067 A 
ATOM      4  C   UNL     1       2.396  -0.000   0.344  0.00  0.00    +0.067 A 
ATOM      5  C   UNL     1       1.213  -0.705   0.235  0.00  0.00    +0.039 A 
ATOM      6  C   UNL     1       0.003  -0.014   0.126  0.00  0.00    +0.024 A 
ATOM      7  N   UNL     1       3.730  -0.387   0.466  0.00  0.00    -0.306 N 
ATOM      8  H   UNL     1       4.056  -1.300   0.496  0.00  0.00    +0.170 HD
ATOM      9  C   UNL     1       4.487   0.724   0.535  0.00  0.00    +0.325 A 
ATOM     10  O   UNL     1       5.698   0.741   0.645  0.00  0.00    -0.247 OA
ATOM     11  N   UNL     1       3.700   1.815   0.463  0.00  0.00    -0.306 N 
ATOM     12  H   UNL     1       4.004   2.735   0.490  0.00  0.00    +0.170 HD
ENDROOT
BRANCH   6  13
ATOM     13  C   UNL     1      -1.265  -0.760   0.010  0.00  0.00    +0.196 C 
ATOM     14  O   UNL     1      -2.324  -0.162   0.014  0.00  0.00    -0.287 OA
BRANCH  13  15
ATOM     15  C   UNL     1      -1.248  -2.231  -0.109  0.00  0.00    +0.059 A 
ATOM     16  C   UNL     1      -1.591  -3.029   0.986  0.00  0.00    +0.034 A 
ATOM     17  C   UNL     1      -1.572  -4.403   0.867  0.00  0.00    +0.042 A 
ATOM     18  C   UNL     1      -1.216  -4.994  -0.334  0.00  0.00    +0.023 A 
ATOM     19  C   UNL     1      -0.875  -4.213  -1.423  0.00  0.00    +0.040 A 
ATOM     20  C   UNL     1      -0.894  -2.834  -1.321  0.00  0.00    +0.134 A 
ATOM     21  F   UNL     1      -0.567  -2.071  -2.387  0.00  0.00    -0.205 F 
ATOM     22 CL   UNL     1      -1.997  -5.394   2.227  0.00  0.00    -0.084 Cl
ENDBRANCH  13  15
ENDBRANCH   6  13
TORSDOF 2
