REMARK  Name = ZINC02660156
REMARK  10 active torsions:
REMARK  status: ('A' for Active; 'I' for Inactive)
REMARK    1  A    between atoms: C_1  and  O_2
REMARK    2  A    between atoms: O_2  and  C_3
REMARK    3  A    between atoms: C_5  and  C_13
REMARK    4  A    between atoms: C_7  and  O_11
REMARK    5  A    between atoms: C_8  and  O_9
REMARK    6  A    between atoms: O_9  and  C_10
REMARK    7  A    between atoms: O_11  and  C_12
REMARK    8  A    between atoms: C_16  and  S_18
REMARK    9  A    between atoms: S_18  and  C_19
REMARK   10  A    between atoms: C_19  and  C_20
REMARK                            x       y       z     vdW  Elec       q    Type
REMARK                         _______ _______ _______ _____ _____    ______ ____
ROOT
ATOM      1  C   UNL     1      -3.174 -10.105   0.852  0.00  0.00    +0.249 A 
ATOM      2  N   UNL     1      -1.913 -10.203   0.506  0.00  0.00    -0.106 NA
ATOM      3  N   UNL     1      -1.414  -9.025   0.372  0.00  0.00    -0.101 NA
ATOM      4  C   UNL     1      -2.337  -8.127   0.627  0.00  0.00    +0.278 A 
ATOM      5  O   UNL     1      -3.467  -8.789   0.941  0.00  0.00    -0.411 OA
ENDROOT
BRANCH   1   8
ATOM      6  C   UNL     1      -4.526 -13.593   1.216  0.00  0.00    +0.166 A 
ATOM      7  C   UNL     1      -3.655 -12.544   0.979  0.00  0.00    +0.063 A 
ATOM      8  C   UNL     1      -4.101 -11.227   1.104  0.00  0.00    +0.046 A 
ATOM      9  C   UNL     1      -5.423 -10.972   1.473  0.00  0.00    +0.063 A 
ATOM     10  C   UNL     1      -6.291 -12.025   1.704  0.00  0.00    +0.166 A 
ATOM     11  C   UNL     1      -5.844 -13.336   1.579  0.00  0.00    +0.204 A 
BRANCH   6  13
ATOM     12  C   UNL     1      -2.726 -15.067   0.721  0.00  0.00    +0.277 C 
ATOM     13  O   UNL     1      -4.092 -14.877   1.095  0.00  0.00    -0.491 OA
ENDBRANCH   6  13
BRANCH  11  14
ATOM     14  O   UNL     1      -6.698 -14.370   1.812  0.00  0.00    -0.488 OA
ATOM     15  C   UNL     1      -6.768 -14.865   3.151  0.00  0.00    +0.277 C 
ENDBRANCH  11  14
BRANCH  10  16
ATOM     16  O   UNL     1      -7.580 -11.777   2.059  0.00  0.00    -0.491 OA
ATOM     17  C   UNL     1      -7.971 -10.407   2.170  0.00  0.00    +0.277 C 
ENDBRANCH  10  16
ENDBRANCH   1   8
BRANCH   4  18
ATOM     18  S   UNL     1      -2.133  -6.378   0.575  0.00  0.00    -0.058 S 
BRANCH  18  19
ATOM     19  C   UNL     1      -0.390  -6.279   0.097  0.00  0.00    +0.153 C 
BRANCH  19  20
ATOM     20  C   UNL     1       0.019  -4.832  -0.012  0.00  0.00    +0.121 A 
ATOM     21  N   UNL     1       1.297  -4.547  -0.361  0.00  0.00    -0.310 N 
ATOM     22  H   UNL     1       1.925  -5.306  -0.535  0.00  0.00    +0.170 HD
ATOM     23  C   UNL     1       1.764  -3.282  -0.486  0.00  0.00    +0.260 A 
ATOM     24  O   UNL     1       2.917  -3.045  -0.802  0.00  0.00    -0.267 OA
ATOM     25  C   UNL     1       0.813  -2.239  -0.224  0.00  0.00    +0.075 A 
ATOM     26  C   UNL     1       1.052  -0.808  -0.288  0.00  0.00    -0.023 A 
ATOM     27  C   UNL     1       0.002  -0.004   0.002  0.00  0.00    -0.004 A 
ATOM     28  S   UNL     1      -1.340  -1.107   0.369  0.00  0.00    -0.073 S 
ATOM     29  C   UNL     1      -0.494  -2.637   0.134  0.00  0.00    +0.116 A 
ATOM     30  N   UNL     1      -0.879  -3.905   0.237  0.00  0.00    -0.226 NA
ATOM     31  C   UNL     1      -0.018   1.493   0.010  0.00  0.00    +0.043 C 
ATOM     32  C   UNL     1       1.431   2.000  -0.001  0.00  0.00    +0.005 C 
ATOM     33  C   UNL     1       2.206   1.244  -1.084  0.00  0.00    +0.005 C 
ATOM     34  C   UNL     1       2.406  -0.211  -0.660  0.00  0.00    +0.037 C 
ENDBRANCH  19  20
ENDBRANCH  18  19
ENDBRANCH   4  18
TORSDOF 7
