REMARK  Name = ZINC19534536
REMARK  11 active torsions:
REMARK  status: ('A' for Active; 'I' for Inactive)
REMARK    1  A    between atoms: C_1  and  C_2
REMARK    2  A    between atoms: C_3  and  C_33
REMARK    3  A    between atoms: N_4  and  C_27
REMARK    4  A    between atoms: C_5  and  N_9
REMARK    5  A    between atoms: C_6  and  C_7
REMARK    6  A    between atoms: C_10  and  C_12
REMARK    7  A    between atoms: C_12  and  N_13
REMARK    8  A    between atoms: C_17  and  C_19
REMARK    9  A    between atoms: C_22  and  O_25
REMARK   10  A    between atoms: O_25  and  C_26
REMARK   11  A    between atoms: C_27  and  C_28
REMARK                            x       y       z     vdW  Elec       q    Type
REMARK                         _______ _______ _______ _____ _____    ______ ____
ROOT
ATOM      1  N   UNL     1      -0.061   1.414   0.338  0.00  0.00    -0.272 N 
ATOM      2  C   UNL     1      -0.708   2.010   1.359  0.00  0.00    +0.202 C 
ATOM      3  O   UNL     1      -1.246   1.337   2.212  0.00  0.00    -0.278 OA
ATOM      4  H   UNL     1       0.485   2.022  -0.397  0.00  0.00    +0.156 HD
ENDROOT
BRANCH   1   9
ATOM      5  C   UNL     1      -1.542  -3.352  -0.458  0.00  0.00    +0.047 C 
ATOM      6  C   UNL     1      -0.721  -2.130  -0.137  0.00  0.00    -0.011 A 
ATOM      7  C   UNL     1       0.576  -2.104   0.210  0.00  0.00    +0.022 A 
ATOM      8  N   UNL     1       0.962  -0.807   0.422  0.00  0.00    -0.324 N 
ATOM      9  C   UNL     1      -0.086   0.032   0.214  0.00  0.00    +0.124 A 
ATOM     10  C   UNL     1      -1.185  -0.737  -0.138  0.00  0.00    +0.095 A 
ATOM     11  C   UNL     1       1.467  -3.312   0.345  0.00  0.00    +0.064 C 
BRANCH  10  12
ATOM     12  C   UNL     1      -2.504  -0.268  -0.442  0.00  0.00    +0.103 C 
ATOM     13  N   UNL     1      -3.550   0.104  -0.683  0.00  0.00    -0.191 NA
ENDBRANCH  10  12
BRANCH   8  14
ATOM     14  C   UNL     1       2.308  -0.387   0.816  0.00  0.00    +0.197 C 
BRANCH  14  15
ATOM     15  C   UNL     1       2.386  -0.294   2.318  0.00  0.00    +0.124 A 
ATOM     16  C   UNL     1       2.733  -1.291   3.151  0.00  0.00    +0.046 A 
ATOM     17  C   UNL     1       2.675  -0.768   4.464  0.00  0.00    +0.041 A 
ATOM     18  C   UNL     1       2.288   0.516   4.355  0.00  0.00    +0.195 A 
ATOM     19  O   UNL     1       2.115   0.797   3.053  0.00  0.00    -0.466 OA
ENDBRANCH  14  15
ENDBRANCH   8  14
ENDBRANCH   1   9
BRANCH   2  20
ATOM     20  C   UNL     1      -0.761   3.514   1.442  0.00  0.00    +0.020 C 
BRANCH  20  21
ATOM     21  N   UNL     1      -1.517   3.912   2.637  0.00  0.00    +0.390 N 
ATOM     22  C   UNL     1      -2.974   3.701   2.440  0.00  0.00    -0.077 C 
ATOM     23  C   UNL     1      -3.645   4.623   3.481  0.00  0.00    -0.020 C 
ATOM     24  C   UNL     1      -2.603   5.722   3.774  0.00  0.00    -0.013 C 
ATOM     25  C   UNL     1      -1.390   5.372   2.885  0.00  0.00    -0.037 C 
ATOM     26  H   UNL     1      -1.105   3.304   3.456  0.00  0.00    -0.080 HD
BRANCH  25  27
ATOM     27  C   UNL     1      -0.103   5.671   3.610  0.00  0.00    -0.061 A 
ATOM     28  C   UNL     1       0.330   4.834   4.622  0.00  0.00    +0.005 A 
ATOM     29  C   UNL     1       1.512   5.104   5.284  0.00  0.00    +0.046 A 
ATOM     30  C   UNL     1       2.259   6.222   4.941  0.00  0.00    +0.120 A 
ATOM     31  C   UNL     1       1.819   7.063   3.930  0.00  0.00    +0.046 A 
ATOM     32  C   UNL     1       0.639   6.786   3.266  0.00  0.00    +0.005 A 
BRANCH  30  33
ATOM     33  O   UNL     1       3.419   6.493   5.596  0.00  0.00    -0.495 OA
ATOM     34  C   UNL     1       3.810   5.583   6.626  0.00  0.00    +0.277 C 
ENDBRANCH  30  33
ENDBRANCH  25  27
ENDBRANCH  20  21
ENDBRANCH   2  20
TORSDOF 8
