REMARK  Name = ZINC66926014
REMARK  5 active torsions:
REMARK  status: ('A' for Active; 'I' for Inactive)
REMARK    1  A    between atoms: C_10  and  C_11
REMARK    2  A    between atoms: C_10  and  O_28
REMARK    3  A    between atoms: C_11  and  N_12
REMARK    4  A    between atoms: N_15  and  C_16
REMARK    5  A    between atoms: C_16  and  C_17
REMARK                            x       y       z     vdW  Elec       q    Type
REMARK                         _______ _______ _______ _____ _____    ______ ____
ROOT
ATOM      1  N   UNL     1       4.733   1.477  -0.622  0.00  0.00    -0.296 N 
ATOM      2  C   UNL     1       5.418   2.343  -1.394  0.00  0.00    +0.300 C 
ATOM      3  O   UNL     1       5.985   1.948  -2.395  0.00  0.00    -0.253 OA
ATOM      4  N   UNL     1       5.475   3.647  -1.058  0.00  0.00    -0.291 N 
ATOM      5  H   UNL     1       4.281   1.792   0.177  0.00  0.00    +0.150 HD
ATOM      6  H   UNL     1       5.023   3.962  -0.260  0.00  0.00    +0.151 HD
ENDROOT
BRANCH   1   7
ATOM      7  C   UNL     1       4.671   0.060  -0.987  0.00  0.00    +0.145 C 
BRANCH   7  17
ATOM      8  C   UNL     1       3.635  -4.797  -1.159  0.00  0.00    +0.000 A 
ATOM      9  C   UNL     1       3.604  -3.797  -2.113  0.00  0.00    +0.000 A 
ATOM     10  C   UNL     1       3.643  -2.475  -1.720  0.00  0.00    +0.007 A 
ATOM     11  C   UNL     1       3.714  -2.140  -0.374  0.00  0.00    -0.011 A 
ATOM     12  C   UNL     1       3.749  -3.136   0.575  0.00  0.00    -0.041 A 
ATOM     13  C   UNL     1       3.706  -4.467   0.178  0.00  0.00    +0.004 A 
ATOM     14  C   UNL     1       3.843  -2.847   2.051  0.00  0.00    +0.035 C 
ATOM     15  C   UNL     1       3.451  -1.399   2.340  0.00  0.00    +0.008 C 
ATOM     16  C   UNL     1       4.257  -0.485   1.410  0.00  0.00    +0.041 C 
ATOM     17  C   UNL     1       3.746  -0.677  -0.016  0.00  0.00    +0.107 C 
BRANCH  17  18
ATOM     18  O   UNL     1       2.427  -0.138  -0.121  0.00  0.00    -0.382 OA
ATOM     19  H   UNL     1       2.042  -0.209  -1.006  0.00  0.00    +0.211 HD
ENDBRANCH  17  18
ENDBRANCH   7  17
ENDBRANCH   1   7
BRANCH   4  20
ATOM     20  C   UNL     1       6.220   4.588  -1.898  0.00  0.00    +0.202 C 
BRANCH  20  21
ATOM     21  C   UNL     1       6.128   5.971  -1.306  0.00  0.00    +0.237 C 
ATOM     22  O   UNL     1       5.502   6.152  -0.283  0.00  0.00    -0.274 OA
ATOM     23  N   UNL     1       6.742   7.006  -1.913  0.00  0.00    -0.270 N 
ATOM     24  C   UNL     1       6.729   8.390  -1.432  0.00  0.00    +0.118 C 
ATOM     25  C   UNL     1       7.559   9.181  -2.457  0.00  0.00    +0.056 C 
ATOM     26  C   UNL     1       7.992   8.149  -3.474  0.00  0.00    -0.024 A 
ATOM     27  C   UNL     1       7.489   6.915  -3.092  0.00  0.00    +0.040 A 
ATOM     28  C   UNL     1       7.765   5.797  -3.881  0.00  0.00    +0.024 A 
ATOM     29  C   UNL     1       8.532   5.923  -5.020  0.00  0.00    +0.002 A 
ATOM     30  C   UNL     1       9.033   7.157  -5.390  0.00  0.00    +0.000 A 
ATOM     31  C   UNL     1       8.756   8.271  -4.618  0.00  0.00    +0.005 A 
ENDBRANCH  20  21
ENDBRANCH   4  20
TORSDOF 5
