REMARK  Name = ZINC35427340
REMARK  5 active torsions:
REMARK  status: ('A' for Active; 'I' for Inactive)
REMARK    1  A    between atoms: C_1  and  N_2
REMARK    2  A    between atoms: C_16  and  C_31
REMARK    3  A    between atoms: N_22  and  C_23
REMARK    4  A    between atoms: C_35  and  O_37
REMARK    5  A    between atoms: O_37  and  C_38
REMARK                            x       y       z     vdW  Elec       q    Type
REMARK                         _______ _______ _______ _____ _____    ______ ____
ROOT
ATOM      1  C   UNL     1       0.929   0.985  -1.508  0.00  0.00    -0.096 C 
ATOM      2  N   UNL     1       0.667  -0.427  -1.201  0.00  0.00    +0.381 N 
ATOM      3  C   UNL     1      -0.704  -0.770  -1.604  0.00  0.00    -0.074 C 
ATOM      4  C   UNL     1      -0.899  -2.288  -1.592  0.00  0.00    +0.018 C 
ATOM      5  C   UNL     1      -0.459  -2.810  -0.226  0.00  0.00    -0.034 A 
ATOM      6  C   UNL     1      -0.822  -4.078   0.265  0.00  0.00    +0.004 A 
ATOM      7  C   UNL     1      -0.351  -4.415   1.496  0.00  0.00    +0.090 A 
ATOM      8  S   UNL     1       0.574  -3.003   2.020  0.00  0.00    -0.077 S 
ATOM      9  C   UNL     1       0.318  -2.021   0.566  0.00  0.00    -0.021 A 
ATOM     10  C   UNL     1       0.822  -0.652   0.249  0.00  0.00    -0.036 C 
ATOM     11  N   UNL     1      -0.588  -5.637   2.113  0.00  0.00    -0.312 N 
ATOM     12  C   UNL     1      -0.961  -5.945   3.377  0.00  0.00    +0.092 A 
ATOM     13  C   UNL     1      -1.124  -7.286   3.450  0.00  0.00    +0.020 A 
ATOM     14  C   UNL     1      -0.820  -7.821   2.180  0.00  0.00    +0.025 A 
ATOM     15  C   UNL     1      -0.471  -6.799   1.386  0.00  0.00    +0.049 A 
ATOM     16  C   UNL     1       0.017  -6.817  -0.032  0.00  0.00    +0.155 C 
ATOM     17  N   UNL     1      -0.977  -6.234  -0.965  0.00  0.00    -0.268 N 
ATOM     18  C   UNL     1      -1.704  -5.039  -0.500  0.00  0.00    +0.148 C 
ATOM     19  C   UNL     1      -1.204  -6.771  -2.180  0.00  0.00    +0.308 C 
ATOM     20  O   UNL     1      -0.587  -7.756  -2.535  0.00  0.00    -0.252 OA
ATOM     21  N   UNL     1      -2.116  -6.214  -3.003  0.00  0.00    -0.267 N 
ATOM     22  H   UNL     1      -2.549  -5.383  -2.755  0.00  0.00    +0.156 HD
ATOM     23  H   UNL     1       1.321  -1.008  -1.703  0.00  0.00    -0.082 HD
ENDROOT
BRANCH  21  24
ATOM     24  C   UNL     1      -2.437  -6.838  -4.217  0.00  0.00    +0.070 A 
ATOM     25  C   UNL     1      -2.152  -8.183  -4.404  0.00  0.00    +0.029 A 
ATOM     26  C   UNL     1      -2.470  -8.795  -5.601  0.00  0.00    +0.040 A 
ATOM     27  C   UNL     1      -3.071  -8.069  -6.615  0.00  0.00    +0.126 A 
ATOM     28  C   UNL     1      -3.356  -6.726  -6.432  0.00  0.00    +0.078 A 
ATOM     29  C   UNL     1      -3.046  -6.110  -5.233  0.00  0.00    +0.147 A 
ATOM     30  F   UNL     1      -3.329  -4.801  -5.052  0.00  0.00    -0.203 F 
ATOM     31  F   UNL     1      -3.380  -8.670  -7.784  0.00  0.00    -0.205 F 
ENDBRANCH  21  24
BRANCH  16  32
ATOM     32  C   UNL     1       1.296  -6.024  -0.121  0.00  0.00    -0.018 A 
ATOM     33  C   UNL     1       2.220  -6.085   0.906  0.00  0.00    +0.006 A 
ATOM     34  C   UNL     1       3.393  -5.359   0.827  0.00  0.00    +0.004 A 
ATOM     35  C   UNL     1       3.646  -4.569  -0.278  0.00  0.00    +0.045 A 
ATOM     36  C   UNL     1       2.720  -4.506  -1.310  0.00  0.00    +0.120 A 
ATOM     37  C   UNL     1       1.546  -5.240  -1.231  0.00  0.00    +0.051 A 
BRANCH  36  38
ATOM     38  O   UNL     1       2.966  -3.730  -2.398  0.00  0.00    -0.495 OA
ATOM     39  C   UNL     1       4.198  -3.006  -2.413  0.00  0.00    +0.277 C 
ENDBRANCH  36  38
ENDBRANCH  16  32
TORSDOF 3
