REMARK  Name = ZINC63374506
REMARK  8 active torsions:
REMARK  status: ('A' for Active; 'I' for Inactive)
REMARK    1  A    between atoms: C_1  and  C_2
REMARK    2  A    between atoms: C_2  and  C_3
REMARK    3  A    between atoms: C_6  and  C_9
REMARK    4  A    between atoms: N_15  and  C_30
REMARK    5  A    between atoms: C_18  and  C_29
REMARK    6  A    between atoms: C_35  and  O_36
REMARK    7  A    between atoms: O_36  and  C_37
REMARK    8  A    between atoms: C_37  and  C_38
REMARK                            x       y       z     vdW  Elec       q    Type
REMARK                         _______ _______ _______ _____ _____    ______ ____
ROOT
ATOM      1  C   UNL     1       2.703  -1.883  -4.748  0.00  0.00    +0.065 C 
ATOM      2  C   UNL     1       3.518  -3.152  -4.429  0.00  0.00    +0.123 C 
ATOM      3  N   UNL     1       4.737  -2.750  -3.722  0.00  0.00    -0.268 N 
ATOM      4  C   UNL     1       5.185  -3.175  -2.534  0.00  0.00    +0.317 C 
ATOM      5  O   UNL     1       4.675  -4.079  -1.902  0.00  0.00    -0.252 OA
ATOM      6  N   UNL     1       6.260  -2.490  -2.121  0.00  0.00    -0.189 N 
ATOM      7  C   UNL     1       6.656  -1.585  -3.039  0.00  0.00    +0.253 C 
ATOM      8  O   UNL     1       7.577  -0.802  -2.945  0.00  0.00    -0.272 OA
ATOM      9  C   UNL     1       5.712  -1.748  -4.211  0.00  0.00    +0.137 C 
ATOM     10  C   UNL     1       4.932  -0.450  -4.444  0.00  0.00    +0.139 C 
ATOM     11  C   UNL     1       3.678  -0.835  -5.225  0.00  0.00    -0.027 C 
ATOM     12  C   UNL     1       3.681  -0.093  -6.328  0.00  0.00    -0.000 A 
ATOM     13  C   UNL     1       2.701   0.041  -7.418  0.00  0.00    +0.010 A 
ATOM     14  C   UNL     1       3.037   0.893  -8.422  0.00  0.00    +0.001 A 
ATOM     15  C   UNL     1       4.233   1.616  -8.451  0.00  0.00    +0.002 A 
ATOM     16  C   UNL     1       5.187   1.560  -7.488  0.00  0.00    +0.026 A 
ATOM     17  C   UNL     1       4.945   0.703  -6.375  0.00  0.00    +0.043 A 
ATOM     18  N   UNL     1       5.674   0.478  -5.301  0.00  0.00    -0.375 N 
ATOM     19  C   UNL     1       6.441  -2.223  -5.470  0.00  0.00    +0.044 C 
ATOM     20  H   UNL     1       6.547   0.854  -5.108  0.00  0.00    +0.160 HD
ENDROOT
BRANCH   1  24
ATOM     21  C   UNL     1       0.700  -0.518  -1.230  0.00  0.00    -0.048 A 
ATOM     22  C   UNL     1      -0.027  -0.819  -2.367  0.00  0.00    +0.004 A 
ATOM     23  C   UNL     1       0.621  -1.260  -3.505  0.00  0.00    +0.004 A 
ATOM     24  C   UNL     1       1.996  -1.400  -3.507  0.00  0.00    -0.039 A 
ATOM     25  C   UNL     1       2.723  -1.098  -2.371  0.00  0.00    +0.004 A 
ATOM     26  C   UNL     1       2.076  -0.653  -1.234  0.00  0.00    +0.004 A 
BRANCH  21  28
ATOM     27  C   UNL     1      -0.113   1.490  -0.023  0.00  0.00    +0.009 C 
ATOM     28  C   UNL     1      -0.006  -0.036   0.011  0.00  0.00    +0.032 C 
ENDBRANCH  21  28
ENDBRANCH   1  24
BRANCH   6  29
ATOM     29  C   UNL     1       6.896  -2.690  -0.886  0.00  0.00    +0.087 A 
ATOM     30  C   UNL     1       6.433  -2.038   0.247  0.00  0.00    +0.028 A 
ATOM     31  C   UNL     1       7.061  -2.236   1.463  0.00  0.00    +0.002 A 
ATOM     32  C   UNL     1       8.150  -3.083   1.553  0.00  0.00    +0.004 A 
ATOM     33  C   UNL     1       8.616  -3.737   0.427  0.00  0.00    +0.047 A 
ATOM     34  C   UNL     1       7.989  -3.548  -0.794  0.00  0.00    +0.142 A 
BRANCH  34  35
ATOM     35  O   UNL     1       8.443  -4.195  -1.900  0.00  0.00    -0.490 OA
BRANCH  35  36
ATOM     36  C   UNL     1       9.496  -5.142  -1.712  0.00  0.00    +0.226 C 
ATOM     37  C   UNL     1       9.790  -5.849  -3.037  0.00  0.00    +0.048 C 
ENDBRANCH  35  36
ENDBRANCH  34  35
ENDBRANCH   6  29
TORSDOF 5
