REMARK  Name = ZINC01147697
REMARK  8 active torsions:
REMARK  status: ('A' for Active; 'I' for Inactive)
REMARK    1  A    between atoms: C_1  and  C_2
REMARK    2  A    between atoms: C_6  and  N_9
REMARK    3  A    between atoms: C_7  and  C_8
REMARK    4  A    between atoms: N_9  and  C_10
REMARK    5  A    between atoms: N_9  and  S_21
REMARK    6  A    between atoms: C_10  and  C_11
REMARK    7  A    between atoms: N_13  and  C_14
REMARK    8  A    between atoms: S_21  and  C_24
REMARK                            x       y       z     vdW  Elec       q    Type
REMARK                         _______ _______ _______ _____ _____    ______ ____
ROOT
ATOM      1  N   UNL     1       2.286   1.115   0.520  0.00  0.00    -0.199 N 
ENDROOT
BRANCH   1   7
ATOM      2  C   UNL     1       5.992   0.842  -2.697  0.00  0.00    +0.044 C 
ATOM      3  C   UNL     1       4.753   0.260  -2.066  0.00  0.00    -0.046 A 
ATOM      4  C   UNL     1       4.276  -0.969  -2.486  0.00  0.00    +0.004 A 
ATOM      5  C   UNL     1       3.140  -1.507  -1.909  0.00  0.00    +0.002 A 
ATOM      6  C   UNL     1       2.478  -0.818  -0.912  0.00  0.00    +0.025 A 
ATOM      7  C   UNL     1       2.954   0.416  -0.488  0.00  0.00    +0.055 A 
ATOM      8  C   UNL     1       4.092   0.956  -1.073  0.00  0.00    -0.025 A 
ATOM      9  C   UNL     1       4.609   2.298  -0.621  0.00  0.00    +0.046 C 
ENDBRANCH   1   7
BRANCH   1  10
ATOM     10  S   UNL     1       2.768   0.956   2.096  0.00  0.00    +0.043 S 
ATOM     11  O   UNL     1       4.166   0.713   2.026  0.00  0.00    -0.155 OA
ATOM     12  O   UNL     1       2.266   2.115   2.748  0.00  0.00    -0.155 OA
ATOM     13  C   UNL     1       1.906  -0.522   2.700  0.00  0.00    +0.218 C 
ENDBRANCH   1  10
BRANCH   1  14
ATOM     14  C   UNL     1       1.160   1.989   0.183  0.00  0.00    +0.227 C 
BRANCH  14  15
ATOM     15  C   UNL     1      -0.106   1.174   0.117  0.00  0.00    +0.236 C 
ATOM     16  O   UNL     1      -0.060  -0.030   0.255  0.00  0.00    -0.274 OA
ATOM     17  N   UNL     1      -1.289   1.782  -0.102  0.00  0.00    -0.284 N 
ATOM     18  H   UNL     1      -1.319   2.736  -0.276  0.00  0.00    +0.155 HD
BRANCH  17  19
ATOM     19  C   UNL     1      -2.474   1.038  -0.076  0.00  0.00    +0.033 A 
ATOM     20  C   UNL     1      -2.486  -0.266  -0.552  0.00  0.00    +0.024 A 
ATOM     21  C   UNL     1      -3.656  -1.000  -0.520  0.00  0.00    +0.016 A 
ATOM     22  C   UNL     1      -4.816  -0.433  -0.026  0.00  0.00    +0.013 A 
ATOM     23  C   UNL     1      -4.808   0.868   0.443  0.00  0.00    +0.016 A 
ATOM     24  C   UNL     1      -3.641   1.605   0.419  0.00  0.00    +0.024 A 
ATOM     25  I   UNL     1      -6.590  -1.548   0.013  0.00  0.00    -0.044 I 
ENDBRANCH  17  19
ENDBRANCH  14  15
ENDBRANCH   1  14
TORSDOF 5
