REMARK  Name = ZINC13040148
REMARK  8 active torsions:
REMARK  status: ('A' for Active; 'I' for Inactive)
REMARK    1  A    between atoms: C_1  and  C_2
REMARK    2  A    between atoms: C_2  and  C_4
REMARK    3  A    between atoms: C_2  and  N_11
REMARK    4  A    between atoms: N_11  and  C_12
REMARK    5  A    between atoms: C_12  and  C_13
REMARK    6  A    between atoms: N_15  and  C_16
REMARK    7  A    between atoms: C_20  and  S_22
REMARK    8  A    between atoms: S_22  and  N_25
REMARK                            x       y       z     vdW  Elec       q    Type
REMARK                         _______ _______ _______ _____ _____    ______ ____
ROOT
ATOM      1  C   UNL     1       0.715  -1.612   5.831  0.00  0.00    +0.035 A 
ATOM      2  C   UNL     1       2.084  -1.803   5.689  0.00  0.00    +0.023 A 
ATOM      3  C   UNL     1       2.843  -2.181   6.779  0.00  0.00    +0.004 A 
ATOM      4  C   UNL     1       2.243  -2.370   8.010  0.00  0.00    +0.029 A 
ATOM      5  C   UNL     1       0.881  -2.181   8.155  0.00  0.00    +0.114 A 
ATOM      6  C   UNL     1       0.117  -1.796   7.070  0.00  0.00    +0.052 A 
ENDROOT
BRANCH   1   9
ATOM      7  C   UNL     1      -1.102  -0.395   4.896  0.00  0.00    +0.231 C 
ATOM      8  O   UNL     1      -1.425  -0.042   6.010  0.00  0.00    -0.274 OA
ATOM      9  N   UNL     1      -0.057  -1.229   4.729  0.00  0.00    -0.284 N 
ATOM     10  H   UNL     1       0.160  -1.565   3.845  0.00  0.00    +0.155 HD
BRANCH   7  11
ATOM     11  C   UNL     1      -1.870   0.100   3.697  0.00  0.00    +0.178 C 
BRANCH  11  12
ATOM     12  N   UNL     1      -2.952   0.989   4.141  0.00  0.00    -0.302 NA
ATOM     13  H   UNL     1      -2.590   1.750   4.696  0.00  0.00    +0.123 HD
BRANCH  12  15
ATOM     14  C   UNL     1      -4.802   0.473   2.622  0.00  0.00    +0.029 C 
ATOM     15  C   UNL     1      -3.724   1.491   2.997  0.00  0.00    +0.083 C 
BRANCH  15  16
ATOM     16  C   UNL     1      -4.374   2.800   3.366  0.00  0.00    -0.012 A 
ATOM     17  C   UNL     1      -4.543   3.137   4.696  0.00  0.00    +0.006 A 
ATOM     18  C   UNL     1      -5.139   4.337   5.034  0.00  0.00    +0.000 A 
ATOM     19  C   UNL     1      -5.568   5.201   4.043  0.00  0.00    +0.001 A 
ATOM     20  C   UNL     1      -5.401   4.864   2.713  0.00  0.00    +0.020 A 
ATOM     21  C   UNL     1      -4.798   3.666   2.373  0.00  0.00    +0.046 A 
ATOM     22 CL   UNL     1      -4.581   3.245   0.703  0.00  0.00    -0.083 Cl
ENDBRANCH  15  16
ENDBRANCH  12  15
ENDBRANCH  11  12
ENDBRANCH   7  11
ENDBRANCH   1   9
BRANCH   5  23
ATOM     23  S   UNL     1       0.120  -2.423   9.725  0.00  0.00    +0.100 S 
ATOM     24  O   UNL     1      -1.248  -2.713   9.474  0.00  0.00    -0.146 OA
ATOM     25  O   UNL     1       0.965  -3.304  10.454  0.00  0.00    -0.146 OA
BRANCH  23  26
ATOM     26  N   UNL     1       0.158  -0.969  10.517  0.00  0.00    -0.118 NA
ATOM     27  C   UNL     1      -0.342  -0.867  11.706  0.00  0.00    +0.117 C 
ATOM     28  C   UNL     1      -0.960  -2.087  12.383  0.00  0.00    +0.073 C 
ATOM     29  C   UNL     1      -0.045  -2.479  13.524  0.00  0.00    +0.008 C 
ATOM     30  C   UNL     1      -0.366  -1.763  14.837  0.00  0.00    +0.002 C 
ATOM     31  C   UNL     1      -0.666  -0.275  14.650  0.00  0.00    +0.019 C 
ATOM     32  C   UNL     1       0.280   0.408  13.686  0.00  0.00    +0.102 C 
ATOM     33  N   UNL     1      -0.313   0.290  12.337  0.00  0.00    -0.331 N 
ATOM     34  H   UNL     1      -0.687   1.078  11.912  0.00  0.00    +0.147 HD
ENDBRANCH  23  26
ENDBRANCH   5  23
TORSDOF 7
