REMARK  Name = ZINC08833072
REMARK  10 active torsions:
REMARK  status: ('A' for Active; 'I' for Inactive)
REMARK    1  A    between atoms: C_1  and  C_2
REMARK    2  A    between atoms: C_3  and  C_9
REMARK    3  A    between atoms: C_4  and  C_8
REMARK    4  A    between atoms: C_9  and  C_10
REMARK    5  A    between atoms: C_13  and  N_16
REMARK    6  A    between atoms: N_16  and  C_17
REMARK    7  A    between atoms: C_17  and  N_19
REMARK    8  A    between atoms: C_20  and  C_22
REMARK    9  A    between atoms: C_23  and  C_24
REMARK   10  A    between atoms: C_27  and  C_29
REMARK                            x       y       z     vdW  Elec       q    Type
REMARK                         _______ _______ _______ _____ _____    ______ ____
ROOT
ATOM      1  C   UNL     1       6.076  -4.922  -0.476  0.00  0.00    +0.141 C 
ATOM      2  S   UNL     1       5.548  -6.479  -0.952  0.00  0.00    -0.018 S 
ENDROOT
BRANCH   1   3
ATOM      3  N   UNL     1       5.213  -3.887  -0.481  0.00  0.00    -0.264 N 
ATOM      4  C   UNL     1       3.934  -4.078  -0.862  0.00  0.00    +0.242 C 
ATOM      5  O   UNL     1       3.558  -5.185  -1.201  0.00  0.00    -0.270 OA
ATOM      6  H   UNL     1       5.512  -3.005  -0.211  0.00  0.00    +0.157 HD
BRANCH   4   7
ATOM      7  C   UNL     1       3.029  -2.993  -0.868  0.00  0.00    +0.071 C 
ATOM      8  C   UNL     1       1.740  -3.185  -1.251  0.00  0.00    +0.051 C 
BRANCH   8   9
ATOM      9  C   UNL     1       0.835  -2.100  -1.257  0.00  0.00    +0.129 A 
ATOM     10  C   UNL     1      -0.497  -2.157  -1.623  0.00  0.00    +0.050 A 
ATOM     11  C   UNL     1      -1.011  -0.866  -1.481  0.00  0.00    +0.050 A 
ATOM     12  C   UNL     1       0.020  -0.069  -1.036  0.00  0.00    +0.136 A 
ATOM     13  O   UNL     1       1.124  -0.827  -0.912  0.00  0.00    -0.455 OA
BRANCH  12  14
ATOM     14  C   UNL     1      -0.070   1.376  -0.749  0.00  0.00    +0.017 A 
ATOM     15  C   UNL     1      -1.278   2.053  -0.930  0.00  0.00    +0.013 A 
ATOM     16  C   UNL     1      -1.356   3.402  -0.655  0.00  0.00    +0.021 A 
ATOM     17  C   UNL     1      -0.238   4.088  -0.211  0.00  0.00    +0.041 A 
ATOM     18  C   UNL     1       0.965   3.423  -0.034  0.00  0.00    +0.021 A 
ATOM     19  C   UNL     1       1.055   2.073  -0.300  0.00  0.00    +0.013 A 
ATOM     20 CL   UNL     1      -0.343   5.787   0.127  0.00  0.00    -0.084 Cl
ENDBRANCH  12  14
ENDBRANCH   8   9
ENDBRANCH   4   7
ENDBRANCH   1   3
BRANCH   1  21
ATOM     21  N   UNL     1       7.355  -4.731  -0.095  0.00  0.00    -0.297 N 
ATOM     22  H   UNL     1       7.670  -3.838   0.116  0.00  0.00    +0.154 HD
BRANCH  21  26
ATOM     23  C   UNL     1       9.954  -7.975   0.174  0.00  0.00    -0.043 A 
ATOM     24  C   UNL     1       9.131  -7.840  -0.929  0.00  0.00    +0.006 A 
ATOM     25  C   UNL     1       8.268  -6.766  -1.021  0.00  0.00    +0.023 A 
ATOM     26  C   UNL     1       8.227  -5.821  -0.004  0.00  0.00    +0.033 A 
ATOM     27  C   UNL     1       9.059  -5.956   1.100  0.00  0.00    +0.023 A 
ATOM     28  C   UNL     1       9.915  -7.036   1.189  0.00  0.00    +0.006 A 
BRANCH  23  29
ATOM     29  C   UNL     1      10.895  -9.149   0.272  0.00  0.00    +0.074 C 
BRANCH  29  32
ATOM     30  C   UNL     1      11.686  -9.566  -2.725  0.00  0.00    +0.065 C 
ATOM     31  C   UNL     1      12.558  -8.968  -1.652  0.00  0.00    +0.037 A 
ATOM     32  C   UNL     1      12.216  -8.787  -0.355  0.00  0.00    -0.000 A 
ATOM     33  C   UNL     1      13.308  -8.210   0.301  0.00  0.00    +0.063 A 
ATOM     34  N   UNL     1      14.269  -8.045  -0.571  0.00  0.00    -0.179 NA
ATOM     35  N   UNL     1      13.819  -8.513  -1.812  0.00  0.00    -0.281 N 
ATOM     36  H   UNL     1      14.339  -8.511  -2.666  0.00  0.00    +0.189 HD
ATOM     37  C   UNL     1      13.368  -7.841   1.761  0.00  0.00    +0.068 C 
ENDBRANCH  29  32
ENDBRANCH  23  29
ENDBRANCH  21  26
ENDBRANCH   1  21
TORSDOF 8
