REMARK  Name = ZINC11837902
REMARK  9 active torsions:
REMARK  status: ('A' for Active; 'I' for Inactive)
REMARK    1  A    between atoms: C_1  and  C_2
REMARK    2  A    between atoms: C_5  and  C_8
REMARK    3  A    between atoms: C_8  and  N_9
REMARK    4  A    between atoms: N_12  and  C_13
REMARK    5  A    between atoms: C_13  and  C_14
REMARK    6  A    between atoms: N_16  and  N_17
REMARK    7  A    between atoms: C_18  and  C_20
REMARK    8  A    between atoms: N_29  and  C_31
REMARK    9  A    between atoms: C_31  and  C_32
REMARK                            x       y       z     vdW  Elec       q    Type
REMARK                         _______ _______ _______ _____ _____    ______ ____
ROOT
ATOM      1  N   UNL     1       7.082   0.354  -0.064  0.00  0.00    -0.229 N 
ATOM      2  C   UNL     1       8.346   0.821  -0.073  0.00  0.00    +0.281 C 
ATOM      3  O   UNL     1       8.552   2.019  -0.069  0.00  0.00    -0.267 OA
ATOM      4  H   UNL     1       6.917  -0.602  -0.067  0.00  0.00    +0.173 HD
ENDROOT
BRANCH   2   5
ATOM      5  C   UNL     1       9.481  -0.123  -0.089  0.00  0.00    +0.155 A 
ATOM      6  C   UNL     1      10.865   0.377  -0.106  0.00  0.00    +0.020 A 
ATOM      7  C   UNL     1      11.177   1.732  -0.096  0.00  0.00    +0.011 A 
ATOM      8  C   UNL     1      12.499   2.123  -0.107  0.00  0.00    +0.001 A 
ATOM      9  C   UNL     1      13.519   1.180  -0.121  0.00  0.00    +0.001 A 
ATOM     10  C   UNL     1      13.232  -0.169  -0.125  0.00  0.00    +0.014 A 
ATOM     11  C   UNL     1      11.904  -0.583  -0.115  0.00  0.00    +0.050 A 
ATOM     12  C   UNL     1      11.509  -1.998  -0.118  0.00  0.00    +0.275 A 
ATOM     13  O   UNL     1      12.349  -2.879  -0.131  0.00  0.00    -0.266 OA
ATOM     14  N   UNL     1      10.194  -2.299  -0.108  0.00  0.00    -0.224 N 
ATOM     15  N   UNL     1       9.268  -1.417  -0.094  0.00  0.00    -0.163 NA
BRANCH  14  16
ATOM     16  C   UNL     1       9.806  -3.712  -0.111  0.00  0.00    +0.182 C 
BRANCH  16  17
ATOM     17  C   UNL     1       9.687  -4.203   1.309  0.00  0.00    -0.026 A 
ATOM     18  C   UNL     1      10.785  -4.751   1.945  0.00  0.00    +0.005 A 
ATOM     19  C   UNL     1      10.677  -5.198   3.249  0.00  0.00    +0.000 A 
ATOM     20  C   UNL     1       9.467  -5.106   3.913  0.00  0.00    +0.000 A 
ATOM     21  C   UNL     1       8.368  -4.563   3.275  0.00  0.00    +0.000 A 
ATOM     22  C   UNL     1       8.478  -4.111   1.973  0.00  0.00    +0.005 A 
ENDBRANCH  16  17
ENDBRANCH  14  16
ENDBRANCH   2   5
BRANCH   1  25
ATOM     23  C   UNL     1       4.740   0.784  -0.039  0.00  0.00    +0.246 C 
ATOM     24  O   UNL     1       4.535  -0.412  -0.043  0.00  0.00    -0.273 OA
ATOM     25  N   UNL     1       6.005   1.250  -0.049  0.00  0.00    -0.233 N 
ATOM     26  H   UNL     1       6.169   2.206  -0.045  0.00  0.00    +0.173 HD
BRANCH  23  27
ATOM     27  C   UNL     1       3.582   1.747  -0.023  0.00  0.00    +0.203 C 
BRANCH  27  31
ATOM     28  N   UNL     1      -0.011   0.966   0.007  0.00  0.00    -0.295 N 
ATOM     29  C   UNL     1       1.147   1.655   0.000  0.00  0.00    +0.300 C 
ATOM     30  O   UNL     1       1.130   2.871   0.007  0.00  0.00    -0.253 OA
ATOM     31  N   UNL     1       2.323   0.998  -0.015  0.00  0.00    -0.291 N 
ATOM     32  H   UNL     1       0.002  -0.004   0.002  0.00  0.00    +0.151 HD
ATOM     33  H   UNL     1       2.336   0.028  -0.020  0.00  0.00    +0.151 HD
BRANCH  28  34
ATOM     34  C   UNL     1      -1.290   1.681   0.017  0.00  0.00    +0.141 C 
BRANCH  34  39
ATOM     35  C   UNL     1      -5.631  -2.133   0.017  0.00  0.00    +0.044 C 
ATOM     36  C   UNL     1      -4.499  -1.138   0.017  0.00  0.00    -0.050 A 
ATOM     37  C   UNL     1      -3.974  -0.689   1.214  0.00  0.00    +0.003 A 
ATOM     38  C   UNL     1      -2.935   0.224   1.214  0.00  0.00    +0.005 A 
ATOM     39  C   UNL     1      -2.422   0.686   0.017  0.00  0.00    -0.030 A 
ATOM     40  C   UNL     1      -2.950   0.241  -1.180  0.00  0.00    +0.005 A 
ATOM     41  C   UNL     1      -3.986  -0.675  -1.180  0.00  0.00    +0.003 A 
ENDBRANCH  34  39
ENDBRANCH  28  34
ENDBRANCH  27  31
ENDBRANCH  23  27
ENDBRANCH   1  25
TORSDOF 8
