REMARK  Name = ZINC13689435
REMARK  5 active torsions:
REMARK  status: ('A' for Active; 'I' for Inactive)
REMARK    1  A    between atoms: C_1  and  C_2
REMARK    2  A    between atoms: C_7  and  N_8
REMARK    3  A    between atoms: C_36  and  C_38
REMARK    4  A    between atoms: C_38  and  C_39
REMARK    5  A    between atoms: C_38  and  C_40
REMARK                            x       y       z     vdW  Elec       q    Type
REMARK                         _______ _______ _______ _____ _____    ______ ____
ROOT
ATOM      1  N   UNL     1       0.025  -0.013   2.419  0.00  0.00    -0.210 N 
ATOM      2  C   UNL     1      -1.099   0.324   3.062  0.00  0.00    +0.232 C 
ATOM      3  O   UNL     1      -2.224   0.082   2.680  0.00  0.00    -0.274 OA
ATOM      4  C   UNL     1      -0.748   1.054   4.338  0.00  0.00    +0.107 C 
ATOM      5  C   UNL     1       0.805   1.086   4.317  0.00  0.00    +0.121 C 
ATOM      6  C   UNL     1       1.151   0.360   3.037  0.00  0.00    +0.233 C 
ATOM      7  O   UNL     1       2.275   0.150   2.633  0.00  0.00    -0.274 OA
ATOM      8  C   UNL     1       1.226   0.249   5.530  0.00  0.00    +0.118 C 
ATOM      9  C   UNL     1       1.604  -1.149   5.136  0.00  0.00    +0.005 A 
ATOM     10  C   UNL     1       0.925  -2.170   4.506  0.00  0.00    +0.008 A 
ATOM     11  C   UNL     1       1.555  -3.380   4.274  0.00  0.00    +0.000 A 
ATOM     12  C   UNL     1       2.866  -3.562   4.674  0.00  0.00    +0.002 A 
ATOM     13  C   UNL     1       3.549  -2.542   5.304  0.00  0.00    +0.026 A 
ATOM     14  C   UNL     1       2.921  -1.322   5.542  0.00  0.00    +0.057 A 
ATOM     15  N   UNL     1       3.405  -0.156   6.157  0.00  0.00    -0.262 N 
ATOM     16  C   UNL     1       2.456   0.822   6.189  0.00  0.00    +0.143 A 
ATOM     17  N   UNL     1       2.665   1.997   6.711  0.00  0.00    -0.231 NA
ATOM     18  C   UNL     1       3.851   2.339   7.267  0.00  0.00    +0.078 A 
ATOM     19  C   UNL     1       4.066   3.601   7.825  0.00  0.00    +0.028 A 
ATOM     20  C   UNL     1       5.289   3.902   8.379  0.00  0.00    +0.002 A 
ATOM     21  C   UNL     1       6.315   2.966   8.391  0.00  0.00    +0.001 A 
ATOM     22  C   UNL     1       6.128   1.715   7.846  0.00  0.00    +0.015 A 
ATOM     23  C   UNL     1       4.896   1.389   7.280  0.00  0.00    +0.065 A 
ATOM     24  C   UNL     1       4.636   0.073   6.686  0.00  0.00    +0.266 A 
ATOM     25  O   UNL     1       5.497  -0.788   6.666  0.00  0.00    -0.267 OA
ATOM     26  N   UNL     1       0.075   0.261   6.451  0.00  0.00    -0.296 NA
ATOM     27  C   UNL     1      -1.125   0.170   5.547  0.00  0.00    +0.070 C 
ATOM     28  H   UNL     1       0.108  -0.525   7.083  0.00  0.00    +0.123 HD
ENDROOT
BRANCH   1  35
ATOM     29  C   UNL     1      -0.018   1.503   0.010  0.00  0.00    +0.045 C 
ATOM     30  C   UNL     1       0.002  -0.004   0.002  0.00  0.00    -0.029 A 
ATOM     31  C   UNL     1       0.006  -0.689  -1.198  0.00  0.00    +0.005 A 
ATOM     32  C   UNL     1       0.025  -2.071  -1.206  0.00  0.00    +0.000 A 
ATOM     33  C   UNL     1       0.041  -2.773  -0.014  0.00  0.00    +0.002 A 
ATOM     34  C   UNL     1       0.037  -2.094   1.188  0.00  0.00    +0.024 A 
ATOM     35  C   UNL     1       0.023  -0.705   1.200  0.00  0.00    +0.047 A 
ENDBRANCH   1  35
BRANCH  27  36
ATOM     36  C   UNL     1      -2.365   0.727   6.248  0.00  0.00    +0.001 C 
ATOM     37  C   UNL     1      -2.720  -0.164   7.441  0.00  0.00    +0.009 C 
ATOM     38  C   UNL     1      -2.078   2.147   6.740  0.00  0.00    +0.009 C 
ENDBRANCH  27  36
TORSDOF 2
