REMARK  Name = ZINC20707593
REMARK  6 active torsions:
REMARK  status: ('A' for Active; 'I' for Inactive)
REMARK    1  A    between atoms: C_1  and  C_2
REMARK    2  A    between atoms: C_2  and  C_3
REMARK    3  A    between atoms: C_3  and  C_4
REMARK    4  A    between atoms: N_6  and  C_7
REMARK    5  A    between atoms: C_20  and  C_23
REMARK    6  A    between atoms: C_28  and  O_29
REMARK                            x       y       z     vdW  Elec       q    Type
REMARK                         _______ _______ _______ _____ _____    ______ ____
ROOT
ATOM      1  C   UNL     1      -5.107   1.353   3.375  0.00  0.00    +0.039 A 
ATOM      2  C   UNL     1      -4.166   2.097   4.069  0.00  0.00    +0.025 A 
ATOM      3  C   UNL     1      -4.428   2.505   5.363  0.00  0.00    +0.023 A 
ATOM      4  C   UNL     1      -5.627   2.172   5.959  0.00  0.00    +0.062 A 
ATOM      5  C   UNL     1      -6.580   1.424   5.265  0.00  0.00    +0.052 A 
ATOM      6  C   UNL     1      -6.323   1.016   3.969  0.00  0.00    +0.003 A 
ATOM      7  C   UNL     1      -7.295   0.221   3.173  0.00  0.00    +0.050 C 
ATOM      8  C   UNL     1      -6.793  -1.198   3.034  0.00  0.00    -0.023 C 
ATOM      9  C   UNL     1      -7.785  -2.046   3.127  0.00  0.00    -0.030 C 
ATOM     10  C   UNL     1      -9.118  -1.306   3.337  0.00  0.00    +0.033 C 
ATOM     11  C   UNL     1      -8.653   0.070   3.892  0.00  0.00    +0.029 C 
ATOM     12  C   UNL     1      -8.401  -0.092   5.393  0.00  0.00    +0.108 C 
ATOM     13  N   UNL     1      -7.776   1.122   5.917  0.00  0.00    -0.335 N 
ATOM     14 CL   UNL     1      -5.954   2.687   7.584  0.00  0.00    -0.082 Cl
ATOM     15  H   UNL     1      -8.256   1.680   6.734  0.00  0.00    +0.147 HD
ENDROOT
BRANCH  12  16
ATOM     16  C   UNL     1      -7.488  -1.268   5.625  0.00  0.00    +0.014 A 
ATOM     17  C   UNL     1      -6.118  -1.105   5.552  0.00  0.00    +0.009 A 
ATOM     18  C   UNL     1      -5.279  -2.182   5.769  0.00  0.00    +0.001 A 
ATOM     19  C   UNL     1      -5.809  -3.428   6.050  0.00  0.00    +0.004 A 
ATOM     20  C   UNL     1      -7.178  -3.598   6.119  0.00  0.00    +0.046 A 
ATOM     21  C   UNL     1      -8.022  -2.517   5.906  0.00  0.00    +0.122 A 
BRANCH  21  22
ATOM     22  O   UNL     1      -9.369  -2.682   5.973  0.00  0.00    -0.506 OA
ATOM     23  H   UNL     1      -9.792  -3.673   6.196  0.00  0.00    +0.292 HD
ENDBRANCH  21  22
ENDBRANCH  12  16
BRANCH   1  26
ATOM     24  C   UNL     1      -3.574   0.650   1.696  0.00  0.00    +0.217 C 
ATOM     25  O   UNL     1      -2.659   0.829   2.473  0.00  0.00    -0.275 OA
ATOM     26  N   UNL     1      -4.837   0.942   2.064  0.00  0.00    -0.285 N 
ATOM     27  H   UNL     1      -5.656   0.856   1.335  0.00  0.00    +0.155 HD
BRANCH  24  28
ATOM     28  C   UNL     1      -3.297   0.103   0.320  0.00  0.00    +0.096 C 
BRANCH  28  30
ATOM     29  C   UNL     1      -1.515  -0.696  -1.238  0.00  0.00    +0.004 C 
ATOM     30  C   UNL     1      -1.795  -0.140   0.159  0.00  0.00    +0.006 C 
ENDBRANCH  28  30
ENDBRANCH  24  28
ENDBRANCH   1  26
TORSDOF 5
