REMARK  Name = ZINC14551066
REMARK  4 active torsions:
REMARK  status: ('A' for Active; 'I' for Inactive)
REMARK    1  A    between atoms: C_1  and  C_2
REMARK    2  A    between atoms: C_8  and  C_10
REMARK    3  A    between atoms: C_23  and  C_26
REMARK    4  A    between atoms: C_29  and  N_32
REMARK                            x       y       z     vdW  Elec       q    Type
REMARK                         _______ _______ _______ _____ _____    ______ ____
ROOT
ATOM      1  C   UNL     1       0.564  -2.763  -0.482  0.00  0.00    +0.037 A 
ATOM      2  C   UNL     1      -0.598  -2.264   0.117  0.00  0.00    +0.015 A 
ATOM      3  C   UNL     1      -0.753  -0.910   0.292  0.00  0.00    +0.024 A 
ATOM      4  C   UNL     1       0.240  -0.024  -0.121  0.00  0.00    +0.031 A 
ATOM      5  C   UNL     1       1.410  -0.527  -0.710  0.00  0.00    -0.019 A 
ATOM      6  C   UNL     1       1.565  -1.879  -0.893  0.00  0.00    +0.019 A 
ATOM      7  C   UNL     1       2.448   0.450  -1.105  0.00  0.00    +0.049 C 
ATOM      8  C   UNL     1       3.417   0.172  -2.195  0.00  0.00    -0.023 C 
ATOM      9  C   UNL     1       3.739   1.320  -2.779  0.00  0.00    -0.030 C 
ATOM     10  C   UNL     1       2.967   2.471  -2.131  0.00  0.00    +0.033 C 
ATOM     11  C   UNL     1       1.728   1.745  -1.588  0.00  0.00    +0.029 C 
ATOM     12  C   UNL     1       1.072   2.327  -0.348  0.00  0.00    +0.105 C 
ATOM     13  N   UNL     1       0.045   1.345   0.059  0.00  0.00    -0.336 N 
ATOM     14  H   UNL     1      -0.783   1.659   0.455  0.00  0.00    +0.147 HD
ENDROOT
BRANCH   1  22
ATOM     15  C   UNL     1      -3.028  -7.022  -3.454  0.00  0.00    +0.007 C 
ATOM     16  C   UNL     1      -2.337  -6.484  -2.200  0.00  0.00    -0.011 C 
ATOM     17  C   UNL     1      -0.889  -6.978  -2.164  0.00  0.00    +0.022 C 
ATOM     18  C   UNL     1      -0.210  -6.465  -0.889  0.00  0.00    +0.108 C 
ATOM     19  N   UNL     1      -0.351  -5.004  -0.834  0.00  0.00    -0.298 N 
ATOM     20  C   UNL     1      -1.694  -4.419  -0.945  0.00  0.00    +0.108 C 
ATOM     21  C   UNL     1      -2.355  -4.954  -2.224  0.00  0.00    +0.022 C 
ATOM     22  C   UNL     1       0.731  -4.216  -0.678  0.00  0.00    +0.247 C 
ATOM     23  O   UNL     1       1.846  -4.702  -0.699  0.00  0.00    -0.270 OA
ENDBRANCH   1  22
BRANCH  12  24
ATOM     24  C   UNL     1       2.092   2.499   0.748  0.00  0.00    -0.027 A 
ATOM     25  C   UNL     1       2.320   1.473   1.646  0.00  0.00    +0.008 A 
ATOM     26  C   UNL     1       3.258   1.629   2.650  0.00  0.00    +0.033 A 
ATOM     27  C   UNL     1       3.961   2.814   2.761  0.00  0.00    +0.126 A 
ATOM     28  C   UNL     1       3.729   3.841   1.866  0.00  0.00    +0.033 A 
ATOM     29  C   UNL     1       2.794   3.684   0.860  0.00  0.00    +0.008 A 
BRANCH  27  30
ATOM     30  N   UNL     1       4.962   2.982   3.838  0.00  0.00    +0.056 N 
ATOM     31  O   UNL     1       5.582   4.026   3.936  0.00  0.00    -0.126 OA
ATOM     32  O   UNL     1       5.166   2.076   4.627  0.00  0.00    -0.126 OA
ENDBRANCH  27  30
ENDBRANCH  12  24
TORSDOF 3
