REMARK  Name = ZINC40323035
REMARK  7 active torsions:
REMARK  status: ('A' for Active; 'I' for Inactive)
REMARK    1  A    between atoms: C_4  and  C_7
REMARK    2  A    between atoms: C_7  and  C_9
REMARK    3  A    between atoms: C_7  and  N_28
REMARK    4  A    between atoms: C_9  and  N_10
REMARK    5  A    between atoms: C_11  and  C_13
REMARK    6  A    between atoms: C_16  and  S_18
REMARK    7  A    between atoms: S_18  and  C_21
REMARK                            x       y       z     vdW  Elec       q    Type
REMARK                         _______ _______ _______ _____ _____    ______ ____
ROOT
ATOM      1  N   UNL     1       5.278  -2.024  -1.392  0.00  0.00    -0.310 N 
ATOM      2  C   UNL     1       5.787  -2.554  -2.522  0.00  0.00    +0.279 C 
ATOM      3  O   UNL     1       5.183  -2.443  -3.572  0.00  0.00    -0.267 OA
ATOM      4  H   UNL     1       5.760  -2.112  -0.555  0.00  0.00    +0.149 HD
ENDROOT
BRANCH   2   5
ATOM      5  C   UNL     1       7.070  -3.264  -2.485  0.00  0.00    +0.192 A 
ATOM      6  C   UNL     1       7.698  -3.841  -3.551  0.00  0.00    +0.056 A 
ATOM      7  C   UNL     1       8.888  -4.403  -3.063  0.00  0.00    +0.070 A 
ATOM      8  C   UNL     1       8.933  -4.148  -1.737  0.00  0.00    +0.246 A 
ATOM      9  O   UNL     1       7.839  -3.458  -1.393  0.00  0.00    -0.433 OA
BRANCH   8  10
ATOM     10  S   UNL     1      10.223  -4.639  -0.641  0.00  0.00    +0.058 S 
ATOM     11  O   UNL     1       9.654  -4.687   0.660  0.00  0.00    -0.161 OA
ATOM     12  O   UNL     1      10.857  -5.762  -1.237  0.00  0.00    -0.161 OA
BRANCH  10  13
ATOM     13  C   UNL     1      11.413  -3.340  -0.622  0.00  0.00    +0.097 A 
ATOM     14  C   UNL     1      12.455  -3.344  -1.531  0.00  0.00    +0.028 A 
ATOM     15  C   UNL     1      13.389  -2.325  -1.516  0.00  0.00    +0.017 A 
ATOM     16  C   UNL     1      13.280  -1.301  -0.593  0.00  0.00    +0.018 A 
ATOM     17  C   UNL     1      12.237  -1.297   0.316  0.00  0.00    +0.017 A 
ATOM     18  C   UNL     1      11.301  -2.314   0.297  0.00  0.00    +0.028 A 
ATOM     19 BR   UNL     1      14.557   0.094  -0.573  0.00  0.00    -0.050 Br
ENDBRANCH  10  13
ENDBRANCH   8  10
ENDBRANCH   2   5
BRANCH   1  20
ATOM     20  C   UNL     1       3.997  -1.314  -1.428  0.00  0.00    +0.094 C 
BRANCH  20  21
ATOM     21  C   UNL     1       3.715  -0.701  -0.055  0.00  0.00    -0.020 C 
BRANCH  21  25
ATOM     22  C   UNL     1       6.625   2.312   0.781  0.00  0.00    +0.000 A 
ATOM     23  C   UNL     1       6.756   1.052   1.334  0.00  0.00    +0.000 A 
ATOM     24  C   UNL     1       5.814   0.077   1.064  0.00  0.00    +0.002 A 
ATOM     25  C   UNL     1       4.741   0.363   0.240  0.00  0.00    -0.059 A 
ATOM     26  C   UNL     1       4.610   1.623  -0.312  0.00  0.00    +0.002 A 
ATOM     27  C   UNL     1       5.552   2.597  -0.043  0.00  0.00    +0.000 A 
ENDBRANCH  21  25
BRANCH  21  28
ATOM     28  N   UNL     1       2.374  -0.101  -0.053  0.00  0.00    +0.385 N 
ATOM     29  C   UNL     1       1.344  -1.149  -0.267  0.00  0.00    -0.078 C 
ATOM     30  C   UNL     1       0.058  -0.505   0.310  0.00  0.00    -0.020 C 
ATOM     31  C   UNL     1       0.581   0.268   1.542  0.00  0.00    -0.020 C 
ATOM     32  C   UNL     1       2.081   0.489   1.271  0.00  0.00    -0.078 C 
ATOM     33  H   UNL     1       2.307   0.605  -0.771  0.00  0.00    -0.081 HD
ENDBRANCH  21  28
ENDBRANCH  20  21
ENDBRANCH   1  20
TORSDOF 7
