REMARK  Name = ZINC08874775
REMARK  6 active torsions:
REMARK  status: ('A' for Active; 'I' for Inactive)
REMARK    1  A    between atoms: C_6  and  C_11
REMARK    2  A    between atoms: N_16  and  C_17
REMARK    3  A    between atoms: C_17  and  N_19
REMARK    4  A    between atoms: C_20  and  C_22
REMARK    5  A    between atoms: C_23  and  C_24
REMARK    6  A    between atoms: C_28  and  N_30
REMARK                            x       y       z     vdW  Elec       q    Type
REMARK                         _______ _______ _______ _____ _____    ______ ____
ROOT
ATOM      1  C   UNL     1       7.785  -6.301  -0.208  0.00  0.00    +0.163 C 
ATOM      2  S   UNL     1       9.041  -5.138  -0.205  0.00  0.00    -0.016 S 
ENDROOT
BRANCH   1   8
ATOM      3  C   UNL     1       4.911  -2.701  -0.074  0.00  0.00    +0.055 A 
ATOM      4  C   UNL     1       6.195  -1.986  -0.076  0.00  0.00    +0.074 A 
ATOM      5  S   UNL     1       7.322  -3.233  -0.087  0.00  0.00    -0.060 S 
ATOM      6  C   UNL     1       6.208  -4.624  -0.088  0.00  0.00    +0.162 A 
ATOM      7  N   UNL     1       4.969  -4.038  -0.075  0.00  0.00    -0.335 N 
ATOM      8  N   UNL     1       6.505  -5.908  -0.095  0.00  0.00    -0.169 NA
ATOM      9  H   UNL     1       4.161  -4.574  -0.069  0.00  0.00    +0.168 HD
BRANCH   3  15
ATOM     10  C   UNL     1      -0.020   1.371  -0.039  0.00  0.00    +0.001 A 
ATOM     11  C   UNL     1       1.164   2.102  -0.047  0.00  0.00    +0.001 A 
ATOM     12  C   UNL     1       2.374   1.474  -0.056  0.00  0.00    +0.008 A 
ATOM     13  C   UNL     1       2.431   0.065  -0.057  0.00  0.00    -0.017 A 
ATOM     14  C   UNL     1       3.658  -0.605  -0.066  0.00  0.00    +0.018 A 
ATOM     15  C   UNL     1       3.675  -2.011  -0.066  0.00  0.00    -0.001 A 
ATOM     16  C   UNL     1       2.462  -2.738  -0.058  0.00  0.00    +0.010 A 
ATOM     17  C   UNL     1       1.272  -2.096  -0.051  0.00  0.00    +0.009 A 
ATOM     18  C   UNL     1       1.224  -0.683  -0.049  0.00  0.00    -0.018 A 
ATOM     19  C   UNL     1      -0.001  -0.007  -0.040  0.00  0.00    +0.008 A 
ENDBRANCH   3  15
ENDBRANCH   1   8
BRANCH   1  20
ATOM     20  N   UNL     1       8.079  -7.612  -0.323  0.00  0.00    -0.263 N 
ATOM     21  C   UNL     1       9.363  -8.006  -0.437  0.00  0.00    +0.242 C 
ATOM     22  O   UNL     1      10.256  -7.179  -0.435  0.00  0.00    -0.270 OA
ATOM     23  H   UNL     1       7.367  -8.270  -0.325  0.00  0.00    +0.157 HD
BRANCH  21  24
ATOM     24  C   UNL     1       9.682  -9.428  -0.562  0.00  0.00    +0.068 C 
ATOM     25  C   UNL     1      10.968  -9.823  -0.675  0.00  0.00    +0.013 C 
BRANCH  25  26
ATOM     26  C   UNL     1      11.289 -11.253  -0.801  0.00  0.00    -0.023 A 
ATOM     27  C   UNL     1      10.265 -12.206  -0.809  0.00  0.00    +0.009 A 
ATOM     28  C   UNL     1      10.573 -13.544  -0.927  0.00  0.00    +0.023 A 
ATOM     29  C   UNL     1      11.895 -13.946  -1.037  0.00  0.00    +0.071 A 
ATOM     30  C   UNL     1      12.915 -13.009  -1.030  0.00  0.00    +0.145 A 
ATOM     31  C   UNL     1      12.620 -11.666  -0.919  0.00  0.00    +0.042 A 
ATOM     32 CL   UNL     1      12.274 -15.634  -1.185  0.00  0.00    -0.081 Cl
BRANCH  30  33
ATOM     33  N   UNL     1      14.323 -13.448  -1.148  0.00  0.00    +0.058 N 
ATOM     34  O   UNL     1      15.293 -12.558  -1.141  0.00  0.00    -0.126 OA
ATOM     35  O   UNL     1      14.605 -14.730  -1.260  0.00  0.00    -0.126 OA
ENDBRANCH  30  33
ENDBRANCH  25  26
ENDBRANCH  21  24
ENDBRANCH   1  20
TORSDOF 6
