REMARK  Name = ZINC38984743
REMARK  7 active torsions:
REMARK  status: ('A' for Active; 'I' for Inactive)
REMARK    1  A    between atoms: C_6  and  C_7
REMARK    2  A    between atoms: C_9  and  C_13
REMARK    3  A    between atoms: C_17  and  S_21
REMARK    4  A    between atoms: N_19  and  N_20
REMARK    5  A    between atoms: S_21  and  C_22
REMARK    6  A    between atoms: C_22  and  C_23
REMARK    7  A    between atoms: N_25  and  C_26
REMARK                            x       y       z     vdW  Elec       q    Type
REMARK                         _______ _______ _______ _____ _____    ______ ____
ROOT
ATOM      1  C   UNL     1      -3.300  -3.117  -1.225  0.00  0.00    +0.185 C 
ATOM      2  N   UNL     1      -2.648  -4.452  -1.254  0.00  0.00    -0.234 NA
ATOM      3  N   UNL     1      -3.542  -5.241  -2.116  0.00  0.00    -0.228 NA
ATOM      4  C   UNL     1      -4.903  -4.777  -1.760  0.00  0.00    +0.214 C 
ATOM      5  N   UNL     1      -4.750  -3.418  -1.195  0.00  0.00    -0.197 NA
ATOM      6  H   UNL     1      -1.722  -4.394  -1.650  0.00  0.00    +0.143 HD
ATOM      7  H   UNL     1      -3.346  -5.072  -3.091  0.00  0.00    +0.143 HD
ENDROOT
BRANCH   1  10
ATOM      8  C   UNL     1      -1.309  -0.730   0.024  0.00  0.00    +0.091 C 
ATOM      9  C   UNL     1      -1.393  -2.075   0.025  0.00  0.00    +0.034 C 
ATOM     10  C   UNL     1      -2.887  -2.346   0.030  0.00  0.00    +0.187 C 
ATOM     11  N   UNL     1      -3.473  -0.996   0.032  0.00  0.00    -0.176 NA
ATOM     12  N   UNL     1      -2.550  -0.178   0.034  0.00  0.00    -0.154 NA
BRANCH   8  18
ATOM     13  C   UNL     1      -0.068   1.432   0.025  0.00  0.00    +0.013 A 
ATOM     14  C   UNL     1       1.115   2.143   0.021  0.00  0.00    +0.039 A 
ATOM     15  C   UNL     1       2.328   1.474   0.011  0.00  0.00    +0.123 A 
ATOM     16  C   UNL     1       2.360   0.089   0.005  0.00  0.00    +0.039 A 
ATOM     17  C   UNL     1       1.182  -0.630   0.009  0.00  0.00    +0.013 A 
ATOM     18  C   UNL     1      -0.040   0.039   0.019  0.00  0.00    +0.002 A 
ATOM     19  F   UNL     1       3.483   2.175   0.007  0.00  0.00    -0.205 F 
ENDBRANCH   8  18
ENDBRANCH   1  10
BRANCH   5  20
ATOM     20  N   UNL     1      -5.501  -2.441  -1.967  0.00  0.00    -0.264 NA
ATOM     21  H   UNL     1      -6.489  -2.646  -1.946  0.00  0.00    +0.137 HD
ATOM     22  H   UNL     1      -5.319  -1.504  -1.639  0.00  0.00    +0.137 HD
ENDBRANCH   5  20
BRANCH   4  23
ATOM     23  S   UNL     1      -5.947  -4.717  -3.243  0.00  0.00    -0.115 S 
BRANCH  23  24
ATOM     24  C   UNL     1      -5.072  -3.578  -4.350  0.00  0.00    +0.168 C 
BRANCH  24  25
ATOM     25  C   UNL     1      -5.843  -3.437  -5.637  0.00  0.00    +0.227 C 
ATOM     26  O   UNL     1      -6.881  -4.045  -5.792  0.00  0.00    -0.275 OA
ATOM     27  N   UNL     1      -5.380  -2.634  -6.616  0.00  0.00    -0.285 N 
ATOM     28  H   UNL     1      -4.586  -2.096  -6.468  0.00  0.00    +0.155 HD
BRANCH  27  29
ATOM     29  C   UNL     1      -6.043  -2.578  -7.848  0.00  0.00    +0.034 A 
ATOM     30  C   UNL     1      -5.319  -2.418  -9.021  0.00  0.00    +0.026 A 
ATOM     31  C   UNL     1      -5.975  -2.362 -10.235  0.00  0.00    +0.040 A 
ATOM     32  C   UNL     1      -7.356  -2.465 -10.282  0.00  0.00    +0.124 A 
ATOM     33  C   UNL     1      -8.080  -2.624  -9.113  0.00  0.00    +0.040 A 
ATOM     34  C   UNL     1      -7.427  -2.686  -7.898  0.00  0.00    +0.026 A 
ATOM     35  F   UNL     1      -7.996  -2.409 -11.470  0.00  0.00    -0.205 F 
ENDBRANCH  27  29
ENDBRANCH  24  25
ENDBRANCH  23  24
ENDBRANCH   4  23
TORSDOF 7
