REMARK  Name = ZINC00956054
REMARK  10 active torsions:
REMARK  status: ('A' for Active; 'I' for Inactive)
REMARK    1  A    between atoms: C_1  and  C_2
REMARK    2  A    between atoms: C_2  and  N_49
REMARK    3  A    between atoms: C_3  and  C_4
REMARK    4  A    between atoms: C_3  and  N_49
REMARK    5  A    between atoms: C_5  and  C_6
REMARK    6  A    between atoms: C_5  and  N_49
REMARK    7  A    between atoms: C_7  and  O_29
REMARK    8  A    between atoms: C_13  and  C_25
REMARK    9  A    between atoms: C_14  and  O_17
REMARK   10  A    between atoms: O_17  and  C_18
REMARK                            x       y       z     vdW  Elec       q    Type
REMARK                         _______ _______ _______ _____ _____    ______ ____
ROOT
ATOM      1  C   UNL     1       1.019   1.460   0.502  0.00  0.00    +0.020 A 
ATOM      2  C   UNL     1       2.336   1.751   0.816  0.00  0.00    +0.122 A 
ATOM      3  C   UNL     1       2.729   3.062   1.080  0.00  0.00    +0.046 A 
ATOM      4  C   UNL     1       1.818   4.079   1.032  0.00  0.00    +0.019 A 
ATOM      5  C   UNL     1       0.487   3.801   0.717  0.00  0.00    +0.068 A 
ATOM      6  C   UNL     1       0.083   2.482   0.444  0.00  0.00    +0.144 A 
ATOM      7  O   UNL     1      -1.207   2.225   0.147  0.00  0.00    -0.447 OA
ATOM      8  C   UNL     1      -2.136   3.188   0.088  0.00  0.00    +0.254 A 
ATOM      9  C   UNL     1      -1.857   4.485   0.326  0.00  0.00    +0.222 A 
ATOM     10  C   UNL     1      -0.526   4.869   0.655  0.00  0.00    +0.235 A 
ATOM     11  O   UNL     1      -0.236   6.033   0.877  0.00  0.00    -0.283 OA
ENDROOT
BRANCH   8  12
ATOM     12  C   UNL     1      -3.552   2.806  -0.258  0.00  0.00    +0.454 C 
ATOM     13  F   UNL     1      -3.725   2.865  -1.645  0.00  0.00    -0.163 F 
ATOM     14  F   UNL     1      -3.805   1.504   0.189  0.00  0.00    -0.163 F 
ATOM     15  F   UNL     1      -4.439   3.692   0.361  0.00  0.00    -0.163 F 
ENDBRANCH   8  12
BRANCH   2  16
ATOM     16  O   UNL     1       3.253   0.751   0.869  0.00  0.00    -0.506 OA
ATOM     17  H   UNL     1       3.696   0.580   0.026  0.00  0.00    +0.292 HD
ENDBRANCH   2  16
BRANCH   1  18
ATOM     18  C   UNL     1       0.606   0.038   0.219  0.00  0.00    -0.036 C 
BRANCH  18  19
ATOM     19  N   UNL     1       0.214  -0.607   1.490  0.00  0.00    +0.382 N 
ATOM     20  H   UNL     1       0.964  -0.472   2.178  0.00  0.00    -0.081 HD
BRANCH  19  22
ATOM     21  C   UNL     1      -2.199  -0.277   1.065  0.00  0.00    -0.017 C 
ATOM     22  C   UNL     1      -1.027   0.008   2.006  0.00  0.00    -0.082 C 
ENDBRANCH  19  22
BRANCH  19  23
ATOM     23  C   UNL     1       0.010  -2.055   1.279  0.00  0.00    -0.082 C 
ATOM     24  C   UNL     1      -0.102  -2.740   2.643  0.00  0.00    -0.017 C 
ENDBRANCH  19  23
ENDBRANCH  18  19
ENDBRANCH   1  18
BRANCH   9  25
ATOM     25  O   UNL     1      -2.842   5.422   0.253  0.00  0.00    -0.447 OA
BRANCH  25  26
ATOM     26  C   UNL     1      -3.062   6.024  -0.946  0.00  0.00    +0.147 A 
ATOM     27  C   UNL     1      -2.291   5.681  -2.047  0.00  0.00    +0.048 A 
ATOM     28  C   UNL     1      -2.521   6.290  -3.266  0.00  0.00    +0.004 A 
ATOM     29  C   UNL     1      -3.511   7.248  -3.387  0.00  0.00    +0.002 A 
ATOM     30  C   UNL     1      -4.277   7.595  -2.290  0.00  0.00    +0.024 A 
ATOM     31  C   UNL     1      -4.056   6.985  -1.069  0.00  0.00    +0.083 A 
ATOM     32 CL   UNL     1      -5.019   7.421   0.307  0.00  0.00    -0.080 Cl
ENDBRANCH  25  26
ENDBRANCH   9  25
TORSDOF 8
