REMARK  Name = ZINC13034017
REMARK  11 active torsions:
REMARK  status: ('A' for Active; 'I' for Inactive)
REMARK    1  A    between atoms: C_1  and  C_2
REMARK    2  A    between atoms: C_2  and  C_3
REMARK    3  A    between atoms: C_10  and  C_15
REMARK    4  A    between atoms: C_15  and  N_69
REMARK    5  A    between atoms: C_16  and  C_17
REMARK    6  A    between atoms: C_16  and  N_69
REMARK    7  A    between atoms: C_23  and  C_25
REMARK    8  A    between atoms: C_23  and  C_27
REMARK    9  A    between atoms: C_23  and  N_69
REMARK   10  A    between atoms: C_25  and  C_26
REMARK   11  A    between atoms: N_31  and  C_32
REMARK                            x       y       z     vdW  Elec       q    Type
REMARK                         _______ _______ _______ _____ _____    ______ ____
ROOT
ATOM      1  N   UNL     1       4.058  -0.778  -1.319  0.00  0.00    +0.392 N 
ATOM      2  H   UNL     1       4.097   0.034  -1.946  0.00  0.00    -0.080 HD
ENDROOT
BRANCH   1   3
ATOM      3  C   UNL     1       2.968  -1.674  -1.760  0.00  0.00    -0.036 C 
BRANCH   3  11
ATOM      4  C   UNL     1       1.176  -5.339   2.892  0.00  0.00    -0.047 A 
ATOM      5  C   UNL     1       1.987  -6.417   2.562  0.00  0.00    +0.005 A 
ATOM      6  C   UNL     1       2.820  -6.361   1.466  0.00  0.00    +0.026 A 
ATOM      7  C   UNL     1       2.852  -5.212   0.681  0.00  0.00    +0.049 A 
ATOM      8  C   UNL     1       2.028  -4.122   1.018  0.00  0.00    -0.001 A 
ATOM      9  C   UNL     1       1.190  -4.202   2.135  0.00  0.00    +0.013 A 
ATOM     10  C   UNL     1       2.072  -2.916   0.189  0.00  0.00    +0.017 A 
ATOM     11  C   UNL     1       2.902  -2.897  -0.883  0.00  0.00    +0.001 A 
ATOM     12  C   UNL     1       3.707  -4.018  -1.178  0.00  0.00    +0.251 A 
ATOM     13  O   UNL     1       4.449  -3.979  -2.144  0.00  0.00    -0.268 OA
ATOM     14  N   UNL     1       3.677  -5.128  -0.420  0.00  0.00    -0.322 N 
ATOM     15  H   UNL     1       4.244  -5.881  -0.651  0.00  0.00    +0.169 HD
BRANCH   4  17
ATOM     16  C   UNL     1      -1.085  -5.992   3.674  0.00  0.00    +0.009 C 
ATOM     17  C   UNL     1       0.272  -5.425   4.095  0.00  0.00    +0.032 C 
ENDBRANCH   4  17
ENDBRANCH   3  11
ENDBRANCH   1   3
BRANCH   1  18
ATOM     18  C   UNL     1       3.800  -0.309   0.059  0.00  0.00    -0.042 C 
BRANCH  18  19
ATOM     19  C   UNL     1       2.750   0.770   0.013  0.00  0.00    -0.064 A 
ATOM     20  C   UNL     1       1.410   0.431  -0.004  0.00  0.00    +0.002 A 
ATOM     21  C   UNL     1       0.447   1.421  -0.046  0.00  0.00    +0.000 A 
ATOM     22  C   UNL     1       0.823   2.751  -0.071  0.00  0.00    +0.000 A 
ATOM     23  C   UNL     1       2.163   3.091  -0.053  0.00  0.00    +0.000 A 
ATOM     24  C   UNL     1       3.127   2.100  -0.011  0.00  0.00    +0.002 A 
ENDBRANCH  18  19
ENDBRANCH   1  18
BRANCH   1  25
ATOM     25  C   UNL     1       5.352  -1.491  -1.376  0.00  0.00    +0.003 C 
BRANCH  25  26
ATOM     26  C   UNL     1       6.405  -0.658  -0.693  0.00  0.00    +0.138 A 
ATOM     27  N   UNL     1       6.590   0.633  -0.827  0.00  0.00    -0.115 NA
ATOM     28  N   UNL     1       7.585   0.972  -0.081  0.00  0.00    -0.023 NA
ATOM     29  N   UNL     1       8.043  -0.070   0.520  0.00  0.00    -0.044 NA
ATOM     30  N   UNL     1       7.343  -1.095   0.168  0.00  0.00    -0.228 N 
BRANCH  30  31
ATOM     31  C   UNL     1       7.531  -2.475   0.622  0.00  0.00    +0.111 C 
ATOM     32  C   UNL     1       7.426  -2.546   2.159  0.00  0.00    +0.027 C 
ATOM     33  C   UNL     1       8.487  -3.600   2.564  0.00  0.00    +0.002 C 
ATOM     34  C   UNL     1       9.649  -3.311   1.581  0.00  0.00    +0.002 C 
ATOM     35  C   UNL     1       8.944  -2.962   0.254  0.00  0.00    +0.027 C 
ENDBRANCH  30  31
ENDBRANCH  25  26
BRANCH  25  36
ATOM     36  C   UNL     1       5.736  -1.697  -2.842  0.00  0.00    -0.011 C 
ATOM     37  C   UNL     1       7.043  -2.488  -2.921  0.00  0.00    +0.002 C 
ENDBRANCH  25  36
ENDBRANCH   1  25
TORSDOF 9
