REMARK  Name = ZINC49765386
REMARK  9 active torsions:
REMARK  status: ('A' for Active; 'I' for Inactive)
REMARK    1  A    between atoms: C_1  and  C_2
REMARK    2  A    between atoms: C_3  and  C_8
REMARK    3  A    between atoms: C_4  and  C_7
REMARK    4  A    between atoms: C_8  and  O_9
REMARK    5  A    between atoms: O_9  and  C_10
REMARK    6  A    between atoms: C_14  and  C_16
REMARK    7  A    between atoms: C_16  and  N_18
REMARK    8  A    between atoms: N_25  and  C_28
REMARK    9  A    between atoms: C_28  and  C_29
REMARK                            x       y       z     vdW  Elec       q    Type
REMARK                         _______ _______ _______ _____ _____    ______ ____
ROOT
ATOM      1  N   UNL     1       4.462   1.481  -7.941  0.00  0.00    -0.152 NA
ATOM      2  C   UNL     1       5.686   1.655  -8.437  0.00  0.00    +0.164 A 
ATOM      3  N   UNL     1       6.883   1.454  -7.824  0.00  0.00    -0.339 N 
ATOM      4  C   UNL     1       8.041   1.692  -8.511  0.00  0.00    +0.024 A 
ATOM      5  C   UNL     1       7.882   2.120  -9.774  0.00  0.00    -0.004 A 
ATOM      6  S   UNL     1       6.125   2.171  -9.978  0.00  0.00    -0.059 S 
ATOM      7  C   UNL     1       8.962   2.459 -10.747  0.00  0.00    -0.033 C 
ATOM      8  N   UNL     1      10.226   2.613 -10.002  0.00  0.00    +0.386 N 
ATOM      9  C   UNL     1      10.423   1.450  -9.126  0.00  0.00    -0.072 C 
ATOM     10  C   UNL     1       9.445   1.503  -7.949  0.00  0.00    +0.035 C 
ATOM     11  H   UNL     1       6.915   1.143  -6.906  0.00  0.00    +0.167 HD
ATOM     12  H   UNL     1      10.187   3.452  -9.443  0.00  0.00    -0.081 HD
ENDROOT
BRANCH   1  13
ATOM     13  C   UNL     1       4.305   1.061  -6.683  0.00  0.00    +0.270 C 
ATOM     14  O   UNL     1       5.283   0.837  -5.990  0.00  0.00    -0.268 OA
BRANCH  13  19
ATOM     15  C   UNL     1       1.504   0.249  -4.308  0.00  0.00    +0.122 A 
ATOM     16  C   UNL     1       0.395   0.506  -5.104  0.00  0.00    +0.046 A 
ATOM     17  C   UNL     1       0.558   0.942  -6.405  0.00  0.00    +0.004 A 
ATOM     18  C   UNL     1       1.825   1.123  -6.923  0.00  0.00    +0.013 A 
ATOM     19  C   UNL     1       2.945   0.867  -6.131  0.00  0.00    +0.042 A 
ATOM     20  C   UNL     1       2.779   0.434  -4.816  0.00  0.00    +0.058 A 
BRANCH  15  21
ATOM     21  O   UNL     1       1.338  -0.179  -3.029  0.00  0.00    -0.487 OA
BRANCH  21  22
ATOM     22  C   UNL     1      -0.005  -0.348  -2.571  0.00  0.00    +0.269 C 
BRANCH  22  25
ATOM     23  C   UNL     1      -0.018   1.503   0.010  0.00  0.00    +0.069 C 
ATOM     24  C   UNL     1       0.002  -0.004   0.002  0.00  0.00    +0.087 A 
ATOM     25  C   UNL     1       0.008  -0.824  -1.141  0.00  0.00    +0.054 A 
ATOM     26  C   UNL     1       0.027  -2.108  -0.735  0.00  0.00    +0.141 A 
ATOM     27  O   UNL     1       0.034  -2.119   0.606  0.00  0.00    -0.359 OA
ATOM     28  N   UNL     1       0.023  -0.775   1.052  0.00  0.00    -0.083 NA
ATOM     29  C   UNL     1       0.039  -3.320  -1.631  0.00  0.00    +0.089 C 
ENDBRANCH  22  25
ENDBRANCH  21  22
ENDBRANCH  15  21
ENDBRANCH  13  19
ENDBRANCH   1  13
BRANCH   8  30
ATOM     30  C   UNL     1      11.345   2.707 -10.950  0.00  0.00    -0.043 C 
BRANCH  30  31
ATOM     31  C   UNL     1      11.207   3.967 -11.766  0.00  0.00    -0.064 A 
ATOM     32  C   UNL     1      10.499   3.947 -12.953  0.00  0.00    +0.002 A 
ATOM     33  C   UNL     1      10.373   5.103 -13.701  0.00  0.00    +0.000 A 
ATOM     34  C   UNL     1      10.954   6.277 -13.262  0.00  0.00    +0.000 A 
ATOM     35  C   UNL     1      11.662   6.297 -12.075  0.00  0.00    +0.000 A 
ATOM     36  C   UNL     1      11.785   5.143 -11.324  0.00  0.00    +0.002 A 
ENDBRANCH  30  31
ENDBRANCH   8  30
TORSDOF 7
