REMARK  Name = ZINC02472373
REMARK  6 active torsions:
REMARK  status: ('A' for Active; 'I' for Inactive)
REMARK    1  A    between atoms: C_1  and  C_2
REMARK    2  A    between atoms: C_5  and  C_8
REMARK    3  A    between atoms: C_11  and  C_20
REMARK    4  A    between atoms: C_23  and  C_26
REMARK    5  A    between atoms: C_26  and  C_27
REMARK    6  A    between atoms: C_26  and  C_28
REMARK                            x       y       z     vdW  Elec       q    Type
REMARK                         _______ _______ _______ _____ _____    ______ ____
ROOT
ATOM      1  C   UNL     1      -0.013   1.086   0.008  0.00  0.00    +0.106 C 
ATOM      2  C   UNL     1       1.424   1.620  -0.003  0.00  0.00    +0.058 C 
ATOM      3  C   UNL     1       2.170   1.075  -1.228  0.00  0.00    +0.143 C 
ATOM      4  N   UNL     1       1.343   1.287  -2.416  0.00  0.00    -0.224 N 
ATOM      5  C   UNL     1       0.009   1.522  -2.385  0.00  0.00    +0.216 A 
ATOM      6  N   UNL     1      -0.407   1.666  -3.615  0.00  0.00    -0.180 NA
ATOM      7  C   UNL     1       0.628   1.529  -4.456  0.00  0.00    +0.233 A 
ATOM      8  N   UNL     1       1.718   1.295  -3.760  0.00  0.00    -0.132 NA
ATOM      9  N   UNL     1       0.560   1.619  -5.847  0.00  0.00    -0.326 N 
ATOM     10  N   UNL     1      -0.707   1.578  -1.197  0.00  0.00    -0.307 N 
ATOM     11  H   UNL     1       1.362   1.506  -6.381  0.00  0.00    +0.145 HD
ATOM     12  H   UNL     1      -0.290   1.795  -6.281  0.00  0.00    +0.145 HD
ATOM     13  H   UNL     1      -1.614   1.922  -1.161  0.00  0.00    +0.149 HD
ENDROOT
BRANCH   1  18
ATOM     14  C   UNL     1      -2.743   2.963   4.742  0.00  0.00    +0.044 C 
ATOM     15  C   UNL     1      -2.031   2.474   3.508  0.00  0.00    -0.050 A 
ATOM     16  C   UNL     1      -1.523   1.189   3.467  0.00  0.00    +0.004 A 
ATOM     17  C   UNL     1      -0.870   0.740   2.334  0.00  0.00    +0.006 A 
ATOM     18  C   UNL     1      -0.725   1.575   1.242  0.00  0.00    -0.027 A 
ATOM     19  C   UNL     1      -1.229   2.862   1.286  0.00  0.00    +0.006 A 
ATOM     20  C   UNL     1      -1.887   3.309   2.416  0.00  0.00    +0.004 A 
ENDBRANCH   1  18
BRANCH   3  21
ATOM     21  C   UNL     1       3.480   1.802  -1.385  0.00  0.00    -0.023 A 
ATOM     22  C   UNL     1       3.493   3.171  -1.576  0.00  0.00    +0.006 A 
ATOM     23  C   UNL     1       4.695   3.839  -1.716  0.00  0.00    +0.004 A 
ATOM     24  C   UNL     1       5.885   3.135  -1.675  0.00  0.00    -0.045 A 
ATOM     25  C   UNL     1       5.872   1.766  -1.490  0.00  0.00    +0.004 A 
ATOM     26  C   UNL     1       4.670   1.099  -1.345  0.00  0.00    +0.006 A 
BRANCH  24  27
ATOM     27  C   UNL     1       7.196   3.862  -1.832  0.00  0.00    +0.013 C 
ATOM     28  C   UNL     1       7.229   4.566  -3.190  0.00  0.00    +0.012 C 
ATOM     29  C   UNL     1       7.340   4.900  -0.717  0.00  0.00    +0.012 C 
ENDBRANCH  24  27
ENDBRANCH   3  21
TORSDOF 3
