REMARK  Name = ZINC08764478
REMARK  8 active torsions:
REMARK  status: ('A' for Active; 'I' for Inactive)
REMARK    1  A    between atoms: C_1  and  C_2
REMARK    2  A    between atoms: C_2  and  C_4
REMARK    3  A    between atoms: C_4  and  C_5
REMARK    4  A    between atoms: C_6  and  O_26
REMARK    5  A    between atoms: O_26  and  C_27
REMARK    6  A    between atoms: C_27  and  C_28
REMARK    7  A    between atoms: N_30  and  C_31
REMARK    8  A    between atoms: C_36  and  C_37
REMARK                            x       y       z     vdW  Elec       q    Type
REMARK                         _______ _______ _______ _____ _____    ______ ____
ROOT
ATOM      1  C   UNL     1       1.165   2.067  -0.057  0.00  0.00    +0.008 A 
ATOM      2  C   UNL     1      -0.025   1.361  -0.048  0.00  0.00    +0.125 A 
ATOM      3  C   UNL     1      -0.011  -0.028  -0.073  0.00  0.00    +0.048 A 
ATOM      4  C   UNL     1       1.184  -0.714  -0.107  0.00  0.00    +0.030 A 
ATOM      5  C   UNL     1       2.389  -0.023  -0.116  0.00  0.00    +0.058 A 
ATOM      6  C   UNL     1       2.377   1.386  -0.091  0.00  0.00    +0.015 A 
ATOM      7  C   UNL     1       3.784   1.817  -0.110  0.00  0.00    +0.012 A 
ATOM      8  C   UNL     1       4.507   3.006  -0.100  0.00  0.00    +0.030 A 
ATOM      9  C   UNL     1       5.891   2.939  -0.130  0.00  0.00    +0.112 A 
ATOM     10  N   UNL     1       6.552   1.793  -0.167  0.00  0.00    -0.253 NA
ATOM     11  C   UNL     1       5.909   0.634  -0.176  0.00  0.00    +0.096 A 
ATOM     12  C   UNL     1       4.522   0.637  -0.147  0.00  0.00    +0.084 A 
ATOM     13  N   UNL     1       3.713  -0.461  -0.149  0.00  0.00    -0.274 N 
ATOM     14  C   UNL     1       4.279  -1.689  -0.179  0.00  0.00    +0.264 A 
ATOM     15  O   UNL     1       3.574  -2.681  -0.174  0.00  0.00    -0.267 OA
ATOM     16  C   UNL     1       5.745  -1.831  -0.219  0.00  0.00    +0.049 A 
ATOM     17  C   UNL     1       6.572  -0.684  -0.219  0.00  0.00    +0.015 A 
ATOM     18  C   UNL     1       7.952  -0.818  -0.258  0.00  0.00    +0.011 A 
ATOM     19  C   UNL     1       8.515  -2.078  -0.298  0.00  0.00    +0.001 A 
ATOM     20  C   UNL     1       7.710  -3.207  -0.297  0.00  0.00    +0.001 A 
ATOM     21  C   UNL     1       6.337  -3.094  -0.258  0.00  0.00    +0.014 A 
ENDROOT
BRANCH   1  22
ATOM     22  C   UNL     1       1.147   3.574  -0.030  0.00  0.00    +0.069 C 
BRANCH  22  24
ATOM     23  C   UNL     1      -0.122   4.166   2.173  0.00  0.00    +0.039 C 
ATOM     24  C   UNL     1       1.167   4.051   1.399  0.00  0.00    -0.075 C 
ATOM     25  C   UNL     1       2.303   4.366   1.969  0.00  0.00    +0.007 C 
ENDBRANCH  22  24
ENDBRANCH   1  22
BRANCH   2  26
ATOM     26  O   UNL     1      -1.210   2.028  -0.021  0.00  0.00    -0.482 OA
BRANCH  26  27
ATOM     27  C   UNL     1      -2.400   1.237  -0.020  0.00  0.00    +0.324 C 
BRANCH  27  28
ATOM     28  C   UNL     1      -3.604   2.142   0.012  0.00  0.00    +0.255 C 
ATOM     29  O   UNL     1      -3.458   3.345   0.031  0.00  0.00    -0.272 OA
ATOM     30  N   UNL     1      -4.844   1.613   0.018  0.00  0.00    -0.282 N 
ATOM     31  H   UNL     1      -4.963   0.654  -0.062  0.00  0.00    +0.155 HD
BRANCH  30  32
ATOM     32  C   UNL     1      -5.955   2.444   0.141  0.00  0.00    +0.046 A 
ATOM     33  C   UNL     1      -5.952   3.704  -0.443  0.00  0.00    +0.024 A 
ATOM     34  C   UNL     1      -7.055   4.524  -0.324  0.00  0.00    +0.002 A 
ATOM     35  C   UNL     1      -8.169   4.103   0.385  0.00  0.00    +0.001 A 
ATOM     36  C   UNL     1      -8.188   2.858   0.975  0.00  0.00    +0.015 A 
ATOM     37  C   UNL     1      -7.081   2.015   0.860  0.00  0.00    +0.058 A 
BRANCH  37  38
ATOM     38  C   UNL     1      -7.095   0.681   1.489  0.00  0.00    +0.243 C 
ATOM     39  O   UNL     1      -6.094  -0.010   1.472  0.00  0.00    -0.270 OA
ATOM     40  N   UNL     1      -8.216   0.228   2.085  0.00  0.00    -0.325 N 
ATOM     41  H   UNL     1      -9.014   0.780   2.099  0.00  0.00    +0.145 HD
ATOM     42  H   UNL     1      -8.225  -0.649   2.499  0.00  0.00    +0.145 HD
ENDBRANCH  37  38
ENDBRANCH  30  32
ENDBRANCH  27  28
ENDBRANCH  26  27
ENDBRANCH   2  26
TORSDOF 7
