REMARK  Name = ZINC21244852
REMARK  7 active torsions:
REMARK  status: ('A' for Active; 'I' for Inactive)
REMARK    1  A    between atoms: C_1  and  C_2
REMARK    2  A    between atoms: C_5  and  C_9
REMARK    3  A    between atoms: C_14  and  C_19
REMARK    4  A    between atoms: C_22  and  O_27
REMARK    5  A    between atoms: C_23  and  O_25
REMARK    6  A    between atoms: O_25  and  C_26
REMARK    7  A    between atoms: O_27  and  C_28
REMARK                            x       y       z     vdW  Elec       q    Type
REMARK                         _______ _______ _______ _____ _____    ______ ____
ROOT
ATOM      1  C   UNL     1       0.922   3.759   0.049  0.00  0.00    +0.136 C 
ATOM      2  C   UNL     1       1.271   2.291  -0.035  0.00  0.00    +0.036 C 
ATOM      3  C   UNL     1       2.510   1.776  -0.066  0.00  0.00    +0.017 C 
ATOM      4  C   UNL     1       2.717   0.274  -0.175  0.00  0.00    +0.059 C 
ATOM      5  C   UNL     1       1.585  -0.460   0.542  0.00  0.00    +0.032 C 
ATOM      6  C   UNL     1       0.268  -0.055  -0.131  0.00  0.00    +0.088 C 
ATOM      7  C   UNL     1       0.143   1.438  -0.079  0.00  0.00    +0.163 C 
ATOM      8  O   UNL     1      -0.967   1.933  -0.079  0.00  0.00    -0.292 OA
ATOM      9  N   UNL     1       3.655   2.503  -0.009  0.00  0.00    -0.316 N 
ATOM     10  C   UNL     1       3.908   3.645  -0.759  0.00  0.00    +0.052 A 
ATOM     11  C   UNL     1       4.910   3.697  -1.713  0.00  0.00    +0.025 A 
ATOM     12  C   UNL     1       5.139   4.882  -2.393  0.00  0.00    +0.002 A 
ATOM     13  C   UNL     1       4.376   6.002  -2.119  0.00  0.00    +0.002 A 
ATOM     14  C   UNL     1       3.362   5.946  -1.177  0.00  0.00    +0.025 A 
ATOM     15  C   UNL     1       3.117   4.757  -0.511  0.00  0.00    +0.049 A 
ATOM     16  N   UNL     1       2.041   4.622   0.364  0.00  0.00    -0.331 N 
ATOM     17  H   UNL     1       4.466   2.199   0.670  0.00  0.00    +0.152 HD
ATOM     18  H   UNL     1       2.051   5.186   1.309  0.00  0.00    +0.147 HD
ENDROOT
BRANCH   1  23
ATOM     19  C   UNL     1      -1.294   5.411  -5.026  0.00  0.00    +0.045 C 
ATOM     20  C   UNL     1      -0.716   4.980  -3.702  0.00  0.00    -0.036 A 
ATOM     21  C   UNL     1       0.603   4.575  -3.623  0.00  0.00    +0.005 A 
ATOM     22  C   UNL     1       1.133   4.180  -2.409  0.00  0.00    +0.006 A 
ATOM     23  C   UNL     1       0.344   4.189  -1.274  0.00  0.00    -0.022 A 
ATOM     24  C   UNL     1      -0.977   4.588  -1.353  0.00  0.00    +0.021 A 
ATOM     25  C   UNL     1      -1.506   4.990  -2.567  0.00  0.00    +0.021 A 
ATOM     26 BR   UNL     1      -3.311   5.544  -2.675  0.00  0.00    -0.050 Br
ENDBRANCH   1  23
BRANCH   5  27
ATOM     27  C   UNL     1       1.783  -1.949   0.423  0.00  0.00    -0.040 A 
ATOM     28  C   UNL     1       1.856  -2.537  -0.826  0.00  0.00    +0.008 A 
ATOM     29  C   UNL     1       2.039  -3.903  -0.941  0.00  0.00    +0.049 A 
ATOM     30  C   UNL     1       2.149  -4.685   0.198  0.00  0.00    +0.161 A 
ATOM     31  C   UNL     1       2.075  -4.093   1.455  0.00  0.00    +0.162 A 
ATOM     32  C   UNL     1       1.897  -2.723   1.562  0.00  0.00    +0.053 A 
BRANCH  31  33
ATOM     33  O   UNL     1       2.182  -4.856   2.575  0.00  0.00    -0.491 OA
ATOM     34  C   UNL     1       2.096  -4.181   3.831  0.00  0.00    +0.277 C 
ENDBRANCH  31  33
BRANCH  30  35
ATOM     35  O   UNL     1       2.329  -6.028   0.086  0.00  0.00    -0.491 OA
ATOM     36  C   UNL     1       2.396  -6.567  -1.235  0.00  0.00    +0.277 C 
ENDBRANCH  30  35
ENDBRANCH   5  27
TORSDOF 4
