REMARK  Name = ZINC39611100
REMARK  6 active torsions:
REMARK  status: ('A' for Active; 'I' for Inactive)
REMARK    1  A    between atoms: C_9  and  C_12
REMARK    2  A    between atoms: C_12  and  O_14
REMARK    3  A    between atoms: O_14  and  C_15
REMARK    4  A    between atoms: C_15  and  C_16
REMARK    5  A    between atoms: N_18  and  C_19
REMARK    6  A    between atoms: C_21  and  C_30
REMARK                            x       y       z     vdW  Elec       q    Type
REMARK                         _______ _______ _______ _____ _____    ______ ____
ROOT
ATOM      1  C   UNL     1      -0.646  -6.464  -0.472  0.00  0.00    +0.252 C 
ATOM      2  O   UNL     1       0.462  -6.838  -0.793  0.00  0.00    -0.272 OA
ATOM      3  N   UNL     1      -1.620  -7.365  -0.238  0.00  0.00    -0.299 N 
ATOM      4  H   UNL     1      -2.506  -7.065   0.019  0.00  0.00    +0.150 HD
ENDROOT
BRANCH   3   5
ATOM      5  C   UNL     1      -1.341  -8.797  -0.371  0.00  0.00    +0.151 C 
ATOM      6  C   UNL     1      -2.192  -9.635   0.614  0.00  0.00    +0.132 C 
ATOM      7  C   UNL     1      -1.410 -10.797   1.173  0.00  0.00    -0.046 C 
ATOM      8  C   UNL     1      -0.086 -10.744   1.091  0.00  0.00    -0.013 C 
ATOM      9  S   UNL     1       0.332  -9.222   0.270  0.00  0.00    -0.106 S 
ATOM     10  C   UNL     1       0.893 -11.771   1.588  0.00  0.00    +0.042 C 
ATOM     11  C   UNL     1       0.163 -12.730   2.537  0.00  0.00    +0.005 C 
ATOM     12  C   UNL     1      -1.143 -13.172   1.870  0.00  0.00    +0.005 C 
ATOM     13  C   UNL     1      -2.112 -11.992   1.815  0.00  0.00    +0.032 C 
BRANCH   6  14
ATOM     14  C   UNL     1      -2.641  -8.753   1.750  0.00  0.00    +0.220 C 
ATOM     15  O   UNL     1      -1.905  -8.559   2.695  0.00  0.00    -0.275 OA
ATOM     16  N   UNL     1      -3.860  -8.180   1.718  0.00  0.00    -0.329 N 
ATOM     17  H   UNL     1      -4.419  -8.275   0.931  0.00  0.00    +0.145 HD
ATOM     18  H   UNL     1      -4.178  -7.673   2.481  0.00  0.00    +0.145 HD
ENDBRANCH   6  14
ENDBRANCH   3   5
BRANCH   1  19
ATOM     19  C   UNL     1      -0.933  -4.990  -0.335  0.00  0.00    +0.328 C 
BRANCH  19  20
ATOM     20  O   UNL     1       0.250  -4.245  -0.633  0.00  0.00    -0.452 OA
BRANCH  20  21
ATOM     21  C   UNL     1       0.162  -2.902  -0.556  0.00  0.00    +0.337 C 
ATOM     22  O   UNL     1      -0.888  -2.379  -0.245  0.00  0.00    -0.245 OA
BRANCH  21  31
ATOM     23  C   UNL     1       3.966  -4.589  -1.467  0.00  0.00    +0.001 A 
ATOM     24  C   UNL     1       5.057  -3.753  -1.739  0.00  0.00    +0.002 A 
ATOM     25  C   UNL     1       4.965  -2.402  -1.727  0.00  0.00    +0.024 A 
ATOM     26  C   UNL     1       3.736  -1.771  -1.434  0.00  0.00    +0.041 A 
ATOM     27  N   UNL     1       3.653  -0.449  -1.425  0.00  0.00    -0.285 N 
ATOM     28  C   UNL     1       2.531   0.210  -1.157  0.00  0.00    +0.222 C 
ATOM     29  O   UNL     1       2.523   1.425  -1.166  0.00  0.00    -0.275 OA
ATOM     30  C   UNL     1       1.264  -0.553  -0.843  0.00  0.00    +0.139 C 
ATOM     31  C   UNL     1       1.344  -2.068  -0.850  0.00  0.00    +0.054 C 
ATOM     32  C   UNL     1       2.568  -2.631  -1.143  0.00  0.00    +0.007 A 
ATOM     33  C   UNL     1       2.742  -4.083  -1.174  0.00  0.00    +0.010 A 
ATOM     34  H   UNL     1       4.452   0.064  -1.623  0.00  0.00    +0.155 HD
ENDBRANCH  21  31
ENDBRANCH  20  21
ENDBRANCH  19  20
ENDBRANCH   1  19
TORSDOF 6
