REMARK  Name = ZINC08726984
REMARK  10 active torsions:
REMARK  status: ('A' for Active; 'I' for Inactive)
REMARK    1  A    between atoms: C_1  and  C_2
REMARK    2  A    between atoms: C_2  and  C_4
REMARK    3  A    between atoms: C_2  and  N_57
REMARK    4  A    between atoms: N_6  and  C_7
REMARK    5  A    between atoms: C_12  and  C_13
REMARK    6  A    between atoms: C_19  and  N_57
REMARK    7  A    between atoms: C_20  and  C_21
REMARK    8  A    between atoms: C_20  and  N_57
REMARK    9  A    between atoms: N_23  and  C_24
REMARK   10  A    between atoms: C_29  and  C_30
REMARK                            x       y       z     vdW  Elec       q    Type
REMARK                         _______ _______ _______ _____ _____    ______ ____
ROOT
ATOM      1  C   UNL     1      -1.887   3.365   2.611  0.00  0.00    -0.004 C 
ATOM      2  C   UNL     1      -1.145   3.021   1.318  0.00  0.00    +0.017 C 
ENDROOT
BRANCH   2   3
ATOM      3  C   UNL     1      -1.989   3.414   0.134  0.00  0.00    +0.203 C 
ATOM      4  O   UNL     1      -2.368   2.569  -0.649  0.00  0.00    -0.277 OA
ATOM      5  N   UNL     1      -2.323   4.706  -0.056  0.00  0.00    -0.286 N 
ATOM      6  H   UNL     1      -1.976   5.390   0.538  0.00  0.00    +0.155 HD
BRANCH   5   7
ATOM      7  C   UNL     1      -3.171   5.061  -1.109  0.00  0.00    +0.041 A 
ATOM      8  C   UNL     1      -3.247   4.263  -2.241  0.00  0.00    +0.024 A 
ATOM      9  C   UNL     1      -4.089   4.613  -3.279  0.00  0.00    +0.002 A 
ATOM     10  C   UNL     1      -4.853   5.764  -3.200  0.00  0.00    +0.001 A 
ATOM     11  C   UNL     1      -4.784   6.571  -2.082  0.00  0.00    +0.010 A 
ATOM     12  C   UNL     1      -3.942   6.226  -1.028  0.00  0.00    +0.003 A 
BRANCH  12  13
ATOM     13  C   UNL     1      -3.864   7.089   0.176  0.00  0.00    -0.016 A 
ATOM     14  C   UNL     1      -4.001   6.532   1.446  0.00  0.00    +0.008 A 
ATOM     15  C   UNL     1      -3.922   7.339   2.563  0.00  0.00    +0.001 A 
ATOM     16  C   UNL     1      -3.719   8.700   2.423  0.00  0.00    +0.000 A 
ATOM     17  C   UNL     1      -3.588   9.259   1.164  0.00  0.00    +0.001 A 
ATOM     18  C   UNL     1      -3.659   8.461   0.041  0.00  0.00    +0.008 A 
ENDBRANCH  12  13
ENDBRANCH   5   7
ENDBRANCH   2   3
BRANCH   2  20
ATOM     19  C   UNL     1       0.153   1.199   2.246  0.00  0.00    -0.094 C 
ATOM     20  N   UNL     1      -0.873   1.570   1.248  0.00  0.00    +0.391 N 
ATOM     21  H   UNL     1      -0.524   1.341   0.310  0.00  0.00    -0.080 HD
BRANCH  20  22
ATOM     22  C   UNL     1      -2.116   0.810   1.497  0.00  0.00    +0.020 C 
BRANCH  22  23
ATOM     23  C   UNL     1      -1.863  -0.646   1.204  0.00  0.00    +0.201 C 
ATOM     24  O   UNL     1      -0.763  -1.010   0.845  0.00  0.00    -0.278 OA
ATOM     25  N   UNL     1      -2.859  -1.544   1.340  0.00  0.00    -0.287 N 
ATOM     26  H   UNL     1      -3.757  -1.244   1.551  0.00  0.00    +0.155 HD
BRANCH  25  27
ATOM     27  C   UNL     1      -2.597  -2.909   1.178  0.00  0.00    +0.045 A 
ATOM     28  C   UNL     1      -1.314  -3.401   1.381  0.00  0.00    +0.024 A 
ATOM     29  C   UNL     1      -1.061  -4.749   1.225  0.00  0.00    +0.002 A 
ATOM     30  C   UNL     1      -2.080  -5.608   0.857  0.00  0.00    +0.001 A 
ATOM     31  C   UNL     1      -3.357  -5.121   0.649  0.00  0.00    +0.014 A 
ATOM     32  C   UNL     1      -3.619  -3.774   0.808  0.00  0.00    +0.076 A 
BRANCH  32  33
ATOM     33  C   UNL     1      -5.011  -3.244   0.580  0.00  0.00    +0.419 C 
ATOM     34  F   UNL     1      -5.858  -4.297   0.219  0.00  0.00    -0.166 F 
ATOM     35  F   UNL     1      -5.481  -2.649   1.756  0.00  0.00    -0.166 F 
ATOM     36  F   UNL     1      -4.985  -2.293  -0.446  0.00  0.00    -0.166 F 
ENDBRANCH  32  33
ENDBRANCH  25  27
ENDBRANCH  22  23
ENDBRANCH  20  22
ENDBRANCH   2  20
TORSDOF 8
