REMARK  Name = ZINC35843249
REMARK  4 active torsions:
REMARK  status: ('A' for Active; 'I' for Inactive)
REMARK    1  A    between atoms: C_1  and  C_2
REMARK    2  A    between atoms: C_4  and  C_36
REMARK    3  A    between atoms: N_21  and  C_24
REMARK    4  A    between atoms: C_27  and  N_30
REMARK                            x       y       z     vdW  Elec       q    Type
REMARK                         _______ _______ _______ _____ _____    ______ ____
ROOT
ATOM      1  C   UNL     1       0.244   1.871   0.538  0.00  0.00    +0.044 C 
ATOM      2  C   UNL     1       0.328   0.373   0.395  0.00  0.00    -0.050 A 
ATOM      3  C   UNL     1       0.501  -0.195  -0.854  0.00  0.00    +0.008 A 
ATOM      4  C   UNL     1       0.580  -1.565  -0.990  0.00  0.00    -0.029 A 
ATOM      5  C   UNL     1       0.486  -2.388   0.130  0.00  0.00    +0.042 A 
ATOM      6  C   UNL     1       0.310  -1.805   1.381  0.00  0.00    +0.004 A 
ATOM      7  C   UNL     1       0.239  -0.436   1.514  0.00  0.00    +0.011 A 
ATOM      8  C   UNL     1       0.242  -2.943   2.360  0.00  0.00    +0.138 C 
ATOM      9  C   UNL     1      -1.092  -2.950   3.116  0.00  0.00    +0.123 C 
ATOM     10  C   UNL     1      -0.774  -2.281   4.481  0.00  0.00    +0.107 C 
ATOM     11  C   UNL     1       0.728  -1.947   4.427  0.00  0.00    +0.071 C 
ATOM     12  N   UNL     1       1.296  -2.844   3.383  0.00  0.00    -0.281 NA
ATOM     13  C   UNL     1       1.452  -4.147   4.072  0.00  0.00    +0.086 C 
ATOM     14  C   UNL     1       1.892  -3.796   5.508  0.00  0.00    +0.017 C 
ATOM     15  C   UNL     1       1.388  -2.348   5.759  0.00  0.00    +0.021 C 
ATOM     16  C   UNL     1      -1.587  -1.006   4.444  0.00  0.00    +0.232 C 
ATOM     17  O   UNL     1      -1.628  -0.175   5.325  0.00  0.00    -0.274 OA
ATOM     18  N   UNL     1      -2.254  -0.940   3.286  0.00  0.00    -0.210 N 
ATOM     19  C   UNL     1      -2.056  -1.990   2.456  0.00  0.00    +0.233 C 
ATOM     20  O   UNL     1      -2.561  -2.143   1.365  0.00  0.00    -0.274 OA
ATOM     21  C   UNL     1       0.402  -4.185   1.525  0.00  0.00    +0.243 C 
ATOM     22  O   UNL     1       0.407  -5.330   1.925  0.00  0.00    -0.273 OA
ATOM     23  N   UNL     1       0.538  -3.778   0.248  0.00  0.00    -0.283 N 
ATOM     24  C   UNL     1       0.768  -2.175  -2.356  0.00  0.00    +0.045 C 
ATOM     25  H   UNL     1       0.658  -4.381  -0.502  0.00  0.00    +0.155 HD
ENDROOT
BRANCH  18  26
ATOM     26  C   UNL     1      -3.097   0.131   2.958  0.00  0.00    +0.044 A 
ATOM     27  C   UNL     1      -2.573   1.408   2.804  0.00  0.00    +0.026 A 
ATOM     28  C   UNL     1      -3.406   2.461   2.480  0.00  0.00    +0.034 A 
ATOM     29  C   UNL     1      -4.761   2.244   2.309  0.00  0.00    +0.126 A 
ATOM     30  C   UNL     1      -5.287   0.975   2.462  0.00  0.00    +0.034 A 
ATOM     31  C   UNL     1      -4.457  -0.083   2.780  0.00  0.00    +0.026 A 
BRANCH  29  32
ATOM     32  N   UNL     1      -5.652   3.375   1.962  0.00  0.00    +0.056 N 
ATOM     33  O   UNL     1      -5.194   4.486   1.828  0.00  0.00    -0.126 OA
ATOM     34  O   UNL     1      -6.837   3.188   1.813  0.00  0.00    -0.126 OA
ENDBRANCH  29  32
ENDBRANCH  18  26
TORSDOF 2
