REMARK  Name = ZINC08643336
REMARK  7 active torsions:
REMARK  status: ('A' for Active; 'I' for Inactive)
REMARK    1  A    between atoms: C_1  and  C_2
REMARK    2  A    between atoms: C_5  and  C_8
REMARK    3  A    between atoms: C_8  and  C_34
REMARK    4  A    between atoms: N_11  and  C_15
REMARK    5  A    between atoms: C_15  and  C_16
REMARK    6  A    between atoms: C_19  and  C_29
REMARK    7  A    between atoms: C_22  and  C_24
REMARK                            x       y       z     vdW  Elec       q    Type
REMARK                         _______ _______ _______ _____ _____    ______ ____
ROOT
ATOM      1  C   UNL     1       6.602   4.112  -0.040  0.00  0.00    +0.215 C 
ENDROOT
BRANCH   1   5
ATOM      2  C   UNL     1       9.852   5.786  -0.697  0.00  0.00    +0.135 C 
ATOM      3  C   UNL     1       8.570   5.128  -1.169  0.00  0.00    +0.251 C 
ATOM      4  O   UNL     1       8.216   4.953  -2.315  0.00  0.00    -0.272 OA
ATOM      5  N   UNL     1       7.905   4.781  -0.050  0.00  0.00    -0.215 N 
ATOM      6  C   UNL     1       8.585   5.118   1.052  0.00  0.00    +0.310 C 
ATOM      7  O   UNL     1       8.190   4.904   2.182  0.00  0.00    -0.252 OA
ATOM      8  N   UNL     1       9.755   5.720   0.771  0.00  0.00    -0.281 N 
ATOM      9  C   UNL     1      11.070   5.004  -1.192  0.00  0.00    +0.047 C 
ATOM     10  H   UNL     1      10.406   6.048   1.410  0.00  0.00    +0.152 HD
BRANCH   2  15
ATOM     11  C   UNL     1      10.112  11.278  -2.474  0.00  0.00    +0.044 C 
ATOM     12  C   UNL     1      10.044   9.846  -2.011  0.00  0.00    -0.050 A 
ATOM     13  C   UNL     1      10.582   9.489  -0.788  0.00  0.00    +0.004 A 
ATOM     14  C   UNL     1      10.519   8.175  -0.363  0.00  0.00    +0.006 A 
ATOM     15  C   UNL     1       9.920   7.218  -1.161  0.00  0.00    -0.015 A 
ATOM     16  C   UNL     1       9.387   7.574  -2.386  0.00  0.00    +0.006 A 
ATOM     17  C   UNL     1       9.445   8.889  -2.809  0.00  0.00    +0.004 A 
ENDBRANCH   2  15
ENDBRANCH   1   5
BRANCH   1  18
ATOM     18  C   UNL     1       5.506   5.147  -0.024  0.00  0.00    +0.253 C 
ATOM     19  O   UNL     1       5.787   6.328  -0.020  0.00  0.00    -0.272 OA
ATOM     20  N   UNL     1       4.215   4.761  -0.013  0.00  0.00    -0.183 N 
ATOM     21  C   UNL     1       3.053   5.663   0.004  0.00  0.00    +0.143 C 
ATOM     22  C   UNL     1       1.848   4.702   0.010  0.00  0.00    +0.088 C 
ATOM     23  C   UNL     1       2.477   3.327  -0.004  0.00  0.00    +0.075 C 
ATOM     24  N   UNL     1       3.763   3.443  -0.010  0.00  0.00    -0.180 NA
BRANCH  23  25
ATOM     25  C   UNL     1       1.741   2.059  -0.004  0.00  0.00    +0.035 A 
ATOM     26  C   UNL     1       2.233   0.765  -0.015  0.00  0.00    +0.017 A 
ATOM     27  C   UNL     1       1.333  -0.276  -0.012  0.00  0.00    +0.008 A 
ATOM     28  C   UNL     1       0.002  -0.004   0.002  0.00  0.00    +0.046 A 
ATOM     29  S   UNL     1      -0.022   1.781   0.012  0.00  0.00    -0.095 S 
ENDBRANCH  23  25
BRANCH  21  30
ATOM     30  C   UNL     1       3.035   6.527  -1.231  0.00  0.00    +0.013 A 
ATOM     31  C   UNL     1       2.610   7.807  -1.371  0.00  0.00    +0.013 A 
ATOM     32  C   UNL     1       2.692   8.408  -2.613  0.00  0.00    +0.008 A 
ATOM     33  C   UNL     1       3.185   7.697  -3.656  0.00  0.00    +0.045 A 
ATOM     34  S   UNL     1       3.560   6.129  -2.890  0.00  0.00    -0.100 S 
ENDBRANCH  21  30
ENDBRANCH   1  18
TORSDOF 5
