REMARK  Name = ZINC39947257
REMARK  6 active torsions:
REMARK  status: ('A' for Active; 'I' for Inactive)
REMARK    1  A    between atoms: C_10  and  N_12
REMARK    2  A    between atoms: C_13  and  C_15
REMARK    3  A    between atoms: C_15  and  S_16
REMARK    4  A    between atoms: S_16  and  C_17
REMARK    5  A    between atoms: C_21  and  C_26
REMARK    6  A    between atoms: N_22  and  C_23
REMARK                            x       y       z     vdW  Elec       q    Type
REMARK                         _______ _______ _______ _____ _____    ______ ____
ROOT
ATOM      1  C   UNL     1       8.179   3.997   1.779  0.00  0.00    +0.237 C 
ATOM      2  N   UNL     1       7.524   4.492   3.001  0.00  0.00    -0.237 N 
ATOM      3  N   UNL     1       7.915   3.636   4.037  0.00  0.00    -0.169 NA
ATOM      4  C   UNL     1       8.714   2.698   3.601  0.00  0.00    +0.147 C 
ATOM      5  N   UNL     1       8.947   2.823   2.226  0.00  0.00    -0.282 N 
ATOM      6  H   UNL     1       6.936   5.261   3.074  0.00  0.00    +0.171 HD
ENDROOT
BRANCH   4   7
ATOM      7  C   UNL     1       9.271   1.694   4.409  0.00  0.00    +0.022 C 
ATOM      8  C   UNL     1       9.005   1.453   5.757  0.00  0.00    +0.006 A 
ATOM      9  C   UNL     1       8.156   2.086   6.689  0.00  0.00    +0.010 A 
ATOM     10  C   UNL     1       8.096   1.627   7.966  0.00  0.00    +0.001 A 
ATOM     11  C   UNL     1       8.859   0.535   8.387  0.00  0.00    +0.002 A 
ATOM     12  C   UNL     1       9.696  -0.120   7.545  0.00  0.00    +0.026 A 
ATOM     13  C   UNL     1       9.811   0.302   6.196  0.00  0.00    +0.043 A 
ATOM     14  N   UNL     1      10.539  -0.158   5.197  0.00  0.00    -0.380 N 
ATOM     15  C   UNL     1      10.278   0.643   3.998  0.00  0.00    +0.152 C 
ATOM     16  H   UNL     1      11.149  -0.912   5.247  0.00  0.00    +0.160 HD
ENDBRANCH   4   7
BRANCH   5  17
ATOM     17  C   UNL     1       9.788   1.958   1.394  0.00  0.00    +0.078 C 
ATOM     18  C   UNL     1       9.967   2.348  -0.074  0.00  0.00    +0.024 C 
ATOM     19  C   UNL     1       9.098   1.145   0.298  0.00  0.00    +0.024 C 
ENDBRANCH   5  17
BRANCH   1  20
ATOM     20  S   UNL     1       6.940   3.512   0.546  0.00  0.00    -0.109 S 
BRANCH  20  21
ATOM     21  C   UNL     1       5.926   2.278   1.405  0.00  0.00    +0.168 C 
BRANCH  21  23
ATOM     22  N   UNL     1       3.962   0.858   0.906  0.00  0.00    -0.308 N 
ATOM     23  C   UNL     1       4.843   1.786   0.480  0.00  0.00    +0.223 C 
ATOM     24  O   UNL     1       4.763   2.224  -0.648  0.00  0.00    -0.275 OA
ATOM     25  H   UNL     1       4.026   0.507   1.808  0.00  0.00    +0.149 HD
BRANCH  22  35
ATOM     26  C   UNL     1      -0.344   3.151   0.179  0.00  0.00    +0.000 A 
ATOM     27  C   UNL     1       0.965   3.596   0.152  0.00  0.00    +0.000 A 
ATOM     28  C   UNL     1       1.998   2.683   0.098  0.00  0.00    +0.006 A 
ATOM     29  C   UNL     1       1.735   1.320   0.073  0.00  0.00    -0.024 A 
ATOM     30  C   UNL     1       0.432   0.876   0.106  0.00  0.00    -0.042 A 
ATOM     31  C   UNL     1      -0.607   1.797   0.156  0.00  0.00    +0.004 A 
ATOM     32  C   UNL     1       0.073  -0.587   0.098  0.00  0.00    +0.035 C 
ATOM     33  C   UNL     1       1.253  -1.427  -0.385  0.00  0.00    +0.007 C 
ATOM     34  C   UNL     1       2.494  -1.030   0.423  0.00  0.00    +0.027 C 
ATOM     35  C   UNL     1       2.910   0.380   0.007  0.00  0.00    +0.103 C 
ENDBRANCH  22  35
ENDBRANCH  21  23
ENDBRANCH  20  21
ENDBRANCH   1  20
TORSDOF 6
