REMARK  Name = ZINC39538110
REMARK  11 active torsions:
REMARK  status: ('A' for Active; 'I' for Inactive)
REMARK    1  A    between atoms: C_1  and  C_2
REMARK    2  A    between atoms: C_2  and  C_4
REMARK    3  A    between atoms: C_2  and  N_16
REMARK    4  A    between atoms: C_7  and  C_10
REMARK    5  A    between atoms: N_16  and  C_17
REMARK    6  A    between atoms: N_16  and  C_18
REMARK    7  A    between atoms: C_18  and  C_19
REMARK    8  A    between atoms: C_24  and  S_34
REMARK    9  A    between atoms: N_27  and  C_30
REMARK   10  A    between atoms: C_30  and  C_31
REMARK   11  A    between atoms: S_34  and  C_35
REMARK                            x       y       z     vdW  Elec       q    Type
REMARK                         _______ _______ _______ _____ _____    ______ ____
ROOT
ATOM      1  C   UNL     1       0.626  -1.943  -1.285  0.00  0.00    -0.037 C 
ENDROOT
BRANCH   1   2
ATOM      2  C   UNL     1       1.341  -2.429  -2.520  0.00  0.00    +0.001 A 
ATOM      3  C   UNL     1       2.633  -2.834  -2.435  0.00  0.00    +0.017 A 
ATOM      4  C   UNL     1       3.293  -3.289  -3.605  0.00  0.00    -0.001 A 
ATOM      5  C   UNL     1       4.628  -3.717  -3.556  0.00  0.00    +0.011 A 
ATOM      6  C   UNL     1       5.244  -4.151  -4.691  0.00  0.00    +0.015 A 
ATOM      7  C   UNL     1       4.556  -4.174  -5.907  0.00  0.00    +0.010 A 
ATOM      8  C   UNL     1       3.236  -3.755  -5.976  0.00  0.00    +0.041 A 
ATOM      9  C   UNL     1       2.594  -3.311  -4.829  0.00  0.00    +0.053 A 
ATOM     10  N   UNL     1       1.280  -2.891  -4.873  0.00  0.00    -0.303 N 
ATOM     11  C   UNL     1       0.663  -2.465  -3.755  0.00  0.00    +0.253 A 
ATOM     12  O   UNL     1      -0.500  -2.102  -3.812  0.00  0.00    -0.267 OA
BRANCH   7  13
ATOM     13  S   UNL     1       5.372  -4.739  -7.363  0.00  0.00    -0.129 S 
ATOM     14  C   UNL     1       7.040  -5.169  -6.793  0.00  0.00    +0.090 C 
ENDBRANCH   7  13
BRANCH  10  15
ATOM     15  C   UNL     1       0.551  -2.913  -6.144  0.00  0.00    +0.172 C 
BRANCH  15  16
ATOM     16  C   UNL     1      -0.132  -4.246  -6.308  0.00  0.00    +0.031 C 
ATOM     17  C   UNL     1      -1.442  -4.313  -6.330  0.00  0.00    +0.027 C 
ATOM     18 CL   UNL     1       0.815  -5.692  -6.470  0.00  0.00    -0.087 Cl
ENDBRANCH  15  16
ENDBRANCH  10  15
ENDBRANCH   1   2
BRANCH   1  19
ATOM     19  N   UNL     1       0.710  -0.478  -1.216  0.00  0.00    +0.384 N 
ATOM     20  C   UNL     1       2.107  -0.076  -1.008  0.00  0.00    -0.095 C 
ATOM     21  H   UNL     1       0.370  -0.080  -2.079  0.00  0.00    -0.081 HD
BRANCH  19  23
ATOM     22  C   UNL     1       0.437  -0.551   1.216  0.00  0.00    -0.011 C 
ATOM     23  C   UNL     1      -0.111   0.007  -0.098  0.00  0.00    -0.049 C 
BRANCH  23  24
ATOM     24  C   UNL     1      -0.069   1.536  -0.060  0.00  0.00    +0.081 C 
ATOM     25  C   UNL     1      -0.642   2.128  -1.363  0.00  0.00    +0.079 C 
ATOM     26  C   UNL     1      -1.835   2.934  -0.903  0.00  0.00    +0.068 C 
ATOM     27  N   UNL     1      -1.948   2.844   0.377  0.00  0.00    -0.191 NA
ATOM     28  N   UNL     1      -0.969   2.053   0.983  0.00  0.00    -0.267 N 
ATOM     29  H   UNL     1      -0.894   1.873   1.933  0.00  0.00    +0.168 HD
BRANCH  26  30
ATOM     30  C   UNL     1      -2.732   3.705  -1.784  0.00  0.00    -0.002 A 
ATOM     31  C   UNL     1      -2.514   3.724  -3.164  0.00  0.00    +0.010 A 
ATOM     32  C   UNL     1      -3.357   4.447  -3.982  0.00  0.00    +0.001 A 
ATOM     33  C   UNL     1      -4.417   5.152  -3.439  0.00  0.00    +0.000 A 
ATOM     34  C   UNL     1      -4.639   5.137  -2.073  0.00  0.00    +0.001 A 
ATOM     35  C   UNL     1      -3.807   4.414  -1.244  0.00  0.00    +0.010 A 
ENDBRANCH  26  30
ENDBRANCH  23  24
ENDBRANCH  19  23
ENDBRANCH   1  19
TORSDOF 8
