REMARK  Name = ZINC09234002
REMARK  4 active torsions:
REMARK  status: ('A' for Active; 'I' for Inactive)
REMARK    1  A    between atoms: C_4  and  C_7
REMARK    2  A    between atoms: N_20  and  C_21
REMARK    3  A    between atoms: C_21  and  C_22
REMARK    4  A    between atoms: N_24  and  C_25
REMARK                            x       y       z     vdW  Elec       q    Type
REMARK                         _______ _______ _______ _____ _____    ______ ____
ROOT
ATOM      1  C   UNL     1       0.228  -2.693   0.106  0.00  0.00    +0.145 A 
ATOM      2  N   UNL     1       1.362  -2.009   0.096  0.00  0.00    -0.222 NA
ATOM      3  C   UNL     1       1.277  -0.686   0.132  0.00  0.00    +0.116 A 
ATOM      4  C   UNL     1       0.056   0.025   0.181  0.00  0.00    +0.076 A 
ATOM      5  C   UNL     1       0.161   1.473   0.216  0.00  0.00    -0.023 A 
ATOM      6  C   UNL     1       1.411   1.992   0.198  0.00  0.00    -0.004 A 
ATOM      7  S   UNL     1       2.497   0.589   0.134  0.00  0.00    -0.073 S 
ATOM      8  C   UNL     1       1.792   3.441   0.225  0.00  0.00    +0.043 C 
ATOM      9  C   UNL     1       0.545   4.277  -0.095  0.00  0.00    +0.005 C 
ATOM     10  C   UNL     1      -0.620   3.769   0.760  0.00  0.00    +0.005 C 
ATOM     11  C   UNL     1      -1.059   2.389   0.276  0.00  0.00    +0.037 C 
ATOM     12  C   UNL     1      -1.154  -0.747   0.192  0.00  0.00    +0.263 A 
ATOM     13  O   UNL     1      -2.255  -0.226   0.233  0.00  0.00    -0.267 OA
ATOM     14  N   UNL     1      -0.996  -2.091   0.152  0.00  0.00    -0.283 N 
ENDROOT
BRANCH   1  18
ATOM     15  C   UNL     1       0.408  -6.934  -0.009  0.00  0.00    +0.000 A 
ATOM     16  C   UNL     1      -0.323  -6.250  -0.964  0.00  0.00    +0.001 A 
ATOM     17  C   UNL     1      -0.386  -4.872  -0.932  0.00  0.00    +0.011 A 
ATOM     18  C   UNL     1       0.290  -4.169   0.067  0.00  0.00    +0.018 A 
ATOM     19  C   UNL     1       1.030  -4.865   1.024  0.00  0.00    +0.011 A 
ATOM     20  C   UNL     1       1.080  -6.243   0.984  0.00  0.00    +0.001 A 
ENDBRANCH   1  18
BRANCH  14  21
ATOM     21  C   UNL     1      -2.192  -2.937   0.160  0.00  0.00    +0.222 C 
BRANCH  21  22
ATOM     22  C   UNL     1      -2.636  -3.167   1.581  0.00  0.00    +0.237 C 
ATOM     23  O   UNL     1      -2.014  -2.672   2.498  0.00  0.00    -0.274 OA
ATOM     24  N   UNL     1      -3.723  -3.921   1.834  0.00  0.00    -0.283 N 
ATOM     25  H   UNL     1      -4.172  -4.385   1.109  0.00  0.00    +0.155 HD
BRANCH  24  26
ATOM     26  C   UNL     1      -4.205  -4.037   3.140  0.00  0.00    +0.041 A 
ATOM     27  C   UNL     1      -3.946  -3.050   4.066  0.00  0.00    +0.024 A 
ATOM     28  C   UNL     1      -4.421  -3.155   5.370  0.00  0.00    +0.002 A 
ATOM     29  C   UNL     1      -5.153  -4.233   5.766  0.00  0.00    +0.008 A 
ATOM     30  C   UNL     1      -5.439  -5.261   4.853  0.00  0.00    -0.016 A 
ATOM     31  C   UNL     1      -4.965  -5.162   3.521  0.00  0.00    +0.003 A 
ATOM     32  C   UNL     1      -5.247  -6.193   2.611  0.00  0.00    +0.010 A 
ATOM     33  C   UNL     1      -5.979  -7.268   3.015  0.00  0.00    +0.001 A 
ATOM     34  C   UNL     1      -6.450  -7.364   4.324  0.00  0.00    +0.001 A 
ATOM     35  C   UNL     1      -6.191  -6.386   5.234  0.00  0.00    +0.008 A 
ENDBRANCH  24  26
ENDBRANCH  21  22
ENDBRANCH  14  21
TORSDOF 4
