REMARK  Name = ZINC22364690
REMARK  11 active torsions:
REMARK  status: ('A' for Active; 'I' for Inactive)
REMARK    1  A    between atoms: C_1  and  C_2
REMARK    2  A    between atoms: C_5  and  C_28
REMARK    3  A    between atoms: C_6  and  C_8
REMARK    4  A    between atoms: C_8  and  C_10
REMARK    5  A    between atoms: C_8  and  N_11
REMARK    6  A    between atoms: C_12  and  C_14
REMARK    7  A    between atoms: C_14  and  N_15
REMARK    8  A    between atoms: N_15  and  C_16
REMARK    9  A    between atoms: N_15  and  S_24
REMARK   10  A    between atoms: C_20  and  C_22
REMARK   11  A    between atoms: S_24  and  C_27
REMARK                            x       y       z     vdW  Elec       q    Type
REMARK                         _______ _______ _______ _____ _____    ______ ____
ROOT
ATOM      1  N   UNL     1       1.239   1.344   0.169  0.00  0.00    -0.307 N 
ATOM      2  C   UNL     1      -0.011   0.840   0.151  0.00  0.00    +0.233 C 
ATOM      3  O   UNL     1      -0.183  -0.357   0.235  0.00  0.00    -0.274 OA
ATOM      4  H   UNL     1       1.395   2.431   0.093  0.00  0.00    +0.149 HD
ENDROOT
BRANCH   1   5
ATOM      5  C   UNL     1       2.390   0.446   0.290  0.00  0.00    +0.100 C 
ATOM      6  C   UNL     1       2.648   0.144   1.768  0.00  0.00    +0.033 C 
BRANCH   5  12
ATOM      7  C   UNL     1       4.878   4.590  -1.007  0.00  0.00    +0.044 C 
ATOM      8  C   UNL     1       4.797   3.087  -0.928  0.00  0.00    -0.050 A 
ATOM      9  C   UNL     1       5.838   2.312  -1.404  0.00  0.00    +0.003 A 
ATOM     10  C   UNL     1       5.764   0.934  -1.332  0.00  0.00    +0.004 A 
ATOM     11  C   UNL     1       4.649   0.330  -0.780  0.00  0.00    -0.046 A 
ATOM     12  C   UNL     1       3.606   1.104  -0.308  0.00  0.00    -0.024 A 
ATOM     13  C   UNL     1       3.681   2.483  -0.380  0.00  0.00    +0.009 A 
ATOM     14  C   UNL     1       4.571  -1.173  -0.696  0.00  0.00    +0.044 C 
ENDBRANCH   5  12
ENDBRANCH   1   5
BRANCH   2  15
ATOM     15  C   UNL     1      -1.194   1.764   0.020  0.00  0.00    +0.226 C 
BRANCH  15  16
ATOM     16  N   UNL     1      -2.430   0.977   0.019  0.00  0.00    -0.199 N 
BRANCH  16  17
ATOM     17  C   UNL     1      -2.903   0.421  -1.172  0.00  0.00    +0.052 A 
ATOM     18  C   UNL     1      -3.040  -0.957  -1.291  0.00  0.00    +0.026 A 
ATOM     19  C   UNL     1      -3.512  -1.503  -2.468  0.00  0.00    +0.017 A 
ATOM     20  C   UNL     1      -3.838  -0.681  -3.532  0.00  0.00    +0.021 A 
ATOM     21  C   UNL     1      -3.698   0.690  -3.419  0.00  0.00    -0.035 A 
ATOM     22  C   UNL     1      -3.231   1.243  -2.242  0.00  0.00    +0.029 A 
ATOM     23  C   UNL     1      -4.055   1.582  -4.580  0.00  0.00    +0.045 C 
ATOM     24 BR   UNL     1      -4.478  -1.435  -5.144  0.00  0.00    -0.050 Br
ENDBRANCH  16  17
BRANCH  16  25
ATOM     25  S   UNL     1      -3.267   0.748   1.429  0.00  0.00    +0.043 S 
ATOM     26  O   UNL     1      -4.075  -0.397   1.190  0.00  0.00    -0.155 OA
ATOM     27  O   UNL     1      -2.271   0.732   2.443  0.00  0.00    -0.155 OA
ATOM     28  C   UNL     1      -4.308   2.223   1.599  0.00  0.00    +0.218 C 
ENDBRANCH  16  25
ENDBRANCH  15  16
ENDBRANCH   2  15
TORSDOF 6
