REMARK  Name = ZINC09962968
REMARK  16 active torsions:
REMARK  status: ('A' for Active; 'I' for Inactive)
REMARK    1  A    between atoms: C_1  and  C_2
REMARK    2  A    between atoms: N_5  and  S_8
REMARK    3  A    between atoms: S_8  and  C_11
REMARK    4  A    between atoms: N_17  and  C_22
REMARK    5  A    between atoms: C_22  and  C_23
REMARK    6  A    between atoms: N_25  and  C_26
REMARK    7  A    between atoms: C_26  and  C_27
REMARK    8  A    between atoms: C_27  and  N_28
REMARK    9  A    between atoms: N_28  and  C_29
REMARK   10  A    between atoms: N_28  and  C_33
REMARK   11  A    between atoms: C_29  and  C_30
REMARK   12  A    between atoms: C_30  and  C_31
REMARK   13  A    between atoms: C_30  and  C_32
REMARK   14  A    between atoms: C_33  and  C_34
REMARK   15  A    between atoms: C_34  and  C_35
REMARK   16  A    between atoms: C_34  and  C_36
REMARK                            x       y       z     vdW  Elec       q    Type
REMARK                         _______ _______ _______ _____ _____    ______ ____
ROOT
ATOM      1  C   UNL     1      -0.908  -5.225   1.496  0.00  0.00    +0.107 A 
ATOM      2  C   UNL     1      -1.655  -5.896   0.545  0.00  0.00    +0.032 A 
ATOM      3  C   UNL     1      -1.165  -7.051  -0.038  0.00  0.00    +0.049 A 
ATOM      4  C   UNL     1       0.076  -7.537   0.332  0.00  0.00    +0.143 A 
ATOM      5  C   UNL     1       0.829  -6.861   1.291  0.00  0.00    +0.081 A 
ATOM      6  C   UNL     1       0.336  -5.702   1.867  0.00  0.00    +0.055 A 
ATOM      7  N   UNL     1       2.084  -7.365   1.658  0.00  0.00    -0.256 N 
ATOM      8  C   UNL     1       2.673  -8.292   0.872  0.00  0.00    +0.258 C 
ATOM      9  O   UNL     1       3.744  -8.766   1.186  0.00  0.00    -0.271 OA
ATOM     10  C   UNL     1       1.992  -8.736  -0.398  0.00  0.00    +0.325 C 
ATOM     11  O   UNL     1       0.574  -8.670  -0.231  0.00  0.00    -0.481 OA
ENDROOT
BRANCH   1  12
ATOM     12  S   UNL     1      -1.541  -3.754   2.232  0.00  0.00    +0.061 S 
ATOM     13  O   UNL     1      -0.885  -3.613   3.485  0.00  0.00    -0.153 OA
ATOM     14  O   UNL     1      -2.956  -3.818   2.116  0.00  0.00    -0.153 OA
BRANCH  12  19
ATOM     15  C   UNL     1      -0.997   1.712   0.590  0.00  0.00    +0.007 C 
ATOM     16  C   UNL     1      -0.764   0.206   0.464  0.00  0.00    -0.012 C 
ATOM     17  C   UNL     1      -2.111  -0.509   0.333  0.00  0.00    +0.020 C 
ATOM     18  C   UNL     1      -1.872  -2.014   0.172  0.00  0.00    +0.110 C 
ATOM     19  N   UNL     1      -1.045  -2.484   1.292  0.00  0.00    -0.177 NA
ATOM     20  C   UNL     1       0.230  -1.806   1.563  0.00  0.00    +0.110 C 
ATOM     21  C   UNL     1      -0.033  -0.303   1.708  0.00  0.00    +0.020 C 
ENDBRANCH  12  19
ENDBRANCH   1  12
BRANCH   7  22
ATOM     22  C   UNL     1       2.748  -6.894   2.876  0.00  0.00    +0.209 C 
BRANCH  22  23
ATOM     23  C   UNL     1       2.343  -7.764   4.038  0.00  0.00    +0.231 C 
ATOM     24  O   UNL     1       1.576  -8.687   3.866  0.00  0.00    -0.274 OA
ATOM     25  N   UNL     1       2.834  -7.516   5.269  0.00  0.00    -0.316 N 
ATOM     26  H   UNL     1       3.447  -6.778   5.407  0.00  0.00    +0.149 HD
BRANCH  25  27
ATOM     27  C   UNL     1       2.440  -8.362   6.398  0.00  0.00    +0.086 C 
BRANCH  27  28
ATOM     28  C   UNL     1       3.133  -7.870   7.670  0.00  0.00    -0.060 C 
BRANCH  28  29
ATOM     29  N   UNL     1       2.739  -8.718   8.803  0.00  0.00    +0.381 N 
ATOM     30  H   UNL     1       1.732  -8.736   8.874  0.00  0.00    -0.082 HD
BRANCH  29  31
ATOM     31  C   UNL     1       3.240 -10.082   8.590  0.00  0.00    -0.076 C 
BRANCH  31  32
ATOM     32  C   UNL     1       2.711 -10.998   9.696  0.00  0.00    -0.034 C 
ATOM     33  C   UNL     1       1.185 -11.071   9.611  0.00  0.00    +0.005 C 
ATOM     34  C   UNL     1       3.299 -12.399   9.523  0.00  0.00    +0.005 C 
ENDBRANCH  31  32
ENDBRANCH  29  31
BRANCH  29  35
ATOM     35  C   UNL     1       3.308  -8.174  10.043  0.00  0.00    -0.076 C 
BRANCH  35  36
ATOM     36  C   UNL     1       2.680  -6.811  10.338  0.00  0.00    -0.034 C 
ATOM     37  C   UNL     1       1.188  -6.988  10.628  0.00  0.00    +0.005 C 
ATOM     38  C   UNL     1       3.366  -6.186  11.554  0.00  0.00    +0.005 C 
ENDBRANCH  35  36
ENDBRANCH  29  35
ENDBRANCH  28  29
ENDBRANCH  27  28
ENDBRANCH  25  27
ENDBRANCH  22  23
ENDBRANCH   7  22
TORSDOF 11
