REMARK  Name = ZINC41586273
REMARK  8 active torsions:
REMARK  status: ('A' for Active; 'I' for Inactive)
REMARK    1  A    between atoms: C_1  and  C_2
REMARK    2  A    between atoms: C_2  and  O_3
REMARK    3  A    between atoms: O_3  and  C_4
REMARK    4  A    between atoms: C_4  and  C_6
REMARK    5  A    between atoms: N_9  and  C_12
REMARK    6  A    between atoms: C_12  and  C_13
REMARK    7  A    between atoms: C_14  and  O_35
REMARK    8  A    between atoms: C_23  and  C_24
REMARK                            x       y       z     vdW  Elec       q    Type
REMARK                         _______ _______ _______ _____ _____    ______ ____
ROOT
ATOM      1  C   UNL     1       4.530  -6.111   4.402  0.00  0.00    +0.020 A 
ATOM      2  C   UNL     1       3.557  -6.938   4.939  0.00  0.00    +0.122 A 
ATOM      3  C   UNL     1       3.614  -8.316   4.745  0.00  0.00    +0.046 A 
ATOM      4  C   UNL     1       4.633  -8.869   4.022  0.00  0.00    +0.016 A 
ATOM      5  C   UNL     1       5.621  -8.049   3.475  0.00  0.00    +0.026 A 
ATOM      6  C   UNL     1       5.567  -6.657   3.662  0.00  0.00    +0.144 A 
ATOM      7  O   UNL     1       6.522  -5.866   3.126  0.00  0.00    -0.422 OA
ATOM      8  C   UNL     1       7.537  -6.367   2.405  0.00  0.00    +0.338 A 
ATOM      9  O   UNL     1       8.370  -5.604   1.946  0.00  0.00    -0.245 OA
ATOM     10  C   UNL     1       7.667  -7.742   2.164  0.00  0.00    +0.101 A 
ATOM     11  C   UNL     1       6.732  -8.618   2.691  0.00  0.00    +0.006 A 
ENDROOT
BRANCH  11  12
ATOM     12  C   UNL     1       6.834 -10.072   2.460  0.00  0.00    +0.068 A 
ATOM     13  C   UNL     1       7.933 -10.795   2.898  0.00  0.00    +0.027 A 
ATOM     14  C   UNL     1       7.976 -12.184   2.610  0.00  0.00    +0.018 A 
ATOM     15  C   UNL     1       8.954 -13.002   3.194  0.00  0.00    +0.011 A 
ATOM     16  C   UNL     1       8.956 -14.344   2.940  0.00  0.00    +0.001 A 
ATOM     17  C   UNL     1       8.003 -14.905   2.102  0.00  0.00    +0.004 A 
ATOM     18  C   UNL     1       7.044 -14.117   1.501  0.00  0.00    +0.047 A 
ATOM     19  C   UNL     1       7.026 -12.749   1.739  0.00  0.00    +0.139 A 
ATOM     20  O   UNL     1       6.116 -11.957   1.122  0.00  0.00    -0.422 OA
ATOM     21  C   UNL     1       5.769 -10.813   1.760  0.00  0.00    +0.345 A 
ATOM     22  O   UNL     1       4.622 -10.408   1.752  0.00  0.00    -0.245 OA
ENDBRANCH  11  12
BRANCH   2  23
ATOM     23  O   UNL     1       2.539  -6.401   5.660  0.00  0.00    -0.506 OA
ATOM     24  H   UNL     1       1.766  -6.162   5.131  0.00  0.00    +0.292 HD
ENDBRANCH   2  23
BRANCH   1  25
ATOM     25  C   UNL     1       4.458  -4.621   4.618  0.00  0.00    -0.036 C 
BRANCH  25  29
ATOM     26  C   UNL     1       1.516  -2.381   2.500  0.00  0.00    +0.094 C 
ATOM     27  C   UNL     1       2.969  -1.898   2.507  0.00  0.00    -0.004 C 
ATOM     28  C   UNL     1       3.711  -2.546   3.678  0.00  0.00    -0.078 C 
ATOM     29  N   UNL     1       3.679  -4.006   3.534  0.00  0.00    +0.383 N 
ATOM     30  C   UNL     1       2.293  -4.484   3.598  0.00  0.00    -0.078 C 
ATOM     31  C   UNL     1       1.497  -3.910   2.424  0.00  0.00    -0.004 C 
ATOM     32  H   UNL     1       4.082  -4.264   2.646  0.00  0.00    -0.081 HD
BRANCH  26  33
ATOM     33  C   UNL     1       0.801  -1.808   1.304  0.00  0.00    +0.310 C 
ATOM     34  O   UNL     1       0.324  -2.546   0.475  0.00  0.00    -0.251 OA
BRANCH  33  35
ATOM     35  O   UNL     1       0.693  -0.477   1.160  0.00  0.00    -0.465 OA
BRANCH  35  37
ATOM     36  C   UNL     1      -0.019   1.526   0.010  0.00  0.00    +0.048 C 
ATOM     37  C   UNL     1       0.002  -0.004   0.002  0.00  0.00    +0.229 C 
ENDBRANCH  35  37
ENDBRANCH  33  35
ENDBRANCH  26  33
ENDBRANCH  25  29
ENDBRANCH   1  25
TORSDOF 7
