REMARK  Name = ZINC16164340
REMARK  11 active torsions:
REMARK  status: ('A' for Active; 'I' for Inactive)
REMARK    1  A    between atoms: C_1  and  C_2
REMARK    2  A    between atoms: C_7  and  N_8
REMARK    3  A    between atoms: C_9  and  C_11
REMARK    4  A    between atoms: C_11  and  C_13
REMARK    5  A    between atoms: C_11  and  O_14
REMARK    6  A    between atoms: O_14  and  C_15
REMARK    7  A    between atoms: C_15  and  C_17
REMARK    8  A    between atoms: N_22  and  S_24
REMARK    9  A    between atoms: S_24  and  C_27
REMARK   10  A    between atoms: C_28  and  C_33
REMARK   11  A    between atoms: C_31  and  C_32
REMARK                            x       y       z     vdW  Elec       q    Type
REMARK                         _______ _______ _______ _____ _____    ______ ____
ROOT
ATOM      1  C   UNL     1       5.640   3.783  -3.755  0.00  0.00    +0.312 C 
ATOM      2  O   UNL     1       4.978   4.789  -3.851  0.00  0.00    -0.250 OA
ENDROOT
BRANCH   1   3
ATOM      3  C   UNL     1       5.152   2.638  -2.907  0.00  0.00    +0.113 C 
ATOM      4  C   UNL     1       4.984   1.391  -3.779  0.00  0.00    +0.017 C 
ATOM      5  C   UNL     1       4.520   0.219  -2.912  0.00  0.00    +0.018 C 
ATOM      6  C   UNL     1       3.168   0.556  -2.285  0.00  0.00    +0.109 C 
ATOM      7  N   UNL     1       3.280   1.832  -1.565  0.00  0.00    -0.176 NA
ATOM      8  C   UNL     1       3.802   3.004  -2.281  0.00  0.00    +0.124 C 
BRANCH   7   9
ATOM      9  S   UNL     1       2.831   1.946   0.025  0.00  0.00    +0.066 S 
ATOM     10  O   UNL     1       3.548   3.045   0.572  0.00  0.00    -0.153 OA
ATOM     11  O   UNL     1       2.918   0.635   0.566  0.00  0.00    -0.153 OA
BRANCH   9  12
ATOM     12  C   UNL     1       1.127   2.392   0.055  0.00  0.00    +0.170 A 
ATOM     13  C   UNL     1       0.003   1.534   0.068  0.00  0.00    +0.107 A 
ATOM     14  N   UNL     1      -1.047   2.304   0.084  0.00  0.00    -0.081 NA
ATOM     15  O   UNL     1      -0.741   3.474   0.093  0.00  0.00    -0.358 OA
ATOM     16  C   UNL     1       0.590   3.635   0.072  0.00  0.00    +0.161 A 
ATOM     17  C   UNL     1       1.340   4.942   0.068  0.00  0.00    +0.091 C 
ATOM     18  C   UNL     1       0.017   0.027   0.057  0.00  0.00    +0.071 C 
ENDBRANCH   9  12
ENDBRANCH   7   9
ENDBRANCH   1   3
BRANCH   1  19
ATOM     19  O   UNL     1       6.811   3.686  -4.405  0.00  0.00    -0.452 OA
BRANCH  19  20
ATOM     20  C   UNL     1       7.218   4.828  -5.204  0.00  0.00    +0.259 C 
ATOM     21  C   UNL     1       6.681   4.672  -6.628  0.00  0.00    +0.062 C 
BRANCH  20  23
ATOM     22  N   UNL     1       9.330   5.946  -5.842  0.00  0.00    -0.282 N 
ATOM     23  C   UNL     1       8.723   4.904  -5.241  0.00  0.00    +0.258 C 
ATOM     24  O   UNL     1       9.387   4.028  -4.729  0.00  0.00    -0.271 OA
ATOM     25  H   UNL     1       8.803   6.605  -6.321  0.00  0.00    +0.155 HD
BRANCH  22  32
ATOM     26  C   UNL     1      10.640   7.404  -7.904  0.00  0.00    +0.045 C 
ATOM     27  C   UNL     1      11.401   6.781  -6.763  0.00  0.00    -0.029 A 
ATOM     28  C   UNL     1      12.774   6.915  -6.692  0.00  0.00    +0.006 A 
ATOM     29  C   UNL     1      13.474   6.338  -5.649  0.00  0.00    +0.020 A 
ATOM     30  C   UNL     1      12.801   5.631  -4.668  0.00  0.00    +0.043 A 
ATOM     31  C   UNL     1      11.427   5.499  -4.729  0.00  0.00    +0.043 A 
ATOM     32  C   UNL     1      10.722   6.077  -5.777  0.00  0.00    +0.038 A 
ATOM     33 CL   UNL     1      13.684   4.909  -3.359  0.00  0.00    -0.083 Cl
ENDBRANCH  22  32
ENDBRANCH  20  23
ENDBRANCH  19  20
ENDBRANCH   1  19
TORSDOF 7
