REMARK  Name = ZINC27538904
REMARK  6 active torsions:
REMARK  status: ('A' for Active; 'I' for Inactive)
REMARK    1  A    between atoms: C_1  and  C_2
REMARK    2  A    between atoms: C_2  and  C_4
REMARK    3  A    between atoms: C_2  and  N_18
REMARK    4  A    between atoms: N_6  and  C_7
REMARK    5  A    between atoms: C_12  and  C_13
REMARK    6  A    between atoms: C_24  and  C_26
REMARK                            x       y       z     vdW  Elec       q    Type
REMARK                         _______ _______ _______ _____ _____    ______ ____
ROOT
ATOM      1  N   UNL     1       3.733   6.009  -0.058  0.00  0.00    +0.389 N 
ATOM      2  C   UNL     1       4.496   5.465   1.073  0.00  0.00    -0.058 C 
ATOM      3  C   UNL     1       5.964   5.887   0.944  0.00  0.00    +0.089 C 
ATOM      4  N   UNL     1       6.018   7.350   0.803  0.00  0.00    -0.302 N 
ATOM      5  C   UNL     1       5.173   7.983  -0.221  0.00  0.00    +0.089 C 
ATOM      6  C   UNL     1       3.737   7.478  -0.047  0.00  0.00    -0.058 C 
ATOM      7  C   UNL     1       6.821   8.092   1.591  0.00  0.00    +0.260 C 
ATOM      8  O   UNL     1       6.853   9.297   1.461  0.00  0.00    -0.271 OA
ATOM      9  H   UNL     1       4.227   5.680  -0.984  0.00  0.00    -0.081 HD
ENDROOT
BRANCH   7  10
ATOM     10  C   UNL     1       7.679   7.424   2.635  0.00  0.00    +0.296 C 
ATOM     11  C   UNL     1       8.742   6.553   1.950  0.00  0.00    +0.283 C 
ATOM     12  O   UNL     1       9.546   5.945   2.967  0.00  0.00    -0.484 OA
ATOM     13  C   UNL     1       9.979   6.756   3.971  0.00  0.00    +0.162 A 
ATOM     14  C   UNL     1      11.031   6.342   4.774  0.00  0.00    +0.049 A 
ATOM     15  C   UNL     1      11.479   7.153   5.800  0.00  0.00    +0.004 A 
ATOM     16  C   UNL     1      10.882   8.379   6.027  0.00  0.00    +0.004 A 
ATOM     17  C   UNL     1       9.834   8.798   5.229  0.00  0.00    +0.049 A 
ATOM     18  C   UNL     1       9.380   7.989   4.197  0.00  0.00    +0.163 A 
ATOM     19  O   UNL     1       8.349   8.417   3.417  0.00  0.00    -0.473 OA
ENDBRANCH   7  10
BRANCH   1  21
ATOM     20  C   UNL     1       1.538   6.196   1.013  0.00  0.00    -0.004 C 
ATOM     21  C   UNL     1       2.360   5.486  -0.066  0.00  0.00    +0.017 C 
BRANCH  21  22
ATOM     22  C   UNL     1       1.736   5.732  -1.415  0.00  0.00    +0.203 C 
ATOM     23  O   UNL     1       2.261   6.499  -2.195  0.00  0.00    -0.277 OA
ATOM     24  N   UNL     1       0.596   5.100  -1.756  0.00  0.00    -0.286 N 
ATOM     25  H   UNL     1       0.083   4.459  -1.024  0.00  0.00    +0.155 HD
BRANCH  24  26
ATOM     26  C   UNL     1       0.064   5.260  -3.041  0.00  0.00    +0.045 A 
ATOM     27  C   UNL     1       0.296   6.432  -3.749  0.00  0.00    +0.025 A 
ATOM     28  C   UNL     1      -0.230   6.587  -5.017  0.00  0.00    +0.022 A 
ATOM     29  C   UNL     1      -0.988   5.575  -5.581  0.00  0.00    +0.042 A 
ATOM     30  C   UNL     1      -1.220   4.407  -4.878  0.00  0.00    +0.034 A 
ATOM     31  C   UNL     1      -0.697   4.247  -3.610  0.00  0.00    +0.077 A 
ATOM     32 CL   UNL     1      -1.648   5.773  -7.175  0.00  0.00    -0.084 Cl
BRANCH  31  33
ATOM     33  C   UNL     1      -0.956   2.976  -2.841  0.00  0.00    +0.419 C 
ATOM     34  F   UNL     1      -1.745   2.117  -3.614  0.00  0.00    -0.166 F 
ATOM     35  F   UNL     1       0.262   2.353  -2.547  0.00  0.00    -0.166 F 
ATOM     36  F   UNL     1      -1.625   3.280  -1.651  0.00  0.00    -0.166 F 
ENDBRANCH  31  33
ENDBRANCH  24  26
ENDBRANCH  21  22
ENDBRANCH   1  21
TORSDOF 5
