REMARK  Name = ZINC20235934
REMARK  10 active torsions:
REMARK  status: ('A' for Active; 'I' for Inactive)
REMARK    1  A    between atoms: C_1  and  C_2
REMARK    2  A    between atoms: C_2  and  O_3
REMARK    3  A    between atoms: O_3  and  C_4
REMARK    4  A    between atoms: C_6  and  C_21
REMARK    5  A    between atoms: C_9  and  O_10
REMARK    6  A    between atoms: O_10  and  C_11
REMARK    7  A    between atoms: C_11  and  C_12
REMARK    8  A    between atoms: C_12  and  O_13
REMARK    9  A    between atoms: O_13  and  C_14
REMARK   10  A    between atoms: C_31  and  C_33
REMARK                            x       y       z     vdW  Elec       q    Type
REMARK                         _______ _______ _______ _____ _____    ______ ____
ROOT
ATOM      1  C   UNL     1      -1.811  -2.117  -0.440  0.00  0.00    +0.162 A 
ATOM      2  C   UNL     1      -0.639  -2.808  -0.208  0.00  0.00    +0.057 A 
ATOM      3  C   UNL     1      -0.633  -4.209  -0.263  0.00  0.00    -0.021 A 
ATOM      4  C   UNL     1      -1.818  -4.899  -0.554  0.00  0.00    +0.012 A 
ATOM      5  C   UNL     1      -2.981  -4.201  -0.784  0.00  0.00    +0.050 A 
ATOM      6  C   UNL     1      -2.987  -2.812  -0.723  0.00  0.00    +0.162 A 
ENDROOT
BRANCH   3   7
ATOM      7  C   UNL     1       0.608  -4.949  -0.018  0.00  0.00    +0.025 C 
ATOM      8  C   UNL     1       0.572  -6.146   0.660  0.00  0.00    +0.084 C 
ATOM      9  C   UNL     1       1.774  -7.028   0.779  0.00  0.00    +0.176 C 
ATOM     10  N   UNL     1       3.001  -6.579   0.811  0.00  0.00    -0.280 NA
ATOM     11  N   UNL     1       1.447  -8.376   0.851  0.00  0.00    -0.142 N 
ATOM     12  C   UNL     1       0.206  -8.787   1.269  0.00  0.00    +0.168 C 
ATOM     13  N   UNL     1      -0.805  -7.960   1.527  0.00  0.00    -0.156 NA
ATOM     14  C   UNL     1      -0.658  -6.640   1.326  0.00  0.00    +0.273 C 
ATOM     15  O   UNL     1      -1.526  -5.858   1.681  0.00  0.00    -0.268 OA
ATOM     16  C   UNL     1       0.253 -10.187   1.337  0.00  0.00    +0.091 C 
ATOM     17  C   UNL     1       1.470 -10.594   0.913  0.00  0.00    +0.134 C 
ATOM     18  O   UNL     1       2.202  -9.521   0.568  0.00  0.00    -0.375 OA
ATOM     19  C   UNL     1       1.933 -12.026   0.839  0.00  0.00    +0.089 C 
ATOM     20  H   UNL     1       3.170  -5.625   0.758  0.00  0.00    +0.188 HD
ENDBRANCH   3   7
BRANCH   1  21
ATOM     21  O   UNL     1      -1.821  -0.758  -0.386  0.00  0.00    -0.489 OA
BRANCH  21  23
ATOM     22  C   UNL     1      -0.788   1.404  -0.074  0.00  0.00    +0.048 C 
ATOM     23  C   UNL     1      -0.581  -0.112  -0.091  0.00  0.00    +0.226 C 
ENDBRANCH  21  23
ENDBRANCH   1  21
BRANCH   6  24
ATOM     24  O   UNL     1      -4.139  -2.130  -0.946  0.00  0.00    -0.485 OA
BRANCH  24  25
ATOM     25  C   UNL     1      -5.306  -2.903  -1.231  0.00  0.00    +0.270 C 
BRANCH  25  26
ATOM     26  C   UNL     1      -6.497  -1.968  -1.452  0.00  0.00    +0.270 C 
BRANCH  26  27
ATOM     27  O   UNL     1      -6.271  -1.178  -2.621  0.00  0.00    -0.489 OA
BRANCH  27  28
ATOM     28  C   UNL     1      -7.241  -0.288  -2.961  0.00  0.00    +0.121 A 
ATOM     29  C   UNL     1      -8.383  -0.174  -2.181  0.00  0.00    +0.047 A 
ATOM     30  C   UNL     1      -9.367   0.731  -2.529  0.00  0.00    +0.019 A 
ATOM     31  C   UNL     1      -9.215   1.523  -3.653  0.00  0.00    +0.018 A 
ATOM     32  C   UNL     1      -8.077   1.410  -4.432  0.00  0.00    +0.019 A 
ATOM     33  C   UNL     1      -7.088   0.510  -4.085  0.00  0.00    +0.047 A 
ATOM     34 BR   UNL     1     -10.564   2.761  -4.126  0.00  0.00    -0.050 Br
ENDBRANCH  27  28
ENDBRANCH  26  27
ENDBRANCH  25  26
ENDBRANCH  24  25
ENDBRANCH   6  24
TORSDOF 8
