REMARK  Name = ZINC38776536
REMARK  12 active torsions:
REMARK  status: ('A' for Active; 'I' for Inactive)
REMARK    1  A    between atoms: C_1  and  C_2
REMARK    2  A    between atoms: C_5  and  C_34
REMARK    3  A    between atoms: C_6  and  C_8
REMARK    4  A    between atoms: C_8  and  O_9
REMARK    5  A    between atoms: O_9  and  C_10
REMARK    6  A    between atoms: C_13  and  C_17
REMARK    7  A    between atoms: C_14  and  O_16
REMARK    8  A    between atoms: C_19  and  O_23
REMARK    9  A    between atoms: O_23  and  C_24
REMARK   10  A    between atoms: C_27  and  C_30
REMARK   11  A    between atoms: C_30  and  O_32
REMARK   12  A    between atoms: O_32  and  C_33
REMARK                            x       y       z     vdW  Elec       q    Type
REMARK                         _______ _______ _______ _____ _____    ______ ____
ROOT
ATOM      1  C   UNL     1       0.573  -2.741   4.592  0.00  0.00    +0.124 A 
ATOM      2  C   UNL     1       0.535  -4.101   4.865  0.00  0.00    +0.046 A 
ATOM      3  C   UNL     1       0.403  -4.543   6.168  0.00  0.00    +0.013 A 
ATOM      4  C   UNL     1       0.307  -3.631   7.202  0.00  0.00    +0.025 A 
ATOM      5  C   UNL     1       0.344  -2.270   6.934  0.00  0.00    +0.126 A 
ATOM      6  C   UNL     1       0.483  -1.825   5.629  0.00  0.00    +0.091 A 
ENDROOT
BRANCH   4   7
ATOM      7  C   UNL     1       0.162  -4.116   8.621  0.00  0.00    +0.199 C 
ATOM      8  C   UNL     1       1.507  -4.124   9.327  0.00  0.00    +0.153 C 
ATOM      9  C   UNL     1       1.694  -5.422   9.640  0.00  0.00    +0.176 C 
ATOM     10  N   UNL     1       0.661  -6.164   9.223  0.00  0.00    -0.182 NA
ATOM     11  N   UNL     1      -0.237  -5.534   8.651  0.00  0.00    -0.294 N 
ATOM     12  H   UNL     1      -1.055  -5.904   8.285  0.00  0.00    +0.184 HD
BRANCH   8  13
ATOM     13  O   UNL     1       2.323  -3.079   9.581  0.00  0.00    -0.456 OA
BRANCH  13  14
ATOM     14  C   UNL     1       1.898  -2.138  10.462  0.00  0.00    +0.128 A 
ATOM     15  C   UNL     1       0.711  -2.329  11.161  0.00  0.00    +0.047 A 
ATOM     16  C   UNL     1       0.277  -1.377  12.056  0.00  0.00    +0.018 A 
ATOM     17  C   UNL     1       1.030  -0.217  12.260  0.00  0.00    +0.059 A 
ATOM     18  C   UNL     1       2.223  -0.029  11.555  0.00  0.00    +0.018 A 
ATOM     19  C   UNL     1       2.653  -0.988  10.666  0.00  0.00    +0.047 A 
BRANCH  17  20
ATOM     20  C   UNL     1       0.568   0.806  13.217  0.00  0.00    +0.339 C 
ATOM     21  O   UNL     1      -0.469   0.641  13.829  0.00  0.00    -0.245 OA
BRANCH  20  22
ATOM     22  O   UNL     1       1.296   1.923  13.414  0.00  0.00    -0.464 OA
ATOM     23  C   UNL     1       0.789   2.870  14.355  0.00  0.00    +0.280 C 
ENDBRANCH  20  22
ENDBRANCH  17  20
ENDBRANCH  13  14
ENDBRANCH   8  13
ENDBRANCH   4   7
BRANCH   5  24
ATOM     24  O   UNL     1       0.250  -1.374   7.952  0.00  0.00    -0.506 OA
ATOM     25  H   UNL     1       1.102  -1.122   8.334  0.00  0.00    +0.292 HD
ENDBRANCH   5  24
BRANCH   1  26
ATOM     26  O   UNL     1       0.703  -2.308   3.311  0.00  0.00    -0.487 OA
BRANCH  26  27
ATOM     27  C   UNL     1       0.790  -3.308   2.294  0.00  0.00    +0.264 C 
BRANCH  27  33
ATOM     28  C   UNL     1       1.108   0.847  -0.478  0.00  0.00    +0.044 C 
ATOM     29  C   UNL     1       1.081  -0.656  -0.378  0.00  0.00    -0.050 A 
ATOM     30  C   UNL     1       1.183  -1.427  -1.521  0.00  0.00    +0.003 A 
ATOM     31  C   UNL     1       1.158  -2.805  -1.430  0.00  0.00    +0.004 A 
ATOM     32  C   UNL     1       1.031  -3.414  -0.195  0.00  0.00    -0.044 A 
ATOM     33  C   UNL     1       0.929  -2.644   0.948  0.00  0.00    -0.007 A 
ATOM     34  C   UNL     1       0.958  -1.265   0.857  0.00  0.00    +0.010 A 
ATOM     35  C   UNL     1       1.002  -4.918  -0.096  0.00  0.00    +0.044 C 
ENDBRANCH  27  33
ENDBRANCH  26  27
ENDBRANCH   1  26
TORSDOF 9
