REMARK  Name = ZINC17101874
REMARK  6 active torsions:
REMARK  status: ('A' for Active; 'I' for Inactive)
REMARK    1  A    between atoms: C_3  and  N_10
REMARK    2  A    between atoms: C_5  and  N_7
REMARK    3  A    between atoms: C_11  and  C_13
REMARK    4  A    between atoms: C_13  and  C_28
REMARK    5  A    between atoms: C_14  and  C_15
REMARK    6  A    between atoms: C_20  and  C_21
REMARK                            x       y       z     vdW  Elec       q    Type
REMARK                         _______ _______ _______ _____ _____    ______ ____
ROOT
ATOM      1  C   UNL     1       1.114   7.454  -0.122  0.00  0.00    +0.114 C 
ATOM      2  C   UNL     1       2.241   8.100   0.343  0.00  0.00    +0.035 C 
ENDROOT
BRANCH   2   3
ATOM      3  C   UNL     1       2.214   9.543   0.571  0.00  0.00    +0.021 A 
ATOM      4  C   UNL     1       1.283  10.446   0.081  0.00  0.00    +0.113 A 
ATOM      5  N   UNL     1       1.620  11.665   0.527  0.00  0.00    -0.284 N 
ATOM      6  H   UNL     1       1.118  12.507   0.333  0.00  0.00    +0.188 HD
ATOM      7  N   UNL     1       2.778  11.581   1.305  0.00  0.00    -0.173 NA
ATOM      8  C   UNL     1       3.172  10.329   1.361  0.00  0.00    +0.100 A 
BRANCH   8   9
ATOM      9  C   UNL     1       4.358   9.809   2.082  0.00  0.00    +0.003 A 
ATOM     10  C   UNL     1       4.313   8.554   2.688  0.00  0.00    +0.011 A 
ATOM     11  C   UNL     1       5.421   8.072   3.353  0.00  0.00    +0.016 A 
ATOM     12  C   UNL     1       6.573   8.837   3.429  0.00  0.00    +0.018 A 
ATOM     13  C   UNL     1       6.621  10.086   2.834  0.00  0.00    +0.016 A 
ATOM     14  C   UNL     1       5.520  10.575   2.162  0.00  0.00    +0.011 A 
ATOM     15 BR   UNL     1       8.085   8.174   4.350  0.00  0.00    -0.050 Br
ENDBRANCH   8   9
ENDBRANCH   2   3
BRANCH   1  17
ATOM     16  N   UNL     1       0.039   5.370  -0.800  0.00  0.00    -0.281 N 
ATOM     17  C   UNL     1       1.140   6.001  -0.346  0.00  0.00    +0.259 C 
ATOM     18  O   UNL     1       2.155   5.369  -0.123  0.00  0.00    -0.269 OA
ATOM     19  H   UNL     1      -0.751   5.881  -1.036  0.00  0.00    +0.155 HD
BRANCH  16  22
ATOM     20  C   UNL     1      -0.537   2.010  -2.177  0.00  0.00    +0.004 A 
ATOM     21  C   UNL     1      -0.535   3.386  -2.051  0.00  0.00    +0.023 A 
ATOM     22  C   UNL     1       0.035   3.978  -0.931  0.00  0.00    +0.036 A 
ATOM     23  C   UNL     1       0.603   3.184   0.057  0.00  0.00    +0.056 A 
ATOM     24  C   UNL     1       0.593   1.809  -0.073  0.00  0.00    +0.128 A 
ATOM     25  C   UNL     1       0.029   1.223  -1.192  0.00  0.00    +0.033 A 
BRANCH  24  26
ATOM     26  N   UNL     1       1.192   0.963   0.983  0.00  0.00    +0.056 N 
ATOM     27  O   UNL     1       1.188  -0.250   0.867  0.00  0.00    -0.126 OA
ATOM     28  O   UNL     1       1.688   1.478   1.968  0.00  0.00    -0.126 OA
ENDBRANCH  24  26
ENDBRANCH  16  22
ENDBRANCH   1  17
BRANCH   1  29
ATOM     29  C   UNL     1      -0.081   8.198  -0.385  0.00  0.00    +0.104 C 
ATOM     30  N   UNL     1      -1.029   8.788  -0.594  0.00  0.00    -0.191 NA
ENDBRANCH   1  29
TORSDOF 6
