REMARK  Name = ZINC16030349
REMARK  14 active torsions:
REMARK  status: ('A' for Active; 'I' for Inactive)
REMARK    1  A    between atoms: C_1  and  C_2
REMARK    2  A    between atoms: C_3  and  C_34
REMARK    3  A    between atoms: C_5  and  C_33
REMARK    4  A    between atoms: C_8  and  C_32
REMARK    5  A    between atoms: C_21  and  C_31
REMARK    6  A    between atoms: C_24  and  O_27
REMARK    7  A    between atoms: O_27  and  C_28
REMARK    8  A    between atoms: C_28  and  C_30
REMARK    9  A    between atoms: C_34  and  C_35
REMARK   10  A    between atoms: C_35  and  C_36
REMARK   11  A    between atoms: C_36  and  C_38
REMARK   12  A    between atoms: C_36  and  C_39
REMARK   13  A    between atoms: C_39  and  N_40
REMARK   14  A    between atoms: C_41  and  C_43
REMARK                            x       y       z     vdW  Elec       q    Type
REMARK                         _______ _______ _______ _____ _____    ______ ____
ROOT
ATOM      1  C   UNL     1       0.202   4.893  -6.440  0.00  0.00    +0.043 C 
ATOM      2  C   UNL     1       0.081   3.694  -5.537  0.00  0.00    -0.028 C 
ATOM      3  C   UNL     1      -0.048   2.403  -5.916  0.00  0.00    +0.098 C 
ATOM      4  O   UNL     1      -0.151   1.564  -4.813  0.00  0.00    -0.490 OA
ATOM      5  C   UNL     1       0.692   2.206  -3.884  0.00  0.00    +0.115 C 
ATOM      6  C   UNL     1       0.040   3.629  -4.066  0.00  0.00    +0.068 C 
ATOM      7  C   UNL     1       0.678   4.491  -3.014  0.00  0.00    -0.019 C 
ATOM      8  C   UNL     1      -0.320   5.525  -2.541  0.00  0.00    +0.008 C 
ATOM      9  C   UNL     1      -0.492   5.760  -1.068  0.00  0.00    +0.005 C 
ATOM     10  C   UNL     1      -0.325   4.539  -0.178  0.00  0.00    +0.003 C 
ATOM     11  C   UNL     1       0.951   3.810  -0.525  0.00  0.00    +0.000 C 
ATOM     12  C   UNL     1       1.162   3.499  -1.960  0.00  0.00    +0.003 C 
ATOM     13  C   UNL     1       0.690   2.083  -2.383  0.00  0.00    +0.052 C 
ATOM     14  C   UNL     1       1.177   2.613   0.392  0.00  0.00    +0.031 C 
ATOM     15  C   UNL     1      -0.059   1.767   0.454  0.00  0.00    -0.027 C 
ATOM     16  C   UNL     1      -1.255   2.242   0.286  0.00  0.00    -0.064 C 
ATOM     17  C   UNL     1      -1.557   3.672  -0.071  0.00  0.00    -0.008 C 
ATOM     18  C   UNL     1      -2.478   4.232   1.027  0.00  0.00    +0.015 C 
ATOM     19  C   UNL     1      -3.709   3.351   1.206  0.00  0.00    +0.046 C 
ATOM     20  C   UNL     1      -3.325   1.922   1.582  0.00  0.00    +0.180 C 
ATOM     21  C   UNL     1      -2.437   1.310   0.494  0.00  0.00    +0.075 C 
ATOM     22  C   UNL     1      -2.348   3.674  -1.374  0.00  0.00    +0.016 C 
ATOM     23  C   UNL     1       1.891   5.241  -3.573  0.00  0.00    +0.012 C 
ATOM     24  C   UNL     1       2.121   2.151  -4.420  0.00  0.00    +0.056 C 
ENDROOT
BRANCH  20  25
ATOM     25  O   UNL     1      -2.610   1.924   2.846  0.00  0.00    -0.461 OA
BRANCH  25  26
ATOM     26  C   UNL     1      -2.749   0.841   3.627  0.00  0.00    +0.304 C 
ATOM     27  O   UNL     1      -3.446  -0.078   3.267  0.00  0.00    -0.251 OA
ATOM     28  C   UNL     1      -2.036   0.771   4.953  0.00  0.00    +0.136 C 
ENDBRANCH  25  26
ENDBRANCH  20  25
BRANCH   3  29
ATOM     29  C   UNL     1      -0.077   1.939  -7.348  0.00  0.00    +0.074 C 
BRANCH  29  30
ATOM     30  C   UNL     1       1.329   1.514  -7.775  0.00  0.00    +0.012 C 
BRANCH  30  31
ATOM     31  C   UNL     1       1.300   1.042  -9.230  0.00  0.00    +0.003 C 
ATOM     32  C   UNL     1       0.938   2.217 -10.140  0.00  0.00    +0.009 C 
BRANCH  31  33
ATOM     33  C   UNL     1       2.677   0.500  -9.619  0.00  0.00    +0.107 C 
BRANCH  33  34
ATOM     34  N   UNL     1       2.617  -0.060 -10.971  0.00  0.00    -0.315 N 
ATOM     35  C   UNL     1       3.721  -0.599 -11.526  0.00  0.00    +0.210 C 
ATOM     36  O   UNL     1       4.763  -0.619 -10.907  0.00  0.00    -0.276 OA
ATOM     37  C   UNL     1       3.660  -1.175 -12.917  0.00  0.00    +0.109 C 
ATOM     38  H   UNL     1       1.783  -0.044 -11.466  0.00  0.00    +0.149 HD
ENDBRANCH  33  34
ENDBRANCH  31  33
ENDBRANCH  30  31
ENDBRANCH  29  30
ENDBRANCH   3  29
TORSDOF 7
