REMARK  Name = ZINC32573278
REMARK  11 active torsions:
REMARK  status: ('A' for Active; 'I' for Inactive)
REMARK    1  A    between atoms: C_1  and  C_2
REMARK    2  A    between atoms: C_2  and  C_3
REMARK    3  A    between atoms: C_2  and  N_4
REMARK    4  A    between atoms: C_6  and  N_25
REMARK    5  A    between atoms: C_9  and  C_11
REMARK    6  A    between atoms: N_13  and  C_14
REMARK    7  A    between atoms: C_14  and  C_15
REMARK    8  A    between atoms: C_15  and  C_16
REMARK    9  A    between atoms: N_25  and  C_26
REMARK   10  A    between atoms: C_26  and  C_27
REMARK   11  A    between atoms: C_30  and  C_33
REMARK                            x       y       z     vdW  Elec       q    Type
REMARK                         _______ _______ _______ _____ _____    ______ ____
ROOT
ATOM      1  N   UNL     1      -1.278  -0.748   0.070  0.00  0.00    +0.390 N 
ATOM      2  C   UNL     1      -1.948  -0.255  -1.152  0.00  0.00    -0.059 C 
ATOM      3  C   UNL     1      -2.607  -1.511  -1.776  0.00  0.00    +0.036 C 
ATOM      4  C   UNL     1      -1.546  -2.603  -1.476  0.00  0.00    +0.010 C 
ATOM      5  C   UNL     1      -0.999  -2.187  -0.095  0.00  0.00    +0.021 C 
ATOM      6  H   UNL     1      -1.883  -0.609   0.866  0.00  0.00    -0.080 HD
ENDROOT
BRANCH   5   7
ATOM      7  C   UNL     1       0.487  -2.431  -0.036  0.00  0.00    +0.200 C 
ATOM      8  O   UNL     1       1.217  -1.927  -0.864  0.00  0.00    -0.278 OA
ATOM      9  N   UNL     1       1.004  -3.209   0.934  0.00  0.00    -0.316 N 
ATOM     10  H   UNL     1       0.420  -3.612   1.596  0.00  0.00    +0.149 HD
BRANCH   9  11
ATOM     11  C   UNL     1       2.449  -3.446   0.991  0.00  0.00    +0.109 C 
BRANCH  11  12
ATOM     12  C   UNL     1       2.770  -4.356   2.179  0.00  0.00    +0.054 C 
BRANCH  12  13
ATOM     13  C   UNL     1       4.256  -4.600   2.236  0.00  0.00    -0.042 A 
ATOM     14  C   UNL     1       4.807  -5.670   1.557  0.00  0.00    +0.007 A 
ATOM     15  C   UNL     1       6.169  -5.898   1.607  0.00  0.00    +0.050 A 
ATOM     16  C   UNL     1       6.987  -5.053   2.339  0.00  0.00    +0.166 A 
ATOM     17  C   UNL     1       6.433  -3.975   3.024  0.00  0.00    +0.166 A 
ATOM     18  C   UNL     1       5.067  -3.749   2.965  0.00  0.00    +0.053 A 
ATOM     19  O   UNL     1       7.434  -3.302   3.662  0.00  0.00    -0.453 OA
ATOM     20  C   UNL     1       8.549  -4.213   3.696  0.00  0.00    +0.466 C 
ATOM     21  O   UNL     1       8.336  -5.056   2.548  0.00  0.00    -0.453 OA
ENDBRANCH  12  13
ENDBRANCH  11  12
ENDBRANCH   9  11
ENDBRANCH   5   7
BRANCH   1  23
ATOM     22  C   UNL     1      -0.292   1.485   0.262  0.00  0.00    -0.013 C 
ATOM     23  C   UNL     1      -0.018  -0.020   0.272  0.00  0.00    -0.074 C 
ATOM     24  C   UNL     1       0.592  -0.419   1.617  0.00  0.00    -0.013 C 
ENDBRANCH   1  23
BRANCH   3  25
ATOM     25  N   UNL     1      -2.795  -1.342  -3.223  0.00  0.00    -0.311 NA
ATOM     26  H   UNL     1      -2.953  -0.374  -3.456  0.00  0.00    +0.122 HD
BRANCH  25  27
ATOM     27  C   UNL     1      -3.892  -2.188  -3.713  0.00  0.00    +0.116 C 
BRANCH  27  28
ATOM     28  C   UNL     1      -4.056  -1.988  -5.197  0.00  0.00    -0.034 A 
ATOM     29  C   UNL     1      -4.902  -1.005  -5.674  0.00  0.00    +0.005 A 
ATOM     30  C   UNL     1      -5.052  -0.822  -7.036  0.00  0.00    +0.012 A 
ATOM     31  C   UNL     1      -4.355  -1.622  -7.921  0.00  0.00    +0.055 A 
ATOM     32  C   UNL     1      -3.507  -2.605  -7.445  0.00  0.00    +0.012 A 
ATOM     33  C   UNL     1      -3.354  -2.785  -6.083  0.00  0.00    +0.005 A 
BRANCH  31  34
ATOM     34  C   UNL     1      -4.519  -1.423  -9.406  0.00  0.00    +0.417 C 
ATOM     35  F   UNL     1      -3.572  -0.499  -9.860  0.00  0.00    -0.166 F 
ATOM     36  F   UNL     1      -4.331  -2.644 -10.064  0.00  0.00    -0.166 F 
ATOM     37  F   UNL     1      -5.805  -0.943  -9.673  0.00  0.00    -0.166 F 
ENDBRANCH  31  34
ENDBRANCH  27  28
ENDBRANCH  25  27
ENDBRANCH   3  25
TORSDOF 9
