REMARK  Name = ZINC58244395
REMARK  10 active torsions:
REMARK  status: ('A' for Active; 'I' for Inactive)
REMARK    1  A    between atoms: C_1  and  C_2
REMARK    2  A    between atoms: C_2  and  C_3
REMARK    3  A    between atoms: C_2  and  C_4
REMARK    4  A    between atoms: C_4  and  C_6
REMARK    5  A    between atoms: C_4  and  N_17
REMARK    6  A    between atoms: C_8  and  C_11
REMARK    7  A    between atoms: N_17  and  S_18
REMARK    8  A    between atoms: S_18  and  C_21
REMARK    9  A    between atoms: C_24  and  O_28
REMARK   10  A    between atoms: O_28  and  C_29
REMARK                            x       y       z     vdW  Elec       q    Type
REMARK                         _______ _______ _______ _____ _____    ______ ____
ROOT
ATOM      1  N   UNL     1      -2.181   0.152   1.116  0.00  0.00    -0.178 NA
ATOM      2  H   UNL     1      -2.008   1.075   1.357  0.00  0.00    +0.149 HD
ENDROOT
BRANCH   1   3
ATOM      3  S   UNL     1      -3.258  -0.746   1.997  0.00  0.00    +0.059 S 
ATOM      4  O   UNL     1      -3.747   0.102   3.028  0.00  0.00    -0.153 OA
ATOM      5  O   UNL     1      -4.119  -1.381   1.061  0.00  0.00    -0.153 OA
BRANCH   3   6
ATOM      6  C   UNL     1      -2.344  -2.026   2.790  0.00  0.00    +0.107 A 
ATOM      7  C   UNL     1      -2.100  -3.214   2.124  0.00  0.00    +0.032 A 
ATOM      8  C   UNL     1      -1.383  -4.220   2.743  0.00  0.00    +0.049 A 
ATOM      9  C   UNL     1      -0.908  -4.039   4.034  0.00  0.00    +0.145 A 
ATOM     10  C   UNL     1      -1.154  -2.846   4.700  0.00  0.00    +0.085 A 
ATOM     11  C   UNL     1      -1.867  -1.840   4.074  0.00  0.00    +0.052 A 
ATOM     12 CL   UNL     1      -0.561  -2.615   6.315  0.00  0.00    -0.080 Cl
BRANCH   9  13
ATOM     13  O   UNL     1      -0.203  -5.027   4.645  0.00  0.00    -0.433 OA
BRANCH  13  14
ATOM     14  C   UNL     1       0.011  -6.227   3.899  0.00  0.00    +0.541 C 
ATOM     15  F   UNL     1      -1.223  -6.796   3.566  0.00  0.00    -0.166 F 
ATOM     16  F   UNL     1       0.718  -5.929   2.730  0.00  0.00    -0.166 F 
ENDBRANCH  13  14
ENDBRANCH   9  13
ENDBRANCH   3   6
ENDBRANCH   1   3
BRANCH   1  17
ATOM     17  C   UNL     1      -1.489  -0.449  -0.027  0.00  0.00    +0.167 C 
BRANCH  17  18
ATOM     18  C   UNL     1      -2.227  -0.109  -1.296  0.00  0.00    +0.247 A 
ATOM     19  N   UNL     1      -2.514  -0.941  -2.256  0.00  0.00    -0.190 NA
ATOM     20  C   UNL     1      -3.178  -0.303  -3.236  0.00  0.00    +0.202 A 
ATOM     21  N   UNL     1      -3.317   0.955  -2.897  0.00  0.00    -0.056 NA
ATOM     22  O   UNL     1      -2.704   1.099  -1.625  0.00  0.00    -0.336 OA
BRANCH  20  23
ATOM     23  C   UNL     1      -3.671  -0.920  -4.493  0.00  0.00    +0.025 A 
ATOM     24  C   UNL     1      -3.471  -2.279  -4.751  0.00  0.00    +0.031 A 
ATOM     25  C   UNL     1      -3.946  -2.813  -5.932  0.00  0.00    +0.111 A 
ATOM     26  N   UNL     1      -4.580  -2.059  -6.809  0.00  0.00    -0.263 NA
ATOM     27  C   UNL     1      -4.789  -0.773  -6.604  0.00  0.00    +0.111 A 
ATOM     28  C   UNL     1      -4.352  -0.160  -5.447  0.00  0.00    +0.031 A 
ENDBRANCH  20  23
ENDBRANCH  17  18
BRANCH  17  30
ATOM     29  C   UNL     1      -0.106   1.624  -0.204  0.00  0.00    +0.009 C 
ATOM     30  C   UNL     1      -0.062   0.098  -0.104  0.00  0.00    +0.011 C 
ATOM     31  C   UNL     1       0.709  -0.309   1.153  0.00  0.00    +0.009 C 
ENDBRANCH  17  30
ENDBRANCH   1  17
TORSDOF 8
