REMARK  Name = ZINC40036057
REMARK  9 active torsions:
REMARK  status: ('A' for Active; 'I' for Inactive)
REMARK    1  A    between atoms: C_1  and  C_2
REMARK    2  A    between atoms: C_2  and  C_3
REMARK    3  A    between atoms: C_3  and  C_4
REMARK    4  A    between atoms: C_4  and  C_37
REMARK    5  A    between atoms: N_16  and  C_29
REMARK    6  A    between atoms: N_19  and  N_20
REMARK    7  A    between atoms: C_21  and  C_22
REMARK    8  A    between atoms: C_32  and  O_35
REMARK    9  A    between atoms: O_35  and  C_36
REMARK                            x       y       z     vdW  Elec       q    Type
REMARK                         _______ _______ _______ _____ _____    ______ ____
ROOT
ATOM      1  C   UNL     1      -1.422  -2.062   0.455  0.00  0.00    +0.004 C 
ATOM      2  C   UNL     1      -2.777  -2.267   1.126  0.00  0.00    +0.047 C 
ATOM      3  C   UNL     1      -2.838  -1.524   2.434  0.00  0.00    -0.037 A 
ATOM      4  C   UNL     1      -4.016  -0.942   2.853  0.00  0.00    +0.004 A 
ATOM      5  C   UNL     1      -4.064  -0.264   4.058  0.00  0.00    +0.000 A 
ATOM      6  C   UNL     1      -2.935  -0.165   4.852  0.00  0.00    +0.001 A 
ATOM      7  C   UNL     1      -1.749  -0.743   4.443  0.00  0.00    +0.010 A 
ATOM      8  C   UNL     1      -1.696  -1.423   3.230  0.00  0.00    +0.004 A 
ATOM      9  C   UNL     1      -0.437  -2.044   2.760  0.00  0.00    +0.084 A 
ATOM     10  C   UNL     1      -0.305  -2.358   1.415  0.00  0.00    +0.050 A 
ATOM     11  C   UNL     1       0.884  -2.953   0.974  0.00  0.00    +0.264 A 
ATOM     12  O   UNL     1       1.035  -3.246  -0.201  0.00  0.00    -0.267 OA
ATOM     13  N   UNL     1       1.858  -3.196   1.877  0.00  0.00    -0.248 N 
ATOM     14  C   UNL     1       1.680  -2.862   3.187  0.00  0.00    +0.223 A 
ATOM     15  N   UNL     1       0.564  -2.303   3.608  0.00  0.00    -0.214 NA
ATOM     16  N   UNL     1       2.684  -3.115   4.086  0.00  0.00    -0.206 N 
ATOM     17  C   UNL     1      -1.311  -2.996  -0.751  0.00  0.00    +0.017 C 
ATOM     18  H   UNL     1       3.514  -3.519   3.786  0.00  0.00    +0.177 HD
ENDROOT
BRANCH  13  19
ATOM     19  C   UNL     1       3.058  -3.794   1.466  0.00  0.00    +0.053 A 
ATOM     20  C   UNL     1       3.190  -5.176   1.496  0.00  0.00    +0.030 A 
ATOM     21  C   UNL     1       4.372  -5.765   1.090  0.00  0.00    +0.047 A 
ATOM     22  C   UNL     1       5.426  -4.976   0.652  0.00  0.00    +0.120 A 
ATOM     23  C   UNL     1       5.293  -3.595   0.622  0.00  0.00    +0.047 A 
ATOM     24  C   UNL     1       4.111  -3.006   1.022  0.00  0.00    +0.030 A 
BRANCH  22  25
ATOM     25  O   UNL     1       6.588  -5.556   0.253  0.00  0.00    -0.495 OA
ATOM     26  C   UNL     1       7.631  -4.684  -0.186  0.00  0.00    +0.277 C 
ENDBRANCH  22  25
ENDBRANCH  13  19
BRANCH  16  27
ATOM     27  N   UNL     1       2.513  -2.789   5.438  0.00  0.00    -0.188 NA
ATOM     28  C   UNL     1       3.463  -3.028   6.288  0.00  0.00    +0.138 C 
BRANCH  28  29
ATOM     29  C   UNL     1       3.283  -2.685   7.711  0.00  0.00    -0.005 A 
ATOM     30  C   UNL     1       2.087  -2.109   8.148  0.00  0.00    +0.011 A 
ATOM     31  C   UNL     1       1.925  -1.791   9.480  0.00  0.00    +0.020 A 
ATOM     32  C   UNL     1       2.943  -2.042  10.384  0.00  0.00    +0.041 A 
ATOM     33  C   UNL     1       4.131  -2.613   9.958  0.00  0.00    +0.020 A 
ATOM     34  C   UNL     1       4.304  -2.941   8.630  0.00  0.00    +0.011 A 
ATOM     35 CL   UNL     1       2.730  -1.639  12.059  0.00  0.00    -0.084 Cl
ENDBRANCH  28  29
ENDBRANCH  16  27
BRANCH   1  36
ATOM     36  C   UNL     1      -1.308  -0.611  -0.019  0.00  0.00    +0.011 C 
BRANCH  36  38
ATOM     37  C   UNL     1       0.151   1.043  -1.192  0.00  0.00    +0.004 C 
ATOM     38  C   UNL     1       0.037  -0.407  -0.718  0.00  0.00    -0.003 C 
ENDBRANCH  36  38
ENDBRANCH   1  36
TORSDOF 6
