REMARK  Name = ZINC16214063
REMARK  9 active torsions:
REMARK  status: ('A' for Active; 'I' for Inactive)
REMARK    1  A    between atoms: C_1  and  S_2
REMARK    2  A    between atoms: S_2  and  C_3
REMARK    3  A    between atoms: C_7  and  N_9
REMARK    4  A    between atoms: C_10  and  C_12
REMARK    5  A    between atoms: C_12  and  N_13
REMARK    6  A    between atoms: N_13  and  C_14
REMARK    7  A    between atoms: N_13  and  S_23
REMARK    8  A    between atoms: C_17  and  N_20
REMARK    9  A    between atoms: S_23  and  C_26
REMARK                            x       y       z     vdW  Elec       q    Type
REMARK                         _______ _______ _______ _____ _____    ______ ____
ROOT
ATOM      1  N   UNL     1       2.385   7.967   0.306  0.00  0.00    -0.194 N 
ENDROOT
BRANCH   1   2
ATOM      2  C   UNL     1       3.105   8.099   1.496  0.00  0.00    +0.052 A 
ATOM      3  C   UNL     1       4.207   8.944   1.552  0.00  0.00    +0.027 A 
ATOM      4  C   UNL     1       4.913   9.076   2.732  0.00  0.00    +0.034 A 
ATOM      5  C   UNL     1       4.532   8.361   3.852  0.00  0.00    +0.126 A 
ATOM      6  C   UNL     1       3.440   7.515   3.798  0.00  0.00    +0.034 A 
ATOM      7  C   UNL     1       2.725   7.382   2.623  0.00  0.00    +0.027 A 
BRANCH   5   8
ATOM      8  N   UNL     1       5.295   8.501   5.112  0.00  0.00    +0.056 N 
ATOM      9  O   UNL     1       4.961   7.872   6.100  0.00  0.00    -0.126 OA
ATOM     10  O   UNL     1       6.258   9.246   5.162  0.00  0.00    -0.126 OA
ENDBRANCH   5   8
ENDBRANCH   1   2
BRANCH   1  11
ATOM     11  S   UNL     1       3.127   8.252  -1.147  0.00  0.00    +0.075 S 
ATOM     12  O   UNL     1       4.509   7.981  -0.957  0.00  0.00    -0.150 OA
ATOM     13  O   UNL     1       2.350   7.590  -2.135  0.00  0.00    -0.150 OA
BRANCH  11  14
ATOM     14  C   UNL     1       2.991   9.978  -1.472  0.00  0.00    +0.109 A 
ATOM     15  C   UNL     1       1.837  10.486  -2.039  0.00  0.00    +0.029 A 
ATOM     16  C   UNL     1       1.729  11.841  -2.289  0.00  0.00    +0.002 A 
ATOM     17  C   UNL     1       2.779  12.687  -1.983  0.00  0.00    +0.000 A 
ATOM     18  C   UNL     1       3.935  12.178  -1.421  0.00  0.00    +0.002 A 
ATOM     19  C   UNL     1       4.041  10.823  -1.166  0.00  0.00    +0.029 A 
ENDBRANCH  11  14
ENDBRANCH   1  11
BRANCH   1  20
ATOM     20  C   UNL     1       0.973   7.578   0.345  0.00  0.00    +0.227 C 
BRANCH  20  22
ATOM     21  N   UNL     1      -0.343   5.486   0.449  0.00  0.00    -0.284 N 
ATOM     22  C   UNL     1       0.869   6.075   0.406  0.00  0.00    +0.236 C 
ATOM     23  O   UNL     1       1.874   5.397   0.417  0.00  0.00    -0.274 OA
ATOM     24  H   UNL     1      -1.147   6.022   0.369  0.00  0.00    +0.155 HD
BRANCH  21  29
ATOM     25  C   UNL     1       0.406   1.890   0.193  0.00  0.00    +0.009 A 
ATOM     26  C   UNL     1      -0.643   1.353   0.930  0.00  0.00    +0.015 A 
ATOM     27  C   UNL     1      -1.581   2.187   1.507  0.00  0.00    +0.003 A 
ATOM     28  C   UNL     1      -1.483   3.556   1.349  0.00  0.00    +0.023 A 
ATOM     29  C   UNL     1      -0.440   4.099   0.608  0.00  0.00    +0.034 A 
ATOM     30  C   UNL     1       0.504   3.265   0.027  0.00  0.00    +0.038 A 
BRANCH  25  32
ATOM     31  C   UNL     1       1.065  -0.838  -0.061  0.00  0.00    +0.090 C 
ATOM     32  S   UNL     1       1.607   0.826  -0.537  0.00  0.00    -0.129 S 
ENDBRANCH  25  32
ENDBRANCH  21  29
ENDBRANCH  20  22
ENDBRANCH   1  20
TORSDOF 8
