REMARK  Name = ZINC23455274
REMARK  12 active torsions:
REMARK  status: ('A' for Active; 'I' for Inactive)
REMARK    1  A    between atoms: C_1  and  C_2
REMARK    2  A    between atoms: C_4  and  C_37
REMARK    3  A    between atoms: C_5  and  C_36
REMARK    4  A    between atoms: C_6  and  S_9
REMARK    5  A    between atoms: C_7  and  C_8
REMARK    6  A    between atoms: S_9  and  N_12
REMARK    7  A    between atoms: N_15  and  C_18
REMARK    8  A    between atoms: C_18  and  C_19
REMARK    9  A    between atoms: C_19  and  O_20
REMARK   10  A    between atoms: O_20  and  C_21
REMARK   11  A    between atoms: C_21  and  C_22
REMARK   12  A    between atoms: C_21  and  C_29
REMARK                            x       y       z     vdW  Elec       q    Type
REMARK                         _______ _______ _______ _____ _____    ______ ____
ROOT
ATOM      1  N   UNL     1       0.453   1.574   1.226  0.00  0.00    -0.180 NA
ATOM      2  C   UNL     1       0.991   1.123  -0.067  0.00  0.00    +0.091 C 
ATOM      3  C   UNL     1       0.363   1.967  -1.181  0.00  0.00    -0.061 C 
ATOM      4  N   UNL     1       0.567   3.392  -0.886  0.00  0.00    +0.383 N 
ATOM      5  C   UNL     1      -0.115   3.782   0.355  0.00  0.00    -0.061 C 
ATOM      6  C   UNL     1       0.493   3.012   1.532  0.00  0.00    +0.091 C 
ATOM      7  H   UNL     1       1.645   3.552  -0.740  0.00  0.00    -0.082 HD
ENDROOT
BRANCH   1   8
ATOM      8  S   UNL     1      -0.186   0.492   2.304  0.00  0.00    +0.061 S 
ATOM      9  O   UNL     1      -1.083   1.222   3.130  0.00  0.00    -0.153 OA
ATOM     10  O   UNL     1      -0.596  -0.640   1.549  0.00  0.00    -0.153 OA
BRANCH   8  16
ATOM     11  C   UNL     1       2.469   0.657   6.803  0.00  0.00    +0.044 C 
ATOM     12  C   UNL     1       2.310   0.070   5.424  0.00  0.00    -0.045 A 
ATOM     13  C   UNL     1       3.197  -0.891   4.975  0.00  0.00    +0.007 A 
ATOM     14  C   UNL     1       3.050  -1.430   3.711  0.00  0.00    -0.045 A 
ATOM     15  C   UNL     1       2.018  -1.007   2.895  0.00  0.00    -0.021 A 
ATOM     16  C   UNL     1       1.131  -0.047   3.344  0.00  0.00    +0.112 A 
ATOM     17  C   UNL     1       1.280   0.495   4.607  0.00  0.00    -0.021 A 
ATOM     18  C   UNL     1       0.317   1.547   5.094  0.00  0.00    +0.046 C 
ATOM     19  C   UNL     1       1.858  -1.594   1.516  0.00  0.00    +0.046 C 
ATOM     20  C   UNL     1       4.017  -2.477   3.221  0.00  0.00    +0.044 C 
ENDBRANCH   8  16
ENDBRANCH   1   8
BRANCH   4  21
ATOM     21  C   UNL     1       0.132   4.230  -2.012  0.00  0.00    -0.050 C 
BRANCH  21  22
ATOM     22  C   UNL     1       0.273   5.705  -1.633  0.00  0.00    +0.142 C 
BRANCH  22  23
ATOM     23  O   UNL     1       1.650   6.007  -1.397  0.00  0.00    -0.369 OA
BRANCH  23  24
ATOM     24  C   UNL     1       1.893   7.368  -1.035  0.00  0.00    +0.178 C 
BRANCH  24  25
ATOM     25  C   UNL     1       1.818   7.510   0.463  0.00  0.00    -0.014 A 
ATOM     26  C   UNL     1       2.349   6.527   1.278  0.00  0.00    +0.009 A 
ATOM     27  C   UNL     1       2.285   6.659   2.652  0.00  0.00    +0.039 A 
ATOM     28  C   UNL     1       1.678   7.770   3.213  0.00  0.00    +0.123 A 
ATOM     29  C   UNL     1       1.141   8.750   2.396  0.00  0.00    +0.039 A 
ATOM     30  C   UNL     1       1.211   8.619   1.022  0.00  0.00    +0.009 A 
ATOM     31  F   UNL     1       1.610   7.897   4.556  0.00  0.00    -0.205 F 
ENDBRANCH  24  25
BRANCH  24  32
ATOM     32  C   UNL     1       3.264   7.777  -1.510  0.00  0.00    -0.014 A 
ATOM     33  C   UNL     1       4.300   6.862  -1.498  0.00  0.00    +0.009 A 
ATOM     34  C   UNL     1       5.556   7.235  -1.938  0.00  0.00    +0.039 A 
ATOM     35  C   UNL     1       5.779   8.528  -2.380  0.00  0.00    +0.123 A 
ATOM     36  C   UNL     1       4.741   9.444  -2.387  0.00  0.00    +0.039 A 
ATOM     37  C   UNL     1       3.485   9.068  -1.952  0.00  0.00    +0.009 A 
ATOM     38  F   UNL     1       7.008   8.894  -2.806  0.00  0.00    -0.205 F 
ENDBRANCH  24  32
ENDBRANCH  23  24
ENDBRANCH  22  23
ENDBRANCH  21  22
ENDBRANCH   4  21
TORSDOF 8
