REMARK  Name = ZINC22741272
REMARK  11 active torsions:
REMARK  status: ('A' for Active; 'I' for Inactive)
REMARK    1  A    between atoms: C_1  and  C_2
REMARK    2  A    between atoms: C_2  and  C_3
REMARK    3  A    between atoms: C_6  and  C_9
REMARK    4  A    between atoms: C_9  and  C_11
REMARK    5  A    between atoms: C_9  and  N_31
REMARK    6  A    between atoms: C_11  and  N_12
REMARK    7  A    between atoms: C_13  and  C_15
REMARK    8  A    between atoms: C_15  and  C_16
REMARK    9  A    between atoms: C_16  and  N_17
REMARK   10  A    between atoms: N_31  and  C_32
REMARK   11  A    between atoms: N_31  and  C_33
REMARK                            x       y       z     vdW  Elec       q    Type
REMARK                         _______ _______ _______ _____ _____    ______ ____
ROOT
ATOM      1  N   UNL     1       3.008  -7.265  -3.749  0.00  0.00    -0.316 N 
ATOM      2  C   UNL     1       2.932  -6.436  -2.690  0.00  0.00    +0.215 C 
ATOM      3  O   UNL     1       3.854  -6.367  -1.905  0.00  0.00    -0.276 OA
ATOM      4  H   UNL     1       2.172  -7.327  -4.461  0.00  0.00    +0.149 HD
ENDROOT
BRANCH   1   5
ATOM      5  C   UNL     1       4.206  -8.084  -3.954  0.00  0.00    +0.093 C 
BRANCH   5   6
ATOM      6  C   UNL     1       4.036  -8.928  -5.218  0.00  0.00    -0.021 C 
BRANCH   6  10
ATOM      7  C   UNL     1       7.370 -11.568  -5.625  0.00  0.00    -0.048 A 
ATOM      8  C   UNL     1       6.692 -11.492  -4.423  0.00  0.00    +0.004 A 
ATOM      9  C   UNL     1       5.613 -10.637  -4.291  0.00  0.00    +0.002 A 
ATOM     10  C   UNL     1       5.213  -9.860  -5.362  0.00  0.00    -0.059 A 
ATOM     11  C   UNL     1       5.888  -9.940  -6.565  0.00  0.00    +0.002 A 
ATOM     12  C   UNL     1       6.970 -10.790  -6.695  0.00  0.00    +0.004 A 
BRANCH   7  14
ATOM     13  C   UNL     1       8.057 -13.867  -6.251  0.00  0.00    +0.009 C 
ATOM     14  C   UNL     1       8.546 -12.500  -5.769  0.00  0.00    +0.032 C 
ENDBRANCH   7  14
ENDBRANCH   6  10
BRANCH   6  15
ATOM     15  N   UNL     1       2.799  -9.714  -5.120  0.00  0.00    +0.382 N 
ATOM     16  C   UNL     1       2.516 -10.410  -6.382  0.00  0.00    -0.096 C 
ATOM     17  C   UNL     1       2.865 -10.662  -4.000  0.00  0.00    -0.096 C 
ATOM     18  H   UNL     1       1.971  -9.017  -4.925  0.00  0.00    -0.082 HD
ENDBRANCH   6  15
ENDBRANCH   5   6
ENDBRANCH   1   5
BRANCH   2  19
ATOM     19  C   UNL     1       1.700  -5.593  -2.480  0.00  0.00    +0.117 C 
BRANCH  19  20
ATOM     20  C   UNL     1       1.870  -4.748  -1.215  0.00  0.00    +0.135 C 
BRANCH  20  21
ATOM     21  N   UNL     1       0.672  -3.929  -1.011  0.00  0.00    -0.298 N 
ATOM     22  C   UNL     1      -0.342  -4.441  -0.273  0.00  0.00    +0.203 A 
ATOM     23  N   UNL     1      -1.456  -3.785  -0.034  0.00  0.00    -0.230 NA
ATOM     24  C   UNL     1      -1.570  -2.566  -0.551  0.00  0.00    +0.116 A 
ATOM     25  C   UNL     1      -0.570  -1.946  -1.332  0.00  0.00    +0.076 A 
ATOM     26  C   UNL     1       0.631  -2.696  -1.568  0.00  0.00    +0.262 A 
ATOM     27  O   UNL     1       1.554  -2.252  -2.229  0.00  0.00    -0.267 OA
ATOM     28  C   UNL     1      -0.869  -0.609  -1.813  0.00  0.00    -0.023 A 
ATOM     29  C   UNL     1      -2.072  -0.095  -1.466  0.00  0.00    -0.004 A 
ATOM     30  S   UNL     1      -2.853  -1.356  -0.491  0.00  0.00    -0.073 S 
ATOM     31  C   UNL     1      -2.622   1.250  -1.828  0.00  0.00    +0.043 C 
ATOM     32  C   UNL     1      -1.470   2.123  -2.348  0.00  0.00    +0.005 C 
ATOM     33  C   UNL     1      -0.669   1.316  -3.373  0.00  0.00    +0.005 C 
ATOM     34  C   UNL     1       0.102   0.200  -2.668  0.00  0.00    +0.037 C 
ENDBRANCH  20  21
ENDBRANCH  19  20
ENDBRANCH   2  19
TORSDOF 8
