REMARK  Name = ZINC17125807
REMARK  8 active torsions:
REMARK  status: ('A' for Active; 'I' for Inactive)
REMARK    1  A    between atoms: C_1  and  C_2
REMARK    2  A    between atoms: C_2  and  C_9
REMARK    3  A    between atoms: N_3  and  N_4
REMARK    4  A    between atoms: N_6  and  C_7
REMARK    5  A    between atoms: C_20  and  C_22
REMARK    6  A    between atoms: C_22  and  C_29
REMARK    7  A    between atoms: N_23  and  N_24
REMARK    8  A    between atoms: N_26  and  C_27
REMARK                            x       y       z     vdW  Elec       q    Type
REMARK                         _______ _______ _______ _____ _____    ______ ____
ROOT
ATOM      1  C   UNL     1       1.016  -1.637  -2.306  0.00  0.00    -0.002 A 
ATOM      2  C   UNL     1       0.743  -2.928  -1.878  0.00  0.00    +0.019 A 
ATOM      3  C   UNL     1       0.741  -3.997  -2.795  0.00  0.00    -0.002 A 
ATOM      4  C   UNL     1       0.471  -5.424  -2.506  0.00  0.00    -0.002 A 
ATOM      5  C   UNL     1       0.532  -6.293  -3.607  0.00  0.00    +0.021 A 
ATOM      6  S   UNL     1       0.935  -5.244  -4.981  0.00  0.00    -0.088 S 
ATOM      7  C   UNL     1       1.024  -3.687  -4.135  0.00  0.00    +0.021 A 
ATOM      8  C   UNL     1       1.296  -2.398  -4.555  0.00  0.00    +0.016 A 
ATOM      9  C   UNL     1       1.289  -1.369  -3.653  0.00  0.00    +0.011 A 
ATOM     10  C   UNL     1       0.303  -7.651  -3.492  0.00  0.00    +0.016 A 
ATOM     11  C   UNL     1       0.005  -8.193  -2.272  0.00  0.00    +0.011 A 
ATOM     12  C   UNL     1      -0.065  -7.361  -1.147  0.00  0.00    -0.002 A 
ATOM     13  C   UNL     1       0.163  -5.996  -1.257  0.00  0.00    +0.019 A 
ENDROOT
BRANCH   1  15
ATOM     14  C   UNL     1       0.262   0.740  -1.633  0.00  0.00    +0.068 C 
ATOM     15  C   UNL     1       1.014  -0.531  -1.331  0.00  0.00    +0.066 C 
ATOM     16  N   UNL     1       1.660  -0.652  -0.211  0.00  0.00    -0.176 NA
BRANCH  16  17
ATOM     17  N   UNL     1       2.341  -1.841   0.080  0.00  0.00    -0.248 N 
ATOM     18  C   UNL     1       2.920  -2.017   1.315  0.00  0.00    +0.189 C 
ATOM     19  N   UNL     1       3.465  -3.161   1.622  0.00  0.00    -0.359 N 
ATOM     20  C   UNL     1       3.979  -3.388   2.976  0.00  0.00    +0.142 C 
ATOM     21  N   UNL     1       2.923  -0.987   2.227  0.00  0.00    -0.370 N 
ATOM     22  H   UNL     1       2.404  -2.540  -0.590  0.00  0.00    +0.192 HD
ATOM     23  H   UNL     1       2.451  -0.163   2.030  0.00  0.00    +0.159 HD
ATOM     24  H   UNL     1       3.399  -1.084   3.067  0.00  0.00    +0.159 HD
ATOM     25  H   UNL     1       3.531  -3.862   0.955  0.00  0.00    +0.162 HD
ENDBRANCH  16  17
ENDBRANCH   1  15
BRANCH  12  26
ATOM     26  C   UNL     1      -0.386  -7.942   0.169  0.00  0.00    +0.066 C 
ATOM     27  N   UNL     1      -1.411  -8.727   0.300  0.00  0.00    -0.176 NA
ATOM     28  C   UNL     1       0.476  -7.623   1.364  0.00  0.00    +0.068 C 
BRANCH  27  29
ATOM     29  N   UNL     1      -2.314  -8.883  -0.761  0.00  0.00    -0.248 N 
ATOM     30  C   UNL     1      -3.414  -9.695  -0.613  0.00  0.00    +0.189 C 
ATOM     31  N   UNL     1      -4.198  -9.922  -1.631  0.00  0.00    -0.359 N 
ATOM     32  C   UNL     1      -5.305 -10.873  -1.505  0.00  0.00    +0.142 C 
ATOM     33  N   UNL     1      -3.688 -10.268   0.607  0.00  0.00    -0.370 N 
ATOM     34  H   UNL     1      -2.162  -8.418  -1.599  0.00  0.00    +0.192 HD
ATOM     35  H   UNL     1      -3.153 -10.037   1.382  0.00  0.00    +0.159 HD
ATOM     36  H   UNL     1      -4.416 -10.903   0.692  0.00  0.00    +0.159 HD
ATOM     37  H   UNL     1      -4.048  -9.461  -2.470  0.00  0.00    +0.162 HD
ENDBRANCH  27  29
ENDBRANCH  12  26
TORSDOF 4
