REMARK  Name = ZINC17046533
REMARK  14 active torsions:
REMARK  status: ('A' for Active; 'I' for Inactive)
REMARK    1  A    between atoms: C_1  and  C_2
REMARK    2  A    between atoms: C_2  and  O_3
REMARK    3  A    between atoms: O_3  and  C_4
REMARK    4  A    between atoms: C_9  and  N_17
REMARK    5  A    between atoms: C_10  and  N_14
REMARK    6  A    between atoms: C_11  and  N_13
REMARK    7  A    between atoms: N_17  and  C_18
REMARK    8  A    between atoms: N_17  and  C_19
REMARK    9  A    between atoms: C_19  and  C_20
REMARK   10  A    between atoms: C_20  and  C_22
REMARK   11  A    between atoms: C_20  and  O_31
REMARK   12  A    between atoms: C_22  and  N_23
REMARK   13  A    between atoms: N_23  and  C_24
REMARK   14  A    between atoms: N_23  and  C_25
REMARK                            x       y       z     vdW  Elec       q    Type
REMARK                         _______ _______ _______ _____ _____    ______ ____
ROOT
ATOM      1  C   UNL     1      11.114   5.785   1.779  0.00  0.00    +0.406 C 
ATOM      2  O   UNL     1      12.033   5.222   2.342  0.00  0.00    -0.226 OA
ATOM      3  N   UNL     1       9.924   5.166   1.649  0.00  0.00    -0.235 N 
ATOM      4  C   UNL     1       9.713   3.926   2.251  0.00  0.00    +0.131 A 
ATOM      5  C   UNL     1       8.455   3.346   2.202  0.00  0.00    +0.069 A 
ATOM      6  C   UNL     1       8.254   2.107   2.808  0.00  0.00    +0.067 A 
ATOM      7  C   UNL     1       9.332   1.499   3.447  0.00  0.00    +0.186 A 
ATOM      8  C   UNL     1      10.563   2.138   3.451  0.00  0.00    +0.151 A 
ATOM      9  N   UNL     1      10.717   3.317   2.864  0.00  0.00    -0.215 NA
ATOM     10  H   UNL     1       9.119   5.639   1.067  0.00  0.00    +0.160 HD
ENDROOT
BRANCH   8  11
ATOM     11  N   UNL     1      11.647   1.538   4.082  0.00  0.00    -0.341 N 
ATOM     12  H   UNL     1      12.626   2.039   4.089  0.00  0.00    +0.144 HD
ATOM     13  H   UNL     1      11.525   0.562   4.575  0.00  0.00    +0.144 HD
ENDBRANCH   8  11
BRANCH   7  14
ATOM     14  N   UNL     1       9.167   0.186   4.110  0.00  0.00    +0.062 N 
ATOM     15  O   UNL     1       9.358  -0.841   3.484  0.00  0.00    -0.126 OA
ATOM     16  O   UNL     1       8.839   0.132   5.282  0.00  0.00    -0.126 OA
ENDBRANCH   7  14
BRANCH   6  17
ATOM     17  N   UNL     1       7.004   1.494   2.779  0.00  0.00    -0.329 N 
ATOM     18  C   UNL     1       6.010   2.292   3.510  0.00  0.00    +0.129 C 
BRANCH  17  19
ATOM     19  C   UNL     1       6.570   1.249   1.397  0.00  0.00    +0.137 C 
BRANCH  19  20
ATOM     20  C   UNL     1       5.324   0.360   1.405  0.00  0.00    +0.149 C 
BRANCH  20  21
ATOM     21  O   UNL     1       5.631  -0.885   2.036  0.00  0.00    -0.389 OA
ATOM     22  H   UNL     1       4.855  -1.657   2.135  0.00  0.00    +0.210 HD
ENDBRANCH  20  21
BRANCH  20  23
ATOM     23  C   UNL     1       4.872   0.104  -0.034  0.00  0.00    +0.137 C 
BRANCH  23  24
ATOM     24  N   UNL     1       3.614  -0.646  -0.025  0.00  0.00    -0.330 N 
ATOM     25  C   UNL     1       3.634  -2.111  -0.030  0.00  0.00    +0.129 C 
BRANCH  24  26
ATOM     26  C   UNL     1       2.394   0.035  -0.010  0.00  0.00    +0.030 A 
ATOM     27  C   UNL     1       1.200  -0.674  -0.001  0.00  0.00    +0.023 A 
ATOM     28  C   UNL     1      -0.003   0.002   0.015  0.00  0.00    +0.002 A 
ATOM     29  C   UNL     1      -0.021   1.385   0.021  0.00  0.00    +0.000 A 
ATOM     30  C   UNL     1       1.166   2.095   0.011  0.00  0.00    +0.002 A 
ATOM     31  C   UNL     1       2.373   1.424  -0.004  0.00  0.00    +0.023 A 
ENDBRANCH  24  26
ENDBRANCH  23  24
ENDBRANCH  20  23
ENDBRANCH  19  20
ENDBRANCH  17  19
ENDBRANCH   6  17
BRANCH   1  32
ATOM     32  O   UNL     1      11.286   7.025   1.285  0.00  0.00    -0.450 OA
BRANCH  32  34
ATOM     33  C   UNL     1      12.597   9.028   0.841  0.00  0.00    +0.048 C 
ATOM     34  C   UNL     1      12.594   7.630   1.462  0.00  0.00    +0.230 C 
ENDBRANCH  32  34
ENDBRANCH   1  32
TORSDOF 11
