REMARK  Name = ZINC13500117
REMARK  10 active torsions:
REMARK  status: ('A' for Active; 'I' for Inactive)
REMARK    1  A    between atoms: C_1  and  C_2
REMARK    2  A    between atoms: C_2  and  C_3
REMARK    3  A    between atoms: C_3  and  C_4
REMARK    4  A    between atoms: C_4  and  C_6
REMARK    5  A    between atoms: C_4  and  N_72
REMARK    6  A    between atoms: N_10  and  C_11
REMARK    7  A    between atoms: C_16  and  C_17
REMARK    8  A    between atoms: C_16  and  N_72
REMARK    9  A    between atoms: C_23  and  C_29
REMARK   10  A    between atoms: C_30  and  N_72
REMARK                            x       y       z     vdW  Elec       q    Type
REMARK                         _______ _______ _______ _____ _____    ______ ____
ROOT
ATOM      1  N   UNL     1       1.519  -3.116   5.226  0.00  0.00    +0.391 N 
ATOM      2  H   UNL     1       1.929  -3.509   4.370  0.00  0.00    -0.080 HD
ENDROOT
BRANCH   1   3
ATOM      3  C   UNL     1       2.206  -1.848   5.548  0.00  0.00    -0.067 C 
ATOM      4  C   UNL     1       3.714  -2.101   5.597  0.00  0.00    -0.015 C 
ATOM      5  C   UNL     1       4.441  -0.791   5.908  0.00  0.00    -0.002 C 
ATOM      6  C   UNL     1       3.970  -0.255   7.261  0.00  0.00    -0.000 C 
ATOM      7  C   UNL     1       2.462  -0.002   7.213  0.00  0.00    -0.002 C 
ATOM      8  C   UNL     1       1.735  -1.312   6.901  0.00  0.00    -0.015 C 
ENDBRANCH   1   3
BRANCH   1   9
ATOM      9  C   UNL     1       1.697  -4.082   6.330  0.00  0.00    +0.003 C 
BRANCH   9  10
ATOM     10  C   UNL     1       0.766  -3.757   7.470  0.00  0.00    +0.138 A 
ATOM     11  N   UNL     1      -0.508  -3.465   7.380  0.00  0.00    -0.115 NA
ATOM     12  N   UNL     1      -0.952  -3.252   8.571  0.00  0.00    -0.023 NA
ATOM     13  N   UNL     1       0.007  -3.394   9.417  0.00  0.00    -0.044 NA
ATOM     14  N   UNL     1       1.084  -3.706   8.777  0.00  0.00    -0.228 N 
BRANCH  14  15
ATOM     15  C   UNL     1       2.403  -3.956   9.363  0.00  0.00    +0.111 C 
ATOM     16  C   UNL     1       2.315  -5.104  10.390  0.00  0.00    +0.027 C 
ATOM     17  C   UNL     1       3.289  -4.678  11.518  0.00  0.00    +0.002 C 
ATOM     18  C   UNL     1       3.071  -3.147  11.599  0.00  0.00    +0.002 C 
ATOM     19  C   UNL     1       2.884  -2.713  10.131  0.00  0.00    +0.027 C 
ENDBRANCH  14  15
ENDBRANCH   9  10
BRANCH   9  20
ATOM     20  C   UNL     1       1.392  -5.487   5.807  0.00  0.00    -0.008 C 
BRANCH  20  22
ATOM     21  C   UNL     1       2.033  -7.213   4.118  0.00  0.00    +0.004 C 
ATOM     22  C   UNL     1       2.409  -5.861   4.727  0.00  0.00    -0.005 C 
ENDBRANCH  20  22
ENDBRANCH   9  20
ENDBRANCH   1   9
BRANCH   1  23
ATOM     23  C   UNL     1       0.080  -2.868   4.999  0.00  0.00    -0.036 C 
BRANCH  23  24
ATOM     24  C   UNL     1      -0.100  -2.302   3.614  0.00  0.00    +0.001 A 
ATOM     25  C   UNL     1      -0.366  -3.131   2.574  0.00  0.00    +0.017 A 
ATOM     26  C   UNL     1      -0.536  -2.549   1.242  0.00  0.00    -0.001 A 
ATOM     27  C   UNL     1      -0.812  -3.353   0.131  0.00  0.00    +0.010 A 
ATOM     28  C   UNL     1      -0.964  -2.780  -1.099  0.00  0.00    +0.001 A 
ATOM     29  C   UNL     1      -0.853  -1.405  -1.256  0.00  0.00    +0.005 A 
ATOM     30  C   UNL     1      -0.575  -0.594  -0.178  0.00  0.00    -0.026 A 
ATOM     31  C   UNL     1      -0.415  -1.155   1.085  0.00  0.00    +0.052 A 
ATOM     32  N   UNL     1      -0.142  -0.367   2.183  0.00  0.00    -0.322 N 
ATOM     33  H   UNL     1      -0.060   0.593   2.073  0.00  0.00    +0.169 HD
ATOM     34  C   UNL     1       0.011  -0.911   3.403  0.00  0.00    +0.251 A 
ATOM     35  O   UNL     1       0.252  -0.183   4.351  0.00  0.00    -0.268 OA
ATOM     36  C   UNL     1      -0.449   0.896  -0.364  0.00  0.00    +0.046 C 
ENDBRANCH  23  24
ENDBRANCH   1  23
TORSDOF 8
