REMARK  Name = ZINC54098577
REMARK  7 active torsions:
REMARK  status: ('A' for Active; 'I' for Inactive)
REMARK    1  A    between atoms: C_1  and  C_2
REMARK    2  A    between atoms: C_5  and  C_9
REMARK    3  A    between atoms: C_6  and  O_8
REMARK    4  A    between atoms: N_11  and  N_12
REMARK    5  A    between atoms: C_13  and  C_15
REMARK    6  A    between atoms: C_18  and  N_21
REMARK    7  A    between atoms: C_25  and  C_28
REMARK                            x       y       z     vdW  Elec       q    Type
REMARK                         _______ _______ _______ _____ _____    ______ ____
ROOT
ATOM      1  N   UNL     1       0.062  -6.317  -1.222  0.00  0.00    -0.230 N 
ATOM      2  C   UNL     1       0.081  -6.979  -2.396  0.00  0.00    +0.260 C 
ATOM      3  O   UNL     1       0.083  -6.362  -3.443  0.00  0.00    -0.269 OA
ATOM      4  H   UNL     1       0.061  -6.809  -0.387  0.00  0.00    +0.173 HD
ENDROOT
BRANCH   2   5
ATOM      5  C   UNL     1       0.100  -8.454  -2.409  0.00  0.00    +0.038 A 
ATOM      6  C   UNL     1       0.093  -9.166  -1.206  0.00  0.00    +0.015 A 
ATOM      7  C   UNL     1       0.110 -10.542  -1.222  0.00  0.00    +0.024 A 
ATOM      8  C   UNL     1       0.136 -11.225  -2.435  0.00  0.00    +0.030 A 
ATOM      9  C   UNL     1       0.144 -10.520  -3.635  0.00  0.00    +0.024 A 
ATOM     10  C   UNL     1       0.120  -9.144  -3.625  0.00  0.00    +0.015 A 
BRANCH   8  11
ATOM     11  N   UNL     1       0.154 -12.616  -2.447  0.00  0.00    -0.329 N 
ATOM     12  C   UNL     1       0.059 -13.354  -3.714  0.00  0.00    +0.105 C 
ATOM     13  C   UNL     1       1.236 -14.330  -3.806  0.00  0.00    +0.020 C 
ATOM     14  C   UNL     1       1.255 -15.219  -2.560  0.00  0.00    +0.016 C 
ATOM     15  C   UNL     1       1.444 -14.350  -1.314  0.00  0.00    +0.092 C 
ATOM     16  C   UNL     1       0.275 -13.374  -1.195  0.00  0.00    +0.117 C 
BRANCH  15  17
ATOM     17  C   UNL     1       1.495 -15.229  -0.091  0.00  0.00    +0.215 C 
ATOM     18  O   UNL     1       0.675 -15.088   0.791  0.00  0.00    -0.276 OA
ATOM     19  N   UNL     1       2.452 -16.171   0.022  0.00  0.00    -0.329 N 
ATOM     20  H   UNL     1       3.108 -16.284  -0.684  0.00  0.00    +0.145 HD
ATOM     21  H   UNL     1       2.485 -16.737   0.809  0.00  0.00    +0.145 HD
ENDBRANCH  15  17
ENDBRANCH   8  11
ENDBRANCH   2   5
BRANCH   1  24
ATOM     22  C   UNL     1       0.025  -4.253  -0.036  0.00  0.00    +0.264 C 
ATOM     23  O   UNL     1       0.023  -4.870   1.011  0.00  0.00    -0.269 OA
ATOM     24  N   UNL     1       0.044  -4.916  -1.209  0.00  0.00    -0.230 N 
ATOM     25  H   UNL     1       0.045  -4.423  -2.045  0.00  0.00    +0.173 HD
BRANCH  22  30
ATOM     26  C   UNL     1      -0.052   1.502   0.010  0.00  0.00    +0.044 C 
ATOM     27  C   UNL     1      -0.031  -0.004   0.002  0.00  0.00    -0.047 A 
ATOM     28  C   UNL     1      -0.011  -0.686  -1.204  0.00  0.00    +0.004 A 
ATOM     29  C   UNL     1       0.008  -2.064  -1.224  0.00  0.00    +0.017 A 
ATOM     30  C   UNL     1       0.006  -2.778  -0.022  0.00  0.00    +0.079 A 
ATOM     31  C   UNL     1      -0.015  -2.084   1.195  0.00  0.00    +0.129 A 
ATOM     32  C   UNL     1      -0.028  -0.697   1.196  0.00  0.00    +0.049 A 
BRANCH  31  33
ATOM     33  O   UNL     1      -0.017  -2.767   2.368  0.00  0.00    -0.506 OA
ATOM     34  H   UNL     1       0.865  -2.953   2.716  0.00  0.00    +0.292 HD
ENDBRANCH  31  33
ENDBRANCH  22  30
ENDBRANCH   1  24
TORSDOF 6
