REMARK  Name = ZINC23157663
REMARK  7 active torsions:
REMARK  status: ('A' for Active; 'I' for Inactive)
REMARK    1  A    between atoms: C_1  and  C_2
REMARK    2  A    between atoms: C_7  and  O_34
REMARK    3  A    between atoms: C_8  and  C_10
REMARK    4  A    between atoms: C_10  and  C_12
REMARK    5  A    between atoms: C_10  and  N_21
REMARK    6  A    between atoms: C_15  and  N_18
REMARK    7  A    between atoms: N_24  and  C_27
REMARK                            x       y       z     vdW  Elec       q    Type
REMARK                         _______ _______ _______ _____ _____    ______ ____
ROOT
ATOM      1  C   UNL     1       1.406  -2.157  -0.022  0.00  0.00    +0.129 C 
ENDROOT
BRANCH   1   9
ATOM      2  C   UNL     1      -0.357   5.062   0.614  0.00  0.00    +0.090 C 
ATOM      3  C   UNL     1       0.154   3.651   0.476  0.00  0.00    +0.150 A 
ATOM      4  N   UNL     1       1.433   3.304   0.344  0.00  0.00    -0.205 NA
ATOM      5  C   UNL     1       1.520   2.006   0.249  0.00  0.00    +0.199 A 
ATOM      6  N   UNL     1       0.275   1.458   0.317  0.00  0.00    -0.173 N 
ATOM      7  N   UNL     1      -0.586   2.576   0.470  0.00  0.00    -0.147 NA
ATOM      8  C   UNL     1       0.184   0.090   0.232  0.00  0.00    +0.228 A 
ATOM      9  C   UNL     1       1.283  -0.659   0.089  0.00  0.00    +0.076 A 
ATOM     10  S   UNL     1       2.567   0.582   0.064  0.00  0.00    -0.047 S 
BRANCH   8  11
ATOM     11  O   UNL     1      -1.036  -0.509   0.294  0.00  0.00    -0.492 OA
ATOM     12  H   UNL     1      -1.115  -1.604   0.227  0.00  0.00    +0.294 HD
ENDBRANCH   8  11
ENDBRANCH   1   9
BRANCH   1  13
ATOM     13  C   UNL     1       1.948  -2.714   1.269  0.00  0.00    -0.025 A 
ATOM     14  C   UNL     1       3.283  -2.550   1.586  0.00  0.00    +0.008 A 
ATOM     15  C   UNL     1       3.779  -3.057   2.773  0.00  0.00    +0.033 A 
ATOM     16  C   UNL     1       2.941  -3.736   3.638  0.00  0.00    +0.126 A 
ATOM     17  C   UNL     1       1.607  -3.905   3.318  0.00  0.00    +0.033 A 
ATOM     18  C   UNL     1       1.110  -3.394   2.134  0.00  0.00    +0.008 A 
BRANCH  16  19
ATOM     19  N   UNL     1       3.473  -4.283   4.906  0.00  0.00    +0.056 N 
ATOM     20  O   UNL     1       2.735  -4.881   5.668  0.00  0.00    -0.126 OA
ATOM     21  O   UNL     1       4.649  -4.134   5.188  0.00  0.00    -0.126 OA
ENDBRANCH  16  19
ENDBRANCH   1  13
BRANCH   1  22
ATOM     22  N   UNL     1       2.320  -2.494  -1.122  0.00  0.00    -0.288 NA
ATOM     23  C   UNL     1       1.866  -1.897  -2.386  0.00  0.00    +0.104 C 
ATOM     24  C   UNL     1       2.884  -2.203  -3.487  0.00  0.00    +0.120 C 
ATOM     25  N   UNL     1       3.035  -3.659  -3.619  0.00  0.00    -0.325 N 
ATOM     26  C   UNL     1       3.490  -4.255  -2.356  0.00  0.00    +0.120 C 
ATOM     27  C   UNL     1       2.471  -3.949  -1.255  0.00  0.00    +0.104 C 
BRANCH  25  28
ATOM     28  C   UNL     1       3.905  -3.978  -4.666  0.00  0.00    +0.065 A 
ATOM     29  C   UNL     1       4.127  -5.306  -5.006  0.00  0.00    +0.026 A 
ATOM     30  C   UNL     1       4.985  -5.619  -6.043  0.00  0.00    +0.002 A 
ATOM     31  C   UNL     1       5.629  -4.612  -6.738  0.00  0.00    +0.003 A 
ATOM     32  C   UNL     1       5.415  -3.288  -6.401  0.00  0.00    +0.040 A 
ATOM     33  C   UNL     1       4.555  -2.967  -5.366  0.00  0.00    +0.144 A 
ATOM     34  F   UNL     1       4.347  -1.674  -5.036  0.00  0.00    -0.204 F 
ENDBRANCH  25  28
ENDBRANCH   1  22
TORSDOF 6
