REMARK  Name = ZINC41545471
REMARK  4 active torsions:
REMARK  status: ('A' for Active; 'I' for Inactive)
REMARK    1  A    between atoms: C_1  and  C_2
REMARK    2  A    between atoms: C_8  and  C_12
REMARK    3  A    between atoms: C_18  and  C_20
REMARK    4  A    between atoms: C_20  and  C_31
REMARK                            x       y       z     vdW  Elec       q    Type
REMARK                         _______ _______ _______ _____ _____    ______ ____
ROOT
ATOM      1  C   UNL     1      -0.313   1.110   2.719  0.00  0.00    -0.039 C 
ATOM      2  C   UNL     1       0.832   1.740   2.596  0.00  0.00    -0.004 C 
ATOM      3  C   UNL     1       1.116   3.072   3.234  0.00  0.00    +0.135 C 
ATOM      4  N   UNL     1      -0.137   3.634   3.757  0.00  0.00    -0.294 N 
ATOM      5  C   UNL     1      -1.043   2.719   4.473  0.00  0.00    +0.113 C 
ATOM      6  C   UNL     1      -1.491   1.635   3.486  0.00  0.00    +0.054 C 
ATOM      7  C   UNL     1      -0.446   4.935   3.587  0.00  0.00    +0.269 C 
ATOM      8  O   UNL     1      -1.527   5.353   3.943  0.00  0.00    -0.271 OA
ENDROOT
BRANCH   7   9
ATOM      9  C   UNL     1       0.553   5.871   2.957  0.00  0.00    +0.258 C 
ATOM     10  C   UNL     1       0.214   7.292   3.328  0.00  0.00    +0.270 C 
ATOM     11  O   UNL     1      -0.490   7.960   2.601  0.00  0.00    -0.271 OA
ATOM     12  N   UNL     1       0.696   7.818   4.474  0.00  0.00    -0.279 N 
ATOM     13  C   UNL     1       1.609   7.076   5.236  0.00  0.00    +0.076 A 
ATOM     14  C   UNL     1       1.948   7.479   6.518  0.00  0.00    +0.027 A 
ATOM     15  C   UNL     1       2.839   6.728   7.262  0.00  0.00    +0.002 A 
ATOM     16  C   UNL     1       3.392   5.577   6.730  0.00  0.00    +0.004 A 
ATOM     17  C   UNL     1       3.062   5.173   5.450  0.00  0.00    +0.047 A 
ATOM     18  C   UNL     1       2.174   5.922   4.697  0.00  0.00    +0.144 A 
ATOM     19  O   UNL     1       1.865   5.551   3.425  0.00  0.00    -0.465 OA
ATOM     20  C   UNL     1       0.505   5.717   1.435  0.00  0.00    +0.076 C 
ATOM     21  H   UNL     1       0.415   8.699   4.766  0.00  0.00    +0.155 HD
ENDBRANCH   7   9
BRANCH   1  29
ATOM     22  C   UNL     1      -0.631   1.887  -0.341  0.00  0.00    +0.044 C 
ATOM     23  C   UNL     1      -0.721   0.392  -0.503  0.00  0.00    -0.041 A 
ATOM     24  C   UNL     1      -0.888  -0.161  -1.754  0.00  0.00    +0.004 A 
ATOM     25  C   UNL     1      -0.971  -1.537  -1.907  0.00  0.00    +0.002 A 
ATOM     26  C   UNL     1      -0.890  -2.371  -0.813  0.00  0.00    +0.026 A 
ATOM     27  C   UNL     1      -0.722  -1.834   0.459  0.00  0.00    +0.047 A 
ATOM     28  C   UNL     1      -0.632  -0.440   0.612  0.00  0.00    +0.010 A 
ATOM     29  C   UNL     1      -0.453  -0.200   2.054  0.00  0.00    +0.003 A 
ATOM     30  C   UNL     1      -0.443  -1.419   2.652  0.00  0.00    +0.091 A 
ATOM     31  N   UNL     1      -0.610  -2.394   1.713  0.00  0.00    -0.360 N 
ATOM     32  H   UNL     1      -0.636  -3.346   1.900  0.00  0.00    +0.165 HD
ENDBRANCH   1  29
TORSDOF 2
