REMARK  Name = ZINC08597664
REMARK  6 active torsions:
REMARK  status: ('A' for Active; 'I' for Inactive)
REMARK    1  A    between atoms: C_5  and  C_7
REMARK    2  A    between atoms: C_7  and  N_8
REMARK    3  A    between atoms: C_11  and  C_25
REMARK    4  A    between atoms: N_27  and  C_28
REMARK    5  A    between atoms: C_28  and  C_29
REMARK    6  A    between atoms: C_29  and  C_30
REMARK                            x       y       z     vdW  Elec       q    Type
REMARK                         _______ _______ _______ _____ _____    ______ ____
ROOT
ATOM      1  N   UNL     1       1.369  -2.677   1.351  0.00  0.00    -0.262 N 
ATOM      2  C   UNL     1       2.675  -2.814   1.786  0.00  0.00    +0.054 A 
ATOM      3  C   UNL     1       3.574  -1.782   1.520  0.00  0.00    +0.037 A 
ATOM      4  C   UNL     1       4.898  -1.880   1.937  0.00  0.00    +0.039 A 
ATOM      5  C   UNL     1       5.327  -3.018   2.623  0.00  0.00    +0.014 A 
ATOM      6  C   UNL     1       4.434  -4.035   2.883  0.00  0.00    +0.020 A 
ATOM      7  C   UNL     1       3.116  -3.936   2.469  0.00  0.00    +0.065 A 
ATOM      8  S   UNL     1       2.002  -5.254   2.827  0.00  0.00    +0.088 S 
ATOM      9  O   UNL     1       1.346  -5.496   1.589  0.00  0.00    -0.247 OA
ATOM     10  C   UNL     1       0.764  -4.495   3.824  0.00  0.00    +0.056 A 
ATOM     11  C   UNL     1       0.537  -4.956   5.104  0.00  0.00    +0.018 A 
ATOM     12  C   UNL     1      -0.434  -4.368   5.894  0.00  0.00    +0.001 A 
ATOM     13  C   UNL     1      -1.183  -3.314   5.400  0.00  0.00    +0.001 A 
ATOM     14  C   UNL     1      -0.964  -2.845   4.124  0.00  0.00    +0.014 A 
ATOM     15  C   UNL     1       0.019  -3.433   3.316  0.00  0.00    +0.053 A 
ATOM     16  C   UNL     1       0.240  -2.910   1.966  0.00  0.00    +0.252 C 
ATOM     17  O   UNL     1      -0.765  -2.662   1.329  0.00  0.00    -0.270 OA
ENDROOT
BRANCH   4  18
ATOM     18  C   UNL     1       5.847  -0.782   1.654  0.00  0.00    +0.244 C 
ATOM     19  O   UNL     1       5.471   0.208   1.057  0.00  0.00    -0.270 OA
ATOM     20  N   UNL     1       7.129  -0.879   2.058  0.00  0.00    -0.311 N 
ATOM     21  H   UNL     1       7.429  -1.670   2.534  0.00  0.00    +0.149 HD
BRANCH  20  22
ATOM     22  C   UNL     1       8.070   0.208   1.778  0.00  0.00    +0.109 C 
BRANCH  22  23
ATOM     23  C   UNL     1       9.447  -0.152   2.339  0.00  0.00    +0.049 C 
BRANCH  23  24
ATOM     24  C   UNL     1      10.415   0.967   2.051  0.00  0.00    -0.072 C 
ATOM     25  C   UNL     1      10.606   1.856   2.972  0.00  0.00    -0.028 C 
ATOM     26  C   UNL     1      11.529   3.031   2.828  0.00  0.00    +0.027 C 
ATOM     27  C   UNL     1      12.497   2.801   1.666  0.00  0.00    +0.004 C 
ATOM     28  C   UNL     1      11.687   2.366   0.438  0.00  0.00    +0.005 C 
ATOM     29  C   UNL     1      11.101   0.978   0.717  0.00  0.00    +0.030 C 
ENDBRANCH  23  24
ENDBRANCH  22  23
ENDBRANCH  20  22
ENDBRANCH   4  18
BRANCH   1  30
ATOM     30  C   UNL     1       1.228  -2.186  -0.022  0.00  0.00    +0.152 C 
BRANCH  30  35
ATOM     31  C   UNL     1       2.666  -4.645  -2.499  0.00  0.00    +0.000 A 
ATOM     32  C   UNL     1       1.576  -5.458  -2.749  0.00  0.00    +0.003 A 
ATOM     33  C   UNL     1       0.372  -5.213  -2.116  0.00  0.00    +0.038 A 
ATOM     34  C   UNL     1       0.258  -4.153  -1.232  0.00  0.00    +0.128 A 
ATOM     35  C   UNL     1       1.351  -3.340  -0.983  0.00  0.00    +0.005 A 
ATOM     36  C   UNL     1       2.554  -3.587  -1.617  0.00  0.00    +0.008 A 
ATOM     37  F   UNL     1      -0.919  -3.912  -0.614  0.00  0.00    -0.205 F 
ENDBRANCH  30  35
ENDBRANCH   1  30
TORSDOF 6
