REMARK  Name = ZINC05909879
REMARK  11 active torsions:
REMARK  status: ('A' for Active; 'I' for Inactive)
REMARK    1  A    between atoms: C_1  and  C_2
REMARK    2  A    between atoms: C_2  and  C_20
REMARK    3  A    between atoms: N_3  and  N_4
REMARK    4  A    between atoms: C_5  and  C_7
REMARK    5  A    between atoms: C_7  and  O_8
REMARK    6  A    between atoms: O_8  and  C_9
REMARK    7  A    between atoms: C_12  and  C_16
REMARK    8  A    between atoms: C_16  and  C_17
REMARK    9  A    between atoms: C_16  and  C_18
REMARK   10  A    between atoms: C_16  and  C_19
REMARK   11  A    between atoms: C_23  and  N_26
REMARK                            x       y       z     vdW  Elec       q    Type
REMARK                         _______ _______ _______ _____ _____    ______ ____
ROOT
ATOM      1  N   UNL     1      -1.026  -1.642   1.345  0.00  0.00    -0.204 N 
ATOM      2  C   UNL     1      -1.517  -2.000   2.548  0.00  0.00    +0.270 C 
ATOM      3  O   UNL     1      -1.406  -1.250   3.495  0.00  0.00    -0.270 OA
ATOM      4  H   UNL     1      -1.114  -2.242   0.587  0.00  0.00    +0.177 HD
ENDROOT
BRANCH   1   7
ATOM      5  C   UNL     1       0.814   1.238  -0.142  0.00  0.00    +0.068 C 
ATOM      6  C   UNL     1      -0.009  -0.015   0.009  0.00  0.00    +0.063 C 
ATOM      7  N   UNL     1      -0.387  -0.405   1.188  0.00  0.00    -0.184 NA
BRANCH   6   8
ATOM      8  C   UNL     1      -0.386  -0.796  -1.182  0.00  0.00    -0.002 A 
ATOM      9  C   UNL     1      -1.655  -1.376  -1.267  0.00  0.00    +0.011 A 
ATOM     10  C   UNL     1      -2.004  -2.106  -2.382  0.00  0.00    +0.023 A 
ATOM     11  C   UNL     1      -1.095  -2.266  -3.423  0.00  0.00    +0.025 A 
ATOM     12  C   UNL     1       0.168  -1.691  -3.342  0.00  0.00    +0.023 A 
ATOM     13  C   UNL     1       0.522  -0.956  -2.232  0.00  0.00    +0.011 A 
BRANCH  11  14
ATOM     14  N   UNL     1      -1.452  -3.006  -4.550  0.00  0.00    -0.358 N 
ATOM     15  H   UNL     1      -2.333  -3.408  -4.607  0.00  0.00    +0.142 HD
ATOM     16  H   UNL     1      -0.819  -3.119  -5.276  0.00  0.00    +0.142 HD
ENDBRANCH  11  14
ENDBRANCH   6   8
ENDBRANCH   1   7
BRANCH   2  17
ATOM     17  C   UNL     1      -2.204  -3.330   2.717  0.00  0.00    +0.326 C 
BRANCH  17  18
ATOM     18  O   UNL     1      -2.633  -3.476   4.072  0.00  0.00    -0.482 OA
BRANCH  18  19
ATOM     19  C   UNL     1      -3.275  -4.630   4.395  0.00  0.00    +0.135 A 
ATOM     20  C   UNL     1      -3.483  -5.603   3.429  0.00  0.00    +0.047 A 
ATOM     21  C   UNL     1      -4.136  -6.775   3.759  0.00  0.00    +0.008 A 
ATOM     22  C   UNL     1      -4.583  -6.978   5.052  0.00  0.00    -0.041 A 
ATOM     23  C   UNL     1      -4.378  -6.010   6.017  0.00  0.00    +0.023 A 
ATOM     24  C   UNL     1      -3.720  -4.838   5.693  0.00  0.00    +0.060 A 
ATOM     25 BR   UNL     1      -3.432  -3.517   7.015  0.00  0.00    -0.047 Br
BRANCH  22  26
ATOM     26  C   UNL     1      -5.295  -8.257   5.409  0.00  0.00    -0.013 C 
ATOM     27  C   UNL     1      -4.370  -9.447   5.146  0.00  0.00    +0.015 C 
ATOM     28  C   UNL     1      -5.682  -8.229   6.889  0.00  0.00    +0.015 C 
ATOM     29  C   UNL     1      -6.558  -8.393   4.555  0.00  0.00    +0.015 C 
ENDBRANCH  22  26
ENDBRANCH  18  19
ENDBRANCH  17  18
ENDBRANCH   2  17
TORSDOF 7
