REMARK  Name = ZINC21239510
REMARK  6 active torsions:
REMARK  status: ('A' for Active; 'I' for Inactive)
REMARK    1  A    between atoms: C_1  and  C_2
REMARK    2  A    between atoms: C_5  and  C_11
REMARK    3  A    between atoms: C_7  and  N_8
REMARK    4  A    between atoms: C_16  and  C_21
REMARK    5  A    between atoms: C_25  and  O_27
REMARK    6  A    between atoms: O_27  and  C_28
REMARK                            x       y       z     vdW  Elec       q    Type
REMARK                         _______ _______ _______ _____ _____    ______ ____
ROOT
ATOM      1  C   UNL     1       0.922  -1.008   1.512  0.00  0.00    +0.136 C 
ATOM      2  C   UNL     1       2.321  -0.545   1.841  0.00  0.00    +0.036 C 
ATOM      3  C   UNL     1       3.036   0.357   1.148  0.00  0.00    +0.017 C 
ATOM      4  C   UNL     1       4.441   0.733   1.592  0.00  0.00    +0.059 C 
ATOM      5  C   UNL     1       4.553   0.634   3.112  0.00  0.00    +0.032 C 
ATOM      6  C   UNL     1       4.234  -0.812   3.510  0.00  0.00    +0.088 C 
ATOM      7  C   UNL     1       2.868  -1.155   2.995  0.00  0.00    +0.163 C 
ATOM      8  O   UNL     1       2.207  -1.984   3.589  0.00  0.00    -0.292 OA
ATOM      9  N   UNL     1       2.613   0.988   0.022  0.00  0.00    -0.316 N 
ATOM     10  C   UNL     1       1.366   1.582  -0.136  0.00  0.00    +0.052 A 
ATOM     11  C   UNL     1       1.215   2.939  -0.360  0.00  0.00    +0.025 A 
ATOM     12  C   UNL     1      -0.051   3.451  -0.590  0.00  0.00    +0.002 A 
ATOM     13  C   UNL     1      -1.151   2.613  -0.595  0.00  0.00    +0.002 A 
ATOM     14  C   UNL     1      -1.003   1.260  -0.347  0.00  0.00    +0.025 A 
ATOM     15  C   UNL     1       0.260   0.746  -0.097  0.00  0.00    +0.049 A 
ATOM     16  N   UNL     1       0.448  -0.600   0.207  0.00  0.00    -0.331 N 
ATOM     17  H   UNL     1       3.276   1.055  -0.853  0.00  0.00    +0.152 HD
ATOM     18  H   UNL     1       0.230  -1.357  -0.561  0.00  0.00    +0.147 HD
ENDROOT
BRANCH   1  23
ATOM     19  C   UNL     1      -2.678   1.098   5.512  0.00  0.00    +0.046 C 
ATOM     20  C   UNL     1      -1.739   0.549   4.469  0.00  0.00    -0.020 A 
ATOM     21  C   UNL     1      -1.070   1.410   3.619  0.00  0.00    +0.006 A 
ATOM     22  C   UNL     1      -0.205   0.907   2.666  0.00  0.00    +0.006 A 
ATOM     23  C   UNL     1      -0.017  -0.459   2.555  0.00  0.00    -0.021 A 
ATOM     24  C   UNL     1      -0.687  -1.320   3.404  0.00  0.00    +0.038 A 
ATOM     25  C   UNL     1      -1.548  -0.816   4.361  0.00  0.00    +0.129 A 
BRANCH  25  26
ATOM     26  N   UNL     1      -2.264  -1.738   5.271  0.00  0.00    +0.057 N 
ATOM     27  O   UNL     1      -2.446  -1.426   6.435  0.00  0.00    -0.126 OA
ATOM     28  O   UNL     1      -2.672  -2.808   4.856  0.00  0.00    -0.126 OA
ENDBRANCH  25  26
ENDBRANCH   1  23
BRANCH   5  29
ATOM     29  C   UNL     1       5.953   0.986   3.545  0.00  0.00    -0.040 A 
ATOM     30  C   UNL     1       7.028   0.261   3.063  0.00  0.00    +0.004 A 
ATOM     31  C   UNL     1       8.314   0.585   3.455  0.00  0.00    +0.004 A 
ATOM     32  C   UNL     1       8.527   1.626   4.337  0.00  0.00    +0.045 A 
ATOM     33  C   UNL     1       7.450   2.351   4.826  0.00  0.00    +0.120 A 
ATOM     34  C   UNL     1       6.161   2.028   4.428  0.00  0.00    +0.049 A 
BRANCH  33  35
ATOM     35  O   UNL     1       7.657   3.376   5.695  0.00  0.00    -0.495 OA
ATOM     36  C   UNL     1       9.011   3.652   6.061  0.00  0.00    +0.277 C 
ENDBRANCH  33  35
ENDBRANCH   5  29
TORSDOF 4
