REMARK  Name = ZINC59460537
REMARK  7 active torsions:
REMARK  status: ('A' for Active; 'I' for Inactive)
REMARK    1  A    between atoms: C_9  and  S_11
REMARK    2  A    between atoms: S_11  and  C_12
REMARK    3  A    between atoms: C_12  and  C_13
REMARK    4  A    between atoms: C_13  and  C_25
REMARK    5  A    between atoms: N_14  and  N_15
REMARK    6  A    between atoms: N_15  and  C_16
REMARK    7  A    between atoms: C_19  and  N_22
REMARK                            x       y       z     vdW  Elec       q    Type
REMARK                         _______ _______ _______ _____ _____    ______ ____
ROOT
ATOM      1  C   UNL     1       6.533  -4.177  -0.094  0.00  0.00    +0.077 C 
ATOM      2  N   UNL     1       5.837  -5.200  -0.487  0.00  0.00    -0.186 NA
ENDROOT
BRANCH   1   3
ATOM      3  C   UNL     1       7.950  -4.056  -0.483  0.00  0.00    -0.000 A 
ATOM      4  C   UNL     1       8.361  -4.433  -1.764  0.00  0.00    +0.010 A 
ATOM      5  C   UNL     1       9.688  -4.317  -2.121  0.00  0.00    +0.002 A 
ATOM      6  C   UNL     1      10.612  -3.827  -1.215  0.00  0.00    +0.015 A 
ATOM      7  C   UNL     1      10.213  -3.451   0.056  0.00  0.00    +0.018 A 
ATOM      8  C   UNL     1       8.887  -3.557   0.425  0.00  0.00    +0.025 A 
ATOM      9 BR   UNL     1      11.485  -2.784   1.286  0.00  0.00    -0.050 Br
ENDBRANCH   1   3
BRANCH   2  10
ATOM     10  N   UNL     1       6.465  -6.258  -1.157  0.00  0.00    -0.237 N 
ATOM     11  H   UNL     1       7.430  -6.265  -1.256  0.00  0.00    +0.174 HD
BRANCH  10  12
ATOM     12  C   UNL     1       5.702  -7.302  -1.681  0.00  0.00    +0.048 A 
ATOM     13  C   UNL     1       4.319  -7.291  -1.545  0.00  0.00    +0.027 A 
ATOM     14  C   UNL     1       3.567  -8.326  -2.065  0.00  0.00    +0.034 A 
ATOM     15  C   UNL     1       4.189  -9.373  -2.720  0.00  0.00    +0.126 A 
ATOM     16  C   UNL     1       5.565  -9.388  -2.857  0.00  0.00    +0.034 A 
ATOM     17  C   UNL     1       6.323  -8.354  -2.345  0.00  0.00    +0.027 A 
BRANCH  15  18
ATOM     18  N   UNL     1       3.380 -10.481  -3.276  0.00  0.00    +0.056 N 
ATOM     19  O   UNL     1       2.176 -10.470  -3.157  0.00  0.00    -0.126 OA
ATOM     20  O   UNL     1       3.922 -11.397  -3.850  0.00  0.00    -0.126 OA
ENDBRANCH  15  18
ENDBRANCH  10  12
ENDBRANCH   2  10
BRANCH   1  21
ATOM     21  C   UNL     1       5.893  -3.113   0.761  0.00  0.00    +0.135 C 
BRANCH  21  22
ATOM     22  S   UNL     1       4.157  -3.546   1.065  0.00  0.00    -0.082 S 
BRANCH  22  31
ATOM     23  C   UNL     1       1.466   0.880   4.632  0.00  0.00    +0.002 A 
ATOM     24  C   UNL     1       2.728   1.454   4.570  0.00  0.00    +0.002 A 
ATOM     25  C   UNL     1       3.740   0.840   3.866  0.00  0.00    +0.030 A 
ATOM     26  C   UNL     1       3.495  -0.369   3.211  0.00  0.00    +0.090 A 
ATOM     27  C   UNL     1       2.216  -0.946   3.278  0.00  0.00    +0.067 A 
ATOM     28  C   UNL     1       1.208  -0.314   3.990  0.00  0.00    +0.028 A 
ATOM     29  N   UNL     1       2.283  -2.118   2.543  0.00  0.00    -0.333 N 
ATOM     30  H   UNL     1       1.559  -2.747   2.397  0.00  0.00    +0.168 HD
ATOM     31  C   UNL     1       3.557  -2.224   2.063  0.00  0.00    +0.168 A 
ATOM     32  N   UNL     1       4.267  -1.195   2.457  0.00  0.00    -0.222 NA
ENDBRANCH  22  31
ENDBRANCH  21  22
ENDBRANCH   1  21
TORSDOF 7
