REMARK  Name = ZINC39944011
REMARK  10 active torsions:
REMARK  status: ('A' for Active; 'I' for Inactive)
REMARK    1  A    between atoms: C_1  and  O_2
REMARK    2  A    between atoms: O_2  and  C_3
REMARK    3  A    between atoms: C_5  and  C_19
REMARK    4  A    between atoms: C_8  and  O_9
REMARK    5  A    between atoms: O_9  and  C_10
REMARK    6  A    between atoms: C_10  and  C_11
REMARK    7  A    between atoms: C_19  and  O_21
REMARK    8  A    between atoms: O_21  and  C_22
REMARK    9  A    between atoms: C_22  and  C_23
REMARK   10  A    between atoms: C_23  and  C_25
REMARK                            x       y       z     vdW  Elec       q    Type
REMARK                         _______ _______ _______ _____ _____    ______ ____
ROOT
ATOM      1  C   UNL     1       0.606  -0.608  -1.056  0.00  0.00    +0.162 A 
ATOM      2  C   UNL     1       1.171   0.158  -2.058  0.00  0.00    +0.064 A 
ATOM      3  C   UNL     1       1.791  -0.466  -3.145  0.00  0.00    +0.063 A 
ATOM      4  C   UNL     1       1.837  -1.861  -3.212  0.00  0.00    +0.019 A 
ATOM      5  C   UNL     1       1.272  -2.618  -2.210  0.00  0.00    +0.050 A 
ATOM      6  C   UNL     1       0.661  -1.999  -1.128  0.00  0.00    +0.162 A 
ENDROOT
BRANCH   1   8
ATOM      7  C   UNL     1      -0.017   1.425   0.010  0.00  0.00    +0.277 C 
ATOM      8  O   UNL     1       0.002  -0.004   0.002  0.00  0.00    -0.491 OA
ENDBRANCH   1   8
BRANCH   3   9
ATOM      9  C   UNL     1       2.394   0.347  -4.217  0.00  0.00    +0.340 C 
ATOM     10  O   UNL     1       2.353   1.560  -4.157  0.00  0.00    -0.245 OA
BRANCH   9  11
ATOM     11  O   UNL     1       2.992  -0.256  -5.264  0.00  0.00    -0.453 OA
BRANCH  11  12
ATOM     12  C   UNL     1       3.555   0.592  -6.266  0.00  0.00    +0.311 C 
BRANCH  12  13
ATOM     13  C   UNL     1       4.175  -0.253  -7.349  0.00  0.00    +0.199 C 
ATOM     14  O   UNL     1       4.137  -1.464  -7.271  0.00  0.00    -0.289 OA
BRANCH  13  15
ATOM     15  C   UNL     1       4.798   0.364  -8.455  0.00  0.00    +0.026 C 
ATOM     16  C   UNL     1       5.405  -0.262  -9.529  0.00  0.00    +0.006 A 
ATOM     17  C   UNL     1       5.598  -1.622  -9.867  0.00  0.00    +0.010 A 
ATOM     18  C   UNL     1       6.242  -1.956 -11.008  0.00  0.00    +0.001 A 
ATOM     19  C   UNL     1       6.744  -0.994 -11.899  0.00  0.00    +0.002 A 
ATOM     20  C   UNL     1       6.613   0.330 -11.670  0.00  0.00    +0.026 A 
ATOM     21  C   UNL     1       5.923   0.780 -10.449  0.00  0.00    +0.043 A 
ATOM     22  N   UNL     1       5.661   1.969  -9.987  0.00  0.00    -0.380 N 
ATOM     23  C   UNL     1       4.938   1.847  -8.717  0.00  0.00    +0.152 C 
ATOM     24  H   UNL     1       5.903   2.804 -10.417  0.00  0.00    +0.160 HD
ENDBRANCH  13  15
ENDBRANCH  12  13
ENDBRANCH  11  12
ENDBRANCH   9  11
ENDBRANCH   3   9
BRANCH   6  25
ATOM     25  O   UNL     1       0.111  -2.750  -0.139  0.00  0.00    -0.484 OA
BRANCH  25  26
ATOM     26  C   UNL     1       0.202  -4.169  -0.276  0.00  0.00    +0.266 C 
BRANCH  26  27
ATOM     27  C   UNL     1      -0.458  -4.831   0.906  0.00  0.00    +0.008 A 
ATOM     28  C   UNL     1      -1.033  -4.059   1.899  0.00  0.00    +0.010 A 
ATOM     29  C   UNL     1      -1.639  -4.665   2.983  0.00  0.00    +0.020 A 
ATOM     30  C   UNL     1      -1.671  -6.046   3.075  0.00  0.00    +0.042 A 
ATOM     31  C   UNL     1      -1.096  -6.819   2.083  0.00  0.00    +0.040 A 
ATOM     32  C   UNL     1      -0.494  -6.211   0.995  0.00  0.00    +0.049 A 
ATOM     33 CL   UNL     1       0.222  -7.181  -0.254  0.00  0.00    -0.083 Cl
ATOM     34 CL   UNL     1      -2.432  -6.807   4.438  0.00  0.00    -0.083 Cl
ENDBRANCH  26  27
ENDBRANCH  25  26
ENDBRANCH   6  25
TORSDOF 9
