REMARK  Name = ZINC38981266
REMARK  7 active torsions:
REMARK  status: ('A' for Active; 'I' for Inactive)
REMARK    1  A    between atoms: C_1  and  O_2
REMARK    2  A    between atoms: O_2  and  C_3
REMARK    3  A    between atoms: C_8  and  C_9
REMARK    4  A    between atoms: C_9  and  N_10
REMARK    5  A    between atoms: N_10  and  C_11
REMARK    6  A    between atoms: N_14  and  S_15
REMARK    7  A    between atoms: S_15  and  C_18
REMARK                            x       y       z     vdW  Elec       q    Type
REMARK                         _______ _______ _______ _____ _____    ______ ____
ROOT
ATOM      1  C   UNL     1       1.818  -3.674   1.369  0.00  0.00    +0.220 C 
ATOM      2  C   UNL     1       2.855  -2.865   2.116  0.00  0.00    +0.188 C 
ATOM      3  N   UNL     1       3.177  -1.672   1.713  0.00  0.00    -0.110 NA
ATOM      4  N   UNL     1       3.437  -3.398   3.202  0.00  0.00    -0.226 NA
ATOM      5  C   UNL     1       3.128  -4.604   3.630  0.00  0.00    +0.089 A 
ATOM      6  C   UNL     1       3.763  -5.135   4.782  0.00  0.00    +0.030 A 
ATOM      7  C   UNL     1       3.450  -6.372   5.225  0.00  0.00    +0.002 A 
ATOM      8  C   UNL     1       2.500  -7.188   4.590  0.00  0.00    +0.002 A 
ATOM      9  C   UNL     1       1.836  -6.780   3.486  0.00  0.00    +0.027 A 
ATOM     10  C   UNL     1       2.119  -5.445   2.940  0.00  0.00    +0.063 A 
ATOM     11  N   UNL     1       1.498  -5.017   1.877  0.00  0.00    -0.362 N 
ATOM     12  H   UNL     1       0.839  -5.572   1.431  0.00  0.00    +0.162 HD
ENDROOT
BRANCH   3  13
ATOM     13  S   UNL     1       4.314  -0.797   2.540  0.00  0.00    +0.100 S 
ATOM     14  O   UNL     1       3.758  -0.514   3.817  0.00  0.00    -0.146 OA
ATOM     15  O   UNL     1       5.548  -1.482   2.381  0.00  0.00    -0.146 OA
BRANCH  13  16
ATOM     16  C   UNL     1       4.486   0.749   1.712  0.00  0.00    +0.113 A 
ATOM     17  C   UNL     1       5.410   0.887   0.693  0.00  0.00    +0.032 A 
ATOM     18  C   UNL     1       5.546   2.099   0.043  0.00  0.00    +0.040 A 
ATOM     19  C   UNL     1       4.756   3.175   0.412  0.00  0.00    +0.124 A 
ATOM     20  C   UNL     1       3.830   3.034   1.432  0.00  0.00    +0.040 A 
ATOM     21  C   UNL     1       3.693   1.820   2.078  0.00  0.00    +0.032 A 
ATOM     22  F   UNL     1       4.888   4.360  -0.223  0.00  0.00    -0.205 F 
ENDBRANCH  13  16
ENDBRANCH   3  13
BRANCH   1  23
ATOM     23  N   UNL     1       0.573  -2.894   1.346  0.00  0.00    -0.286 NA
ATOM     24  H   UNL     1       0.718  -1.970   1.722  0.00  0.00    +0.125 HD
BRANCH  23  25
ATOM     25  C   UNL     1       0.018  -2.829  -0.013  0.00  0.00    +0.122 C 
BRANCH  25  31
ATOM     26  C   UNL     1      -1.200  -0.637   0.010  0.00  0.00    +0.124 A 
ATOM     27  C   UNL     1      -2.375   0.101   0.019  0.00  0.00    +0.046 A 
ATOM     28  C   UNL     1      -3.596  -0.545   0.027  0.00  0.00    +0.004 A 
ATOM     29  C   UNL     1      -3.648  -1.927   0.026  0.00  0.00    +0.001 A 
ATOM     30  C   UNL     1      -2.479  -2.665   0.017  0.00  0.00    +0.008 A 
ATOM     31  C   UNL     1      -1.255  -2.023   0.003  0.00  0.00    +0.008 A 
BRANCH  26  33
ATOM     32  C   UNL     1      -0.017   1.425   0.010  0.00  0.00    +0.277 C 
ATOM     33  O   UNL     1       0.002  -0.004   0.002  0.00  0.00    -0.495 OA
ENDBRANCH  26  33
ENDBRANCH  25  31
ENDBRANCH  23  25
ENDBRANCH   1  23
TORSDOF 6
