REMARK  Name = ZINC33937026
REMARK  15 active torsions:
REMARK  status: ('A' for Active; 'I' for Inactive)
REMARK    1  A    between atoms: C_1  and  C_2
REMARK    2  A    between atoms: C_2  and  C_3
REMARK    3  A    between atoms: C_3  and  C_5
REMARK    4  A    between atoms: C_3  and  N_17
REMARK    5  A    between atoms: N_9  and  C_10
REMARK    6  A    between atoms: C_10  and  C_11
REMARK    7  A    between atoms: N_17  and  C_18
REMARK    8  A    between atoms: N_17  and  C_26
REMARK    9  A    between atoms: C_18  and  C_19
REMARK   10  A    between atoms: C_22  and  C_25
REMARK   11  A    between atoms: C_26  and  C_27
REMARK   12  A    between atoms: C_31  and  O_41
REMARK   13  A    between atoms: C_32  and  O_39
REMARK   14  A    between atoms: O_39  and  C_40
REMARK   15  A    between atoms: O_41  and  C_42
REMARK                            x       y       z     vdW  Elec       q    Type
REMARK                         _______ _______ _______ _____ _____    ______ ____
ROOT
ATOM      1  N   UNL     1      -0.797   0.137   3.576  0.00  0.00    +0.392 N 
ATOM      2  H   UNL     1      -1.765   0.391   3.710  0.00  0.00    -0.080 HD
ENDROOT
BRANCH   1   3
ATOM      3  C   UNL     1      -0.693  -1.319   3.403  0.00  0.00    +0.003 C 
BRANCH   3   4
ATOM      4  C   UNL     1      -1.401  -2.011   4.539  0.00  0.00    +0.138 A 
ATOM      5  N   UNL     1      -2.582  -1.713   5.023  0.00  0.00    -0.115 NA
ATOM      6  N   UNL     1      -2.837  -2.533   5.984  0.00  0.00    -0.023 NA
ATOM      7  N   UNL     1      -1.849  -3.346   6.125  0.00  0.00    -0.044 NA
ATOM      8  N   UNL     1      -0.947  -3.061   5.249  0.00  0.00    -0.228 N 
BRANCH   8   9
ATOM      9  C   UNL     1       0.335  -3.747   5.064  0.00  0.00    +0.178 C 
BRANCH   9  10
ATOM     10  C   UNL     1       1.400  -3.082   5.937  0.00  0.00    +0.140 C 
ATOM     11  C   UNL     1       2.742  -3.849   5.826  0.00  0.00    +0.035 C 
ATOM     12  C   UNL     1       3.753  -2.729   6.197  0.00  0.00    +0.031 C 
ATOM     13  C   UNL     1       3.079  -1.471   5.609  0.00  0.00    +0.160 C 
ATOM     14  O   UNL     1       1.682  -1.757   5.459  0.00  0.00    -0.375 OA
ENDBRANCH   9  10
ENDBRANCH   8   9
ENDBRANCH   3   4
BRANCH   3  16
ATOM     15  C   UNL     1      -0.251  -2.112   1.076  0.00  0.00    +0.002 C 
ATOM     16  C   UNL     1      -1.341  -1.722   2.077  0.00  0.00    -0.011 C 
ENDBRANCH   3  16
ENDBRANCH   1   3
BRANCH   1  17
ATOM     17  C   UNL     1      -0.017   0.547   4.751  0.00  0.00    -0.042 C 
BRANCH  17  18
ATOM     18  C   UNL     1      -0.359   1.970   5.110  0.00  0.00    -0.064 A 
ATOM     19  C   UNL     1       0.404   3.010   4.614  0.00  0.00    +0.002 A 
ATOM     20  C   UNL     1       0.090   4.316   4.943  0.00  0.00    +0.003 A 
ATOM     21  C   UNL     1      -0.988   4.581   5.767  0.00  0.00    -0.050 A 
ATOM     22  C   UNL     1      -1.752   3.540   6.262  0.00  0.00    +0.003 A 
ATOM     23  C   UNL     1      -1.440   2.235   5.929  0.00  0.00    +0.002 A 
ATOM     24  C   UNL     1      -1.329   6.004   6.127  0.00  0.00    +0.044 C 
ENDBRANCH  17  18
ENDBRANCH   1  17
BRANCH   1  25
ATOM     25  C   UNL     1      -0.274   0.811   2.381  0.00  0.00    -0.036 C 
BRANCH  25  26
ATOM     26  C   UNL     1      -1.410   1.117   1.439  0.00  0.00    +0.001 A 
ATOM     27  C   UNL     1      -2.623   1.471   1.935  0.00  0.00    +0.017 A 
ATOM     28  C   UNL     1      -3.705   1.762   0.995  0.00  0.00    +0.002 A 
ATOM     29  C   UNL     1      -4.976   2.132   1.450  0.00  0.00    +0.059 A 
ATOM     30  C   UNL     1      -5.975   2.401   0.540  0.00  0.00    +0.162 A 
ATOM     31  C   UNL     1      -5.722   2.304  -0.832  0.00  0.00    +0.163 A 
ATOM     32  C   UNL     1      -4.471   1.939  -1.292  0.00  0.00    +0.075 A 
ATOM     33  C   UNL     1      -3.452   1.665  -0.387  0.00  0.00    +0.053 A 
ATOM     34  N   UNL     1      -2.196   1.300  -0.827  0.00  0.00    -0.322 N 
ATOM     35  H   UNL     1      -2.023   1.234  -1.779  0.00  0.00    +0.169 HD
ATOM     36  C   UNL     1      -1.207   1.040   0.046  0.00  0.00    +0.251 A 
ATOM     37  O   UNL     1      -0.108   0.725  -0.378  0.00  0.00    -0.268 OA
BRANCH  31  38
ATOM     38  O   UNL     1      -6.715   2.571  -1.720  0.00  0.00    -0.491 OA
ATOM     39  C   UNL     1      -6.393   2.454  -3.108  0.00  0.00    +0.277 C 
ENDBRANCH  31  38
BRANCH  30  40
ATOM     40  O   UNL     1      -7.211   2.760   0.978  0.00  0.00    -0.491 OA
ATOM     41  C   UNL     1      -7.402   2.840   2.392  0.00  0.00    +0.277 C 
ENDBRANCH  30  40
ENDBRANCH  25  26
ENDBRANCH   1  25
TORSDOF 11
