REMARK  Name = ZINC09487369
REMARK  5 active torsions:
REMARK  status: ('A' for Active; 'I' for Inactive)
REMARK    1  A    between atoms: C_1  and  O_2
REMARK    2  A    between atoms: O_2  and  C_3
REMARK    3  A    between atoms: C_3  and  C_5
REMARK    4  A    between atoms: C_8  and  C_11
REMARK    5  A    between atoms: C_29  and  C_31
REMARK                            x       y       z     vdW  Elec       q    Type
REMARK                         _______ _______ _______ _____ _____    ______ ____
ROOT
ATOM      1  C   UNL     1       0.843  -6.334  -1.349  0.00  0.00    +0.234 C 
ATOM      2  C   UNL     1       2.186  -6.808  -0.879  0.00  0.00    +0.028 C 
ATOM      3  C   UNL     1       3.207  -6.952  -1.750  0.00  0.00    +0.083 C 
ATOM      4  C   UNL     1       2.942  -6.636  -3.176  0.00  0.00    +0.044 A 
ATOM      5  C   UNL     1       3.977  -6.439  -4.080  0.00  0.00    +0.033 A 
ATOM      6  C   UNL     1       3.683  -6.145  -5.399  0.00  0.00    +0.042 A 
ATOM      7  C   UNL     1       2.366  -6.047  -5.815  0.00  0.00    +0.023 A 
ATOM      8  C   UNL     1       1.331  -6.243  -4.919  0.00  0.00    +0.048 A 
ATOM      9  C   UNL     1       1.610  -6.539  -3.597  0.00  0.00    +0.131 A 
ATOM     10  O   UNL     1       0.617  -6.744  -2.699  0.00  0.00    -0.479 OA
ATOM     11 CL   UNL     1       4.971  -5.896  -6.537  0.00  0.00    -0.084 Cl
ATOM     12  N   UNL     1       4.429  -7.372  -1.339  0.00  0.00    -0.216 NA
ATOM     13  C   UNL     1       4.724  -7.678  -0.095  0.00  0.00    +0.209 C 
ATOM     14  N   UNL     1       5.884  -8.116   0.490  0.00  0.00    -0.275 N 
ATOM     15  C   UNL     1       5.648  -8.290   1.833  0.00  0.00    +0.208 C 
ATOM     16  N   UNL     1       4.418  -7.984   2.094  0.00  0.00    -0.169 NA
ATOM     17  N   UNL     1       3.800  -7.591   0.905  0.00  0.00    -0.182 N 
ATOM     18  C   UNL     1       2.441  -7.138   0.575  0.00  0.00    +0.166 C 
ATOM     19  H   UNL     1       6.726  -8.275   0.035  0.00  0.00    +0.156 HD
ENDROOT
BRANCH  18  20
ATOM     20  C   UNL     1       2.142  -5.910   1.395  0.00  0.00    +0.014 A 
ATOM     21  C   UNL     1       3.138  -4.983   1.640  0.00  0.00    +0.009 A 
ATOM     22  C   UNL     1       2.864  -3.856   2.392  0.00  0.00    +0.001 A 
ATOM     23  C   UNL     1       1.594  -3.655   2.900  0.00  0.00    +0.003 A 
ATOM     24  C   UNL     1       0.597  -4.579   2.656  0.00  0.00    +0.039 A 
ATOM     25  C   UNL     1       0.868  -5.706   1.898  0.00  0.00    +0.129 A 
ATOM     26  F   UNL     1      -0.107  -6.608   1.654  0.00  0.00    -0.205 F 
ENDBRANCH  18  20
BRANCH   1  30
ATOM     27  C   UNL     1       0.691  -2.066  -1.125  0.00  0.00    +0.059 A 
ATOM     28  C   UNL     1       1.553  -2.691  -2.029  0.00  0.00    +0.015 A 
ATOM     29  C   UNL     1       1.597  -4.068  -2.096  0.00  0.00    +0.008 A 
ATOM     30  C   UNL     1       0.789  -4.830  -1.270  0.00  0.00    -0.003 A 
ATOM     31  C   UNL     1      -0.068  -4.217  -0.373  0.00  0.00    +0.008 A 
ATOM     32  C   UNL     1      -0.117  -2.841  -0.291  0.00  0.00    +0.015 A 
BRANCH  27  33
ATOM     33  C   UNL     1       0.639  -0.591  -1.048  0.00  0.00    +0.339 C 
ATOM     34  O   UNL     1      -0.108  -0.051  -0.258  0.00  0.00    -0.245 OA
BRANCH  33  36
ATOM     35  C   UNL     1       1.318   1.573  -1.726  0.00  0.00    +0.280 C 
ATOM     36  O   UNL     1       1.420   0.153  -1.854  0.00  0.00    -0.464 OA
ENDBRANCH  33  36
ENDBRANCH  27  33
ENDBRANCH   1  30
TORSDOF 4
