REMARK  Name = ZINC35745122
REMARK  17 active torsions:
REMARK  status: ('A' for Active; 'I' for Inactive)
REMARK    1  A    between atoms: C_1  and  C_2
REMARK    2  A    between atoms: C_2  and  C_3
REMARK    3  A    between atoms: C_3  and  N_4
REMARK    4  A    between atoms: N_4  and  C_5
REMARK    5  A    between atoms: N_4  and  C_14
REMARK    6  A    between atoms: C_5  and  C_6
REMARK    7  A    between atoms: C_11  and  O_12
REMARK    8  A    between atoms: O_12  and  C_13
REMARK    9  A    between atoms: C_14  and  C_15
REMARK   10  A    between atoms: C_18  and  C_20
REMARK   11  A    between atoms: C_20  and  C_21
REMARK   12  A    between atoms: C_20  and  C_29
REMARK   13  A    between atoms: C_20  and  O_37
REMARK   14  A    between atoms: C_24  and  O_27
REMARK   15  A    between atoms: O_27  and  C_28
REMARK   16  A    between atoms: C_32  and  O_35
REMARK   17  A    between atoms: O_35  and  C_36
REMARK                            x       y       z     vdW  Elec       q    Type
REMARK                         _______ _______ _______ _____ _____    ______ ____
ROOT
ATOM      1  C   UNL     1       0.954  -0.937  -1.534  0.00  0.00    +0.089 A 
ATOM      2  C   UNL     1       1.060   0.097  -2.388  0.00  0.00    +0.043 A 
ATOM      3  C   UNL     1       0.098  -0.109  -3.403  0.00  0.00    +0.048 A 
ATOM      4  C   UNL     1      -0.539  -1.257  -3.108  0.00  0.00    +0.146 A 
ATOM      5  O   UNL     1      -0.012  -1.757  -1.978  0.00  0.00    -0.463 OA
ENDROOT
BRANCH   1   6
ATOM      6  C   UNL     1       1.783  -1.143  -0.292  0.00  0.00    -0.003 C 
BRANCH   6   7
ATOM      7  N   UNL     1       1.190  -0.393   0.823  0.00  0.00    +0.387 N 
ATOM      8  H   UNL     1       1.083   0.575   0.558  0.00  0.00    -0.081 HD
BRANCH   7   9
ATOM      9  C   UNL     1       2.068  -0.486   1.997  0.00  0.00    -0.078 C 
BRANCH   9  11
ATOM     10  C   UNL     1       4.243   0.260   2.974  0.00  0.00    +0.002 C 
ATOM     11  C   UNL     1       3.386   0.233   1.707  0.00  0.00    -0.022 C 
ENDBRANCH   9  11
ENDBRANCH   7   9
BRANCH   7  12
ATOM     12  C   UNL     1      -0.126  -0.960   1.149  0.00  0.00    -0.039 C 
BRANCH  12  13
ATOM     13  C   UNL     1      -0.787  -0.117   2.208  0.00  0.00    -0.022 A 
ATOM     14  C   UNL     1      -0.757  -0.518   3.530  0.00  0.00    +0.005 A 
ATOM     15  C   UNL     1      -1.364   0.254   4.503  0.00  0.00    +0.000 A 
ATOM     16  C   UNL     1      -2.002   1.431   4.156  0.00  0.00    +0.004 A 
ATOM     17  C   UNL     1      -2.035   1.837   2.836  0.00  0.00    +0.046 A 
ATOM     18  C   UNL     1      -1.422   1.066   1.859  0.00  0.00    +0.121 A 
BRANCH  18  19
ATOM     19  O   UNL     1      -1.448   1.466   0.560  0.00  0.00    -0.495 OA
ATOM     20  C   UNL     1      -2.119   2.695   0.273  0.00  0.00    +0.277 C 
ENDBRANCH  18  19
ENDBRANCH  12  13
ENDBRANCH   7  12
ENDBRANCH   6   7
ENDBRANCH   1   6
BRANCH   4  21
ATOM     21  C   UNL     1      -1.651  -1.880  -3.913  0.00  0.00    +0.174 C 
BRANCH  21  22
ATOM     22  C   UNL     1      -1.607  -3.378  -3.755  0.00  0.00    -0.004 A 
ATOM     23  C   UNL     1      -1.309  -4.178  -4.843  0.00  0.00    +0.011 A 
ATOM     24  C   UNL     1      -1.268  -5.551  -4.702  0.00  0.00    +0.046 A 
ATOM     25  C   UNL     1      -1.526  -6.128  -3.466  0.00  0.00    +0.120 A 
ATOM     26  C   UNL     1      -1.824  -5.323  -2.376  0.00  0.00    +0.046 A 
ATOM     27  C   UNL     1      -1.858  -3.950  -2.522  0.00  0.00    +0.011 A 
BRANCH  25  28
ATOM     28  O   UNL     1      -1.487  -7.479  -3.325  0.00  0.00    -0.495 OA
ATOM     29  C   UNL     1      -1.763  -8.003  -2.024  0.00  0.00    +0.277 C 
ENDBRANCH  25  28
ENDBRANCH  21  22
BRANCH  21  30
ATOM     30  C   UNL     1      -2.978  -1.362  -3.420  0.00  0.00    -0.004 A 
ATOM     31  C   UNL     1      -3.199  -1.210  -2.064  0.00  0.00    +0.011 A 
ATOM     32  C   UNL     1      -4.415  -0.736  -1.610  0.00  0.00    +0.046 A 
ATOM     33  C   UNL     1      -5.413  -0.411  -2.517  0.00  0.00    +0.120 A 
ATOM     34  C   UNL     1      -5.189  -0.564  -3.877  0.00  0.00    +0.046 A 
ATOM     35  C   UNL     1      -3.970  -1.034  -4.326  0.00  0.00    +0.011 A 
BRANCH  33  36
ATOM     36  O   UNL     1      -6.610   0.055  -2.073  0.00  0.00    -0.495 OA
ATOM     37  C   UNL     1      -7.592   0.369  -3.063  0.00  0.00    +0.277 C 
ENDBRANCH  33  36
ENDBRANCH  21  30
BRANCH  21  38
ATOM     38  O   UNL     1      -1.489  -1.541  -5.291  0.00  0.00    -0.372 OA
ATOM     39  H   UNL     1      -0.655  -1.843  -5.675  0.00  0.00    +0.212 HD
ENDBRANCH  21  38
ENDBRANCH   4  21
TORSDOF 13
