REMARK  Name = ZINC23448188
REMARK  5 active torsions:
REMARK  status: ('A' for Active; 'I' for Inactive)
REMARK    1  A    between atoms: C_1  and  C_2
REMARK    2  A    between atoms: C_2  and  C_4
REMARK    3  A    between atoms: C_2  and  N_12
REMARK    4  A    between atoms: C_13  and  C_15
REMARK    5  A    between atoms: C_15  and  N_16
REMARK                            x       y       z     vdW  Elec       q    Type
REMARK                         _______ _______ _______ _____ _____    ______ ____
ROOT
ATOM      1  N   UNL     1      -0.238  -1.150  -4.710  0.00  0.00    -0.215 N 
ATOM      2  C   UNL     1      -0.963  -2.253  -5.035  0.00  0.00    +0.251 C 
ATOM      3  O   UNL     1      -0.777  -3.353  -4.572  0.00  0.00    -0.272 OA
ATOM      4  C   UNL     1      -1.944  -1.773  -6.058  0.00  0.00    +0.138 C 
ATOM      5  C   UNL     1      -2.130  -2.671  -7.249  0.00  0.00    +0.040 C 
ATOM      6  C   UNL     1      -2.068  -4.142  -6.973  0.00  0.00    +0.003 C 
ATOM      7  C   UNL     1      -3.255  -4.691  -6.215  0.00  0.00    +0.005 C 
ATOM      8  C   UNL     1      -3.389  -4.094  -4.818  0.00  0.00    +0.035 C 
ATOM      9  C   UNL     1      -3.967  -2.698  -4.867  0.00  0.00    -0.042 A 
ATOM     10  C   UNL     1      -3.317  -1.624  -5.409  0.00  0.00    -0.012 A 
ATOM     11  C   UNL     1      -3.892  -0.364  -5.391  0.00  0.00    +0.006 A 
ATOM     12  C   UNL     1      -5.146  -0.187  -4.837  0.00  0.00    +0.000 A 
ATOM     13  C   UNL     1      -5.819  -1.271  -4.306  0.00  0.00    +0.000 A 
ATOM     14  C   UNL     1      -5.234  -2.521  -4.319  0.00  0.00    +0.004 A 
ATOM     15  N   UNL     1      -1.448  -0.445  -6.444  0.00  0.00    -0.281 N 
ATOM     16  C   UNL     1      -0.484  -0.140  -5.553  0.00  0.00    +0.310 C 
ATOM     17  O   UNL     1       0.097   0.927  -5.522  0.00  0.00    -0.252 OA
ATOM     18  H   UNL     1      -1.753   0.097  -7.186  0.00  0.00    +0.152 HD
ENDROOT
BRANCH   1  19
ATOM     19  C   UNL     1       0.712  -1.094  -3.598  0.00  0.00    +0.213 C 
BRANCH  19  21
ATOM     20  N   UNL     1       0.688  -0.476  -1.203  0.00  0.00    -0.307 N 
ATOM     21  C   UNL     1       0.006  -0.608  -2.358  0.00  0.00    +0.231 C 
ATOM     22  O   UNL     1      -1.175  -0.336  -2.400  0.00  0.00    -0.274 OA
ATOM     23  H   UNL     1       1.632  -0.695  -1.170  0.00  0.00    +0.149 HD
BRANCH  20  25
ATOM     24  C   UNL     1      -0.019   1.526   0.010  0.00  0.00    +0.033 C 
ATOM     25  C   UNL     1       0.002  -0.004   0.002  0.00  0.00    +0.102 C 
BRANCH  25  26
ATOM     26  C   UNL     1       0.731  -0.503   1.223  0.00  0.00    -0.009 A 
ATOM     27  C   UNL     1       2.077  -0.808   1.148  0.00  0.00    +0.008 A 
ATOM     28  C   UNL     1       2.746  -1.266   2.267  0.00  0.00    +0.020 A 
ATOM     29  C   UNL     1       2.069  -1.419   3.464  0.00  0.00    +0.042 A 
ATOM     30  C   UNL     1       0.722  -1.114   3.540  0.00  0.00    +0.040 A 
ATOM     31  C   UNL     1       0.054  -0.651   2.420  0.00  0.00    +0.047 A 
ATOM     32 CL   UNL     1      -1.635  -0.262   2.516  0.00  0.00    -0.083 Cl
ATOM     33 CL   UNL     1       2.909  -1.995   4.869  0.00  0.00    -0.083 Cl
ENDBRANCH  25  26
ENDBRANCH  20  25
ENDBRANCH  19  21
ENDBRANCH   1  19
TORSDOF 4
