REMARK  Name = ZINC08880835
REMARK  11 active torsions:
REMARK  status: ('A' for Active; 'I' for Inactive)
REMARK    1  A    between atoms: C_1  and  C_2
REMARK    2  A    between atoms: C_2  and  O_3
REMARK    3  A    between atoms: O_3  and  C_4
REMARK    4  A    between atoms: C_4  and  C_6
REMARK    5  A    between atoms: C_10  and  N_11
REMARK    6  A    between atoms: C_12  and  C_14
REMARK    7  A    between atoms: C_17  and  S_20
REMARK    8  A    between atoms: S_20  and  N_23
REMARK    9  A    between atoms: C_25  and  C_32
REMARK   10  A    between atoms: C_28  and  C_31
REMARK   11  A    between atoms: C_36  and  N_66
REMARK                            x       y       z     vdW  Elec       q    Type
REMARK                         _______ _______ _______ _____ _____    ______ ____
ROOT
ATOM      1  N   UNL     1      -0.952  -3.918   0.266  0.00  0.00    -0.275 N 
ATOM      2  C   UNL     1      -2.236  -4.123   0.622  0.00  0.00    +0.249 C 
ATOM      3  O   UNL     1      -2.969  -3.174   0.825  0.00  0.00    -0.270 OA
ATOM      4  H   UNL     1      -0.368  -4.675   0.104  0.00  0.00    +0.156 HD
ENDROOT
BRANCH   1   9
ATOM      5  C   UNL     1       0.812  -2.219  -0.224  0.00  0.00    +0.091 A 
ATOM      6  C   UNL     1       1.061  -0.791  -0.293  0.00  0.00    -0.025 A 
ATOM      7  C   UNL     1       0.002  -0.004   0.002  0.00  0.00    -0.021 A 
ATOM      8  S   UNL     1      -1.311  -1.132   0.365  0.00  0.00    -0.079 S 
ATOM      9  C   UNL     1      -0.468  -2.628   0.131  0.00  0.00    +0.086 A 
ATOM     10  C   UNL     1      -0.018   1.492   0.010  0.00  0.00    -0.036 C 
ATOM     11  C   UNL     1       2.151   1.297  -1.052  0.00  0.00    -0.074 C 
ATOM     12  C   UNL     1       2.400  -0.164  -0.666  0.00  0.00    +0.018 C 
ATOM     13  C   UNL     1       1.430   3.432  -0.162  0.00  0.00    -0.096 C 
ATOM     14  N   UNL     1       1.388   1.965   0.023  0.00  0.00    +0.381 N 
ATOM     15  H   UNL     1       1.811   1.730   0.928  0.00  0.00    -0.082 HD
BRANCH   5  16
ATOM     16  C   UNL     1       1.868  -3.190  -0.515  0.00  0.00    +0.342 C 
ATOM     17  O   UNL     1       2.587  -3.594   0.379  0.00  0.00    -0.245 OA
BRANCH  16  18
ATOM     18  O   UNL     1       2.043  -3.638  -1.776  0.00  0.00    -0.461 OA
BRANCH  18  20
ATOM     19  C   UNL     1       3.153  -4.989  -3.471  0.00  0.00    +0.048 C 
ATOM     20  C   UNL     1       3.108  -4.600  -1.991  0.00  0.00    +0.229 C 
ENDBRANCH  18  20
ENDBRANCH  16  18
ENDBRANCH   5  16
ENDBRANCH   1   9
BRANCH   2  21
ATOM     21  C   UNL     1      -2.753  -5.500   0.765  0.00  0.00    +0.037 A 
ATOM     22  C   UNL     1      -1.915  -6.591   0.527  0.00  0.00    +0.015 A 
ATOM     23  C   UNL     1      -2.403  -7.874   0.668  0.00  0.00    +0.029 A 
ATOM     24  C   UNL     1      -3.721  -8.081   1.034  0.00  0.00    +0.106 A 
ATOM     25  C   UNL     1      -4.558  -7.003   1.266  0.00  0.00    +0.029 A 
ATOM     26  C   UNL     1      -4.082  -5.715   1.134  0.00  0.00    +0.015 A 
BRANCH  24  27
ATOM     27  S   UNL     1      -4.338  -9.722   1.204  0.00  0.00    +0.061 S 
ATOM     28  O   UNL     1      -3.215 -10.553   1.464  0.00  0.00    -0.153 OA
ATOM     29  O   UNL     1      -5.451  -9.649   2.084  0.00  0.00    -0.153 OA
BRANCH  27  30
ATOM     30  N   UNL     1      -4.931 -10.178  -0.273  0.00  0.00    -0.172 NA
ATOM     31  C   UNL     1      -6.337  -9.934  -0.633  0.00  0.00    +0.140 C 
ATOM     32  C   UNL     1      -6.367  -9.239  -2.003  0.00  0.00    +0.131 C 
ATOM     33  O   UNL     1      -5.598 -10.003  -2.934  0.00  0.00    -0.371 OA
ATOM     34  C   UNL     1      -4.212 -10.109  -2.600  0.00  0.00    +0.131 C 
ATOM     35  C   UNL     1      -4.070 -10.844  -1.263  0.00  0.00    +0.140 C 
ATOM     36  C   UNL     1      -3.607  -8.709  -2.481  0.00  0.00    +0.039 C 
ATOM     37  C   UNL     1      -7.814  -9.142  -2.493  0.00  0.00    +0.039 C 
ENDBRANCH  27  30
ENDBRANCH  24  27
ENDBRANCH   2  21
TORSDOF 7
