REMARK  Name = ZINC31163966
REMARK  11 active torsions:
REMARK  status: ('A' for Active; 'I' for Inactive)
REMARK    1  A    between atoms: C_1  and  C_2
REMARK    2  A    between atoms: C_9  and  O_15
REMARK    3  A    between atoms: C_16  and  C_41
REMARK    4  A    between atoms: C_20  and  C_39
REMARK    5  A    between atoms: C_20  and  C_40
REMARK    6  A    between atoms: C_21  and  O_38
REMARK    7  A    between atoms: C_22  and  O_27
REMARK    8  A    between atoms: C_24  and  O_26
REMARK    9  A    between atoms: O_27  and  C_28
REMARK   10  A    between atoms: C_28  and  C_30
REMARK   11  A    between atoms: C_31  and  C_32
REMARK                            x       y       z     vdW  Elec       q    Type
REMARK                         _______ _______ _______ _____ _____    ______ ____
ROOT
ATOM      1  C   UNL     1      -0.723   3.672   3.809  0.00  0.00    +0.013 C 
ATOM      2  C   UNL     1      -1.558   3.994   2.568  0.00  0.00    +0.024 C 
ATOM      3  C   UNL     1      -0.895   3.522   1.262  0.00  0.00    +0.032 C 
ATOM      4  C   UNL     1      -0.803   2.008   1.227  0.00  0.00    +0.011 C 
ATOM      5  C   UNL     1      -2.169   1.322   1.236  0.00  0.00    +0.088 C 
ATOM      6  C   UNL     1      -3.305   2.276   1.566  0.00  0.00    +0.237 C 
ATOM      7  C   UNL     1      -2.843   3.197   2.677  0.00  0.00    +0.011 C 
ATOM      8  C   UNL     1      -3.736   3.140   3.641  0.00  0.00    +0.097 C 
ATOM      9  C   UNL     1      -4.749   2.133   3.297  0.00  0.00    +0.335 C 
ATOM     10  O   UNL     1      -5.700   1.834   3.994  0.00  0.00    -0.246 OA
ATOM     11  O   UNL     1      -4.463   1.581   2.101  0.00  0.00    -0.425 OA
ATOM     12  C   UNL     1      -0.019   1.528   0.010  0.00  0.00    +0.004 C 
ATOM     13  C   UNL     1       0.002  -0.004   0.002  0.00  0.00    +0.010 C 
ATOM     14  C   UNL     1       0.743  -0.481   1.253  0.00  0.00    +0.001 C 
ATOM     15  C   UNL     1       2.197  -0.047   1.143  0.00  0.00    +0.009 C 
ATOM     16  C   UNL     1       2.343   1.473   1.013  0.00  0.00    -0.002 C 
ATOM     17  C   UNL     1       1.402   2.087  -0.000  0.00  0.00    +0.116 C 
ATOM     18  C   UNL     1       1.355   3.604   0.008  0.00  0.00    +0.238 C 
ATOM     19  C   UNL     1       0.382   4.259   0.965  0.00  0.00    +0.162 C 
ATOM     20  C   UNL     1       2.235   2.099   2.401  0.00  0.00    +0.014 C 
ATOM     21  C   UNL     1       3.800   1.690   0.524  0.00  0.00    +0.014 C 
ATOM     22  C   UNL     1      -0.719   1.989  -1.281  0.00  0.00    +0.014 C 
ENDROOT
BRANCH   6  23
ATOM     23  O   UNL     1      -3.685   3.027   0.410  0.00  0.00    -0.352 OA
ATOM     24  H   UNL     1      -4.497   3.766   0.477  0.00  0.00    +0.214 HD
ENDBRANCH   6  23
BRANCH  19  25
ATOM     25  O   UNL     1       1.074   4.746   2.111  0.00  0.00    -0.388 OA
ATOM     26  H   UNL     1       2.018   5.298   1.990  0.00  0.00    +0.210 HD
ENDBRANCH  19  25
BRANCH  17  27
ATOM     27  O   UNL     1       1.943   1.721  -1.309  0.00  0.00    -0.384 OA
ATOM     28  H   UNL     1       2.970   2.008  -1.579  0.00  0.00    +0.210 HD
ENDBRANCH  17  27
BRANCH  18  29
ATOM     29  O   UNL     1       2.654   4.180   0.199  0.00  0.00    -0.453 OA
BRANCH  29  30
ATOM     30  C   UNL     1       2.879   5.385  -0.364  0.00  0.00    +0.332 C 
ATOM     31  O   UNL     1       1.998   5.933  -1.000  0.00  0.00    -0.246 OA
BRANCH  30  32
ATOM     32  C   UNL     1       4.181   6.033  -0.211  0.00  0.00    +0.092 C 
ATOM     33  C   UNL     1       4.405   7.238  -0.774  0.00  0.00    +0.015 C 
BRANCH  33  34
ATOM     34  C   UNL     1       5.715   7.890  -0.619  0.00  0.00    -0.025 A 
ATOM     35  C   UNL     1       6.729   7.266   0.116  0.00  0.00    +0.008 A 
ATOM     36  C   UNL     1       7.955   7.881   0.251  0.00  0.00    +0.001 A 
ATOM     37  C   UNL     1       8.182   9.118  -0.328  0.00  0.00    +0.000 A 
ATOM     38  C   UNL     1       7.182   9.744  -1.052  0.00  0.00    +0.001 A 
ATOM     39  C   UNL     1       5.952   9.140  -1.202  0.00  0.00    +0.008 A 
ENDBRANCH  33  34
ENDBRANCH  30  32
ENDBRANCH  29  30
ENDBRANCH  18  29
TORSDOF 7
