REMARK  Name = ZINC02305825
REMARK  7 active torsions:
REMARK  status: ('A' for Active; 'I' for Inactive)
REMARK    1  A    between atoms: C_1  and  C_2
REMARK    2  A    between atoms: C_5  and  C_8
REMARK    3  A    between atoms: N_12  and  C_16
REMARK    4  A    between atoms: C_16  and  C_17
REMARK    5  A    between atoms: C_17  and  C_18
REMARK    6  A    between atoms: N_20  and  N_21
REMARK    7  A    between atoms: C_22  and  C_24
REMARK                            x       y       z     vdW  Elec       q    Type
REMARK                         _______ _______ _______ _____ _____    ______ ____
ROOT
ATOM      1  C   UNL     1       3.097   0.749   0.106  0.00  0.00    +0.124 C 
ENDROOT
BRANCH   1   6
ATOM      2  C   UNL     1       7.559  -0.278   2.017  0.00  0.00    +0.028 C 
ATOM      3  C   UNL     1       6.629  -0.079   1.050  0.00  0.00    +0.077 C 
ATOM      4  C   UNL     1       5.199   0.275   1.176  0.00  0.00    +0.258 C 
ATOM      5  O   UNL     1       4.673   0.437   2.262  0.00  0.00    -0.269 OA
ATOM      6  N   UNL     1       4.519   0.403   0.049  0.00  0.00    -0.255 N 
ATOM      7  C   UNL     1       5.107   0.228  -1.152  0.00  0.00    +0.121 C 
ATOM      8  S   UNL     1       4.404   0.356  -2.708  0.00  0.00    -0.027 S 
ATOM      9  S   UNL     1       6.796  -0.168  -0.728  0.00  0.00    -0.061 S 
BRANCH   2  14
ATOM     10  C   UNL     1       6.308   0.916   7.498  0.00  0.00    +0.044 C 
ATOM     11  C   UNL     1       6.636   0.603   6.061  0.00  0.00    -0.050 A 
ATOM     12  C   UNL     1       7.394  -0.514   5.755  0.00  0.00    +0.004 A 
ATOM     13  C   UNL     1       7.698  -0.808   4.443  0.00  0.00    +0.008 A 
ATOM     14  C   UNL     1       7.238   0.027   3.419  0.00  0.00    -0.024 A 
ATOM     15  C   UNL     1       6.477   1.157   3.736  0.00  0.00    +0.008 A 
ATOM     16  C   UNL     1       6.177   1.434   5.053  0.00  0.00    +0.004 A 
ENDBRANCH   2  14
ENDBRANCH   1   6
BRANCH   1  17
ATOM     17  C   UNL     1       2.263  -0.532   0.164  0.00  0.00    +0.116 C 
BRANCH  17  18
ATOM     18  C   UNL     1       0.799  -0.176   0.223  0.00  0.00    +0.231 C 
ATOM     19  O   UNL     1       0.458   0.988   0.218  0.00  0.00    -0.274 OA
ATOM     20  N   UNL     1      -0.130  -1.151   0.280  0.00  0.00    -0.234 N 
ATOM     21  H   UNL     1       0.144  -2.082   0.284  0.00  0.00    +0.173 HD
BRANCH  20  22
ATOM     22  N   UNL     1      -1.490  -0.820   0.329  0.00  0.00    -0.230 N 
ATOM     23  C   UNL     1      -2.419  -1.795   0.381  0.00  0.00    +0.262 C 
ATOM     24  O   UNL     1      -2.077  -2.962   0.385  0.00  0.00    -0.269 OA
ATOM     25  H   UNL     1      -1.763   0.110   0.325  0.00  0.00    +0.173 HD
BRANCH  23  26
ATOM     26  C   UNL     1      -3.855  -1.446   0.432  0.00  0.00    +0.056 A 
ATOM     27  C   UNL     1      -4.830  -2.450   0.480  0.00  0.00    +0.016 A 
ATOM     28  C   UNL     1      -6.160  -2.070   0.531  0.00  0.00    +0.020 A 
ATOM     29  C   UNL     1      -6.480  -0.724   0.523  0.00  0.00    +0.111 A 
ATOM     30  N   UNL     1      -5.540   0.200   0.472  0.00  0.00    -0.263 NA
ATOM     31  C   UNL     1      -4.261  -0.112   0.427  0.00  0.00    +0.123 A 
ENDBRANCH  23  26
ENDBRANCH  20  22
ENDBRANCH  17  18
ENDBRANCH   1  17
TORSDOF 6
