REMARK  Name = ZINC64392091
REMARK  6 active torsions:
REMARK  status: ('A' for Active; 'I' for Inactive)
REMARK    1  A    between atoms: C_1  and  S_2
REMARK    2  A    between atoms: S_2  and  C_3
REMARK    3  A    between atoms: C_6  and  C_9
REMARK    4  A    between atoms: C_11  and  C_15
REMARK    5  A    between atoms: N_25  and  C_28
REMARK    6  A    between atoms: C_28  and  C_29
REMARK                            x       y       z     vdW  Elec       q    Type
REMARK                         _______ _______ _______ _____ _____    ______ ____
ROOT
ATOM      1  C   UNL     1       4.472  -3.656  -6.917  0.00  0.00    +0.006 A 
ATOM      2  C   UNL     1       4.848  -4.200  -5.699  0.00  0.00    +0.009 A 
ATOM      3  C   UNL     1       5.683  -5.297  -5.651  0.00  0.00    +0.016 A 
ATOM      4  C   UNL     1       6.146  -5.857  -6.839  0.00  0.00    +0.063 A 
ATOM      5  C   UNL     1       5.764  -5.306  -8.074  0.00  0.00    +0.056 A 
ATOM      6  C   UNL     1       4.920  -4.206  -8.102  0.00  0.00    +0.034 A 
ATOM      7  N   UNL     1       6.241  -5.885  -9.241  0.00  0.00    -0.307 N 
ATOM      8  H   UNL     1       5.986  -5.515 -10.100  0.00  0.00    +0.170 HD
ATOM      9  C   UNL     1       7.054  -6.955  -9.191  0.00  0.00    +0.330 A 
ATOM     10  O   UNL     1       7.450  -7.433 -10.236  0.00  0.00    -0.246 OA
ATOM     11  N   UNL     1       7.447  -7.517  -8.038  0.00  0.00    -0.256 N 
ATOM     12  C   UNL     1       7.039  -7.030  -6.846  0.00  0.00    +0.265 A 
ATOM     13  O   UNL     1       7.400  -7.546  -5.805  0.00  0.00    -0.267 OA
ENDROOT
BRANCH   1  16
ATOM     14  C   UNL     1       2.890  -1.391  -5.084  0.00  0.00    +0.134 C 
ATOM     15  N   UNL     1       2.670  -2.464  -5.782  0.00  0.00    -0.339 N 
ATOM     16  C   UNL     1       3.559  -2.457  -6.949  0.00  0.00    +0.274 C 
ATOM     17  O   UNL     1       4.323  -1.246  -6.842  0.00  0.00    -0.243 OA
ATOM     18  N   UNL     1       3.863  -0.611  -5.660  0.00  0.00    -0.247 N 
ATOM     19  H   UNL     1       4.185   0.235  -5.313  0.00  0.00    +0.196 HD
ATOM     20  H   UNL     1       2.025  -3.156  -5.567  0.00  0.00    +0.164 HD
BRANCH  14  24
ATOM     21  C   UNL     1       0.848  -0.411  -1.489  0.00  0.00    +0.008 A 
ATOM     22  C   UNL     1       1.315   0.603  -2.322  0.00  0.00    +0.015 A 
ATOM     23  C   UNL     1       1.977   0.287  -3.487  0.00  0.00    +0.012 A 
ATOM     24  C   UNL     1       2.180  -1.050  -3.833  0.00  0.00    +0.017 A 
ATOM     25  C   UNL     1       1.711  -2.065  -2.996  0.00  0.00    +0.012 A 
ATOM     26  C   UNL     1       1.055  -1.745  -1.829  0.00  0.00    +0.015 A 
BRANCH  21  28
ATOM     27  C   UNL     1      -0.022   1.810   0.012  0.00  0.00    +0.090 C 
ATOM     28  S   UNL     1       0.002  -0.004   0.002  0.00  0.00    -0.129 S 
ENDBRANCH  21  28
ENDBRANCH  14  24
ENDBRANCH   1  16
BRANCH  11  29
ATOM     29  C   UNL     1       8.335  -8.682  -8.072  0.00  0.00    +0.165 C 
BRANCH  29  30
ATOM     30  C   UNL     1       9.769  -8.221  -8.050  0.00  0.00    -0.027 A 
ATOM     31  C   UNL     1      10.431  -7.964  -9.236  0.00  0.00    +0.008 A 
ATOM     32  C   UNL     1      11.746  -7.541  -9.216  0.00  0.00    +0.038 A 
ATOM     33  C   UNL     1      12.402  -7.374  -8.008  0.00  0.00    +0.123 A 
ATOM     34  C   UNL     1      11.738  -7.632  -6.820  0.00  0.00    +0.038 A 
ATOM     35  C   UNL     1      10.421  -8.050  -6.842  0.00  0.00    +0.008 A 
ATOM     36  F   UNL     1      13.688  -6.961  -7.987  0.00  0.00    -0.205 F 
ENDBRANCH  29  30
ENDBRANCH  11  29
TORSDOF 5
