REMARK  Name = ZINC35565763
REMARK  11 active torsions:
REMARK  status: ('A' for Active; 'I' for Inactive)
REMARK    1  A    between atoms: C_1  and  C_2
REMARK    2  A    between atoms: C_2  and  C_3
REMARK    3  A    between atoms: C_6  and  C_9
REMARK    4  A    between atoms: C_11  and  C_27
REMARK    5  A    between atoms: C_18  and  C_25
REMARK    6  A    between atoms: C_19  and  C_21
REMARK    7  A    between atoms: C_21  and  O_23
REMARK    8  A    between atoms: O_23  and  C_24
REMARK    9  A    between atoms: C_27  and  C_29
REMARK   10  A    between atoms: C_30  and  C_35
REMARK   11  A    between atoms: C_32  and  C_34
REMARK                            x       y       z     vdW  Elec       q    Type
REMARK                         _______ _______ _______ _____ _____    ______ ____
ROOT
ATOM      1  C   UNL     1       2.719  -1.870  -4.745  0.00  0.00    +0.152 C 
ATOM      2  C   UNL     1       3.112  -3.320  -4.590  0.00  0.00    +0.077 C 
ATOM      3  C   UNL     1       4.460  -3.373  -4.702  0.00  0.00    +0.250 C 
ATOM      4  C   UNL     1       4.983  -2.011  -4.925  0.00  0.00    +0.293 C 
ATOM      5  O   UNL     1       6.157  -1.730  -5.065  0.00  0.00    -0.266 OA
ATOM      6  N   UNL     1       3.968  -1.127  -4.952  0.00  0.00    -0.232 N 
ATOM      7  C   UNL     1       4.081   0.238  -5.141  0.00  0.00    +0.169 A 
ATOM      8  N   UNL     1       5.178   0.948  -5.336  0.00  0.00    -0.229 NA
ATOM      9  C   UNL     1       5.133   2.245  -5.502  0.00  0.00    +0.062 A 
ATOM     10  C   UNL     1       3.873   2.828  -5.461  0.00  0.00    +0.120 A 
ATOM     11  S   UNL     1       2.853   1.388  -5.185  0.00  0.00    -0.045 S 
ATOM     12  C   UNL     1       6.380   3.061  -5.724  0.00  0.00    +0.067 C 
ATOM     13  O   UNL     1       5.210  -4.498  -4.620  0.00  0.00    -0.282 OA
ENDROOT
BRANCH   1  17
ATOM     14  C   UNL     1       0.760  -0.495  -1.207  0.00  0.00    -0.048 A 
ATOM     15  C   UNL     1       0.032  -0.702  -2.364  0.00  0.00    +0.004 A 
ATOM     16  C   UNL     1       0.666  -1.147  -3.509  0.00  0.00    +0.006 A 
ATOM     17  C   UNL     1       2.028  -1.384  -3.497  0.00  0.00    -0.022 A 
ATOM     18  C   UNL     1       2.756  -1.176  -2.340  0.00  0.00    +0.006 A 
ATOM     19  C   UNL     1       2.122  -0.727  -1.196  0.00  0.00    +0.004 A 
BRANCH  14  21
ATOM     20  C   UNL     1       0.070   1.519   0.064  0.00  0.00    +0.009 C 
ATOM     21  C   UNL     1       0.068  -0.011   0.041  0.00  0.00    +0.032 C 
ENDBRANCH  14  21
ENDBRANCH   1  17
BRANCH  10  22
ATOM     22  C   UNL     1       3.488   4.230  -5.609  0.00  0.00    +0.347 C 
ATOM     23  O   UNL     1       4.340   5.078  -5.799  0.00  0.00    -0.244 OA
BRANCH  22  24
ATOM     24  O   UNL     1       2.188   4.584  -5.534  0.00  0.00    -0.464 OA
ATOM     25  C   UNL     1       1.884   5.972  -5.688  0.00  0.00    +0.280 C 
ENDBRANCH  22  24
ENDBRANCH  10  22
BRANCH   2  26
ATOM     26  C   UNL     1       2.208  -4.453  -4.363  0.00  0.00    +0.203 C 
ATOM     27  O   UNL     1       2.254  -5.069  -3.313  0.00  0.00    -0.286 OA
BRANCH  26  28
ATOM     28  C   UNL     1       1.247  -4.844  -5.400  0.00  0.00    +0.082 A 
ATOM     29  C   UNL     1       0.247  -5.809  -5.367  0.00  0.00    +0.057 A 
ATOM     30  N   UNL     1      -0.467  -5.939  -6.457  0.00  0.00    -0.249 NA
ATOM     31  C   UNL     1      -0.247  -5.199  -7.520  0.00  0.00    +0.076 A 
ATOM     32  S   UNL     1       1.032  -4.209  -7.055  0.00  0.00    -0.069 S 
ATOM     33  C   UNL     1      -0.973  -5.226  -8.840  0.00  0.00    +0.073 C 
ATOM     34  C   UNL     1      -0.002  -6.656  -4.146  0.00  0.00    +0.067 C 
ENDBRANCH  26  28
ENDBRANCH   2  26
TORSDOF 6
