REMARK  Name = ZINC35867620
REMARK  6 active torsions:
REMARK  status: ('A' for Active; 'I' for Inactive)
REMARK    1  A    between atoms: C_1  and  C_2
REMARK    2  A    between atoms: C_2  and  C_3
REMARK    3  A    between atoms: C_3  and  C_4
REMARK    4  A    between atoms: C_4  and  C_5
REMARK    5  A    between atoms: C_15  and  C_19
REMARK    6  A    between atoms: N_28  and  C_29
REMARK                            x       y       z     vdW  Elec       q    Type
REMARK                         _______ _______ _______ _____ _____    ______ ____
ROOT
ATOM      1  C   UNL     1      -2.760  -2.791   0.010  0.00  0.00    +0.132 A 
ATOM      2  N   UNL     1      -3.361  -3.009   1.166  0.00  0.00    -0.217 NA
ATOM      3  C   UNL     1      -4.657  -3.261   1.251  0.00  0.00    +0.133 A 
ATOM      4  C   UNL     1      -5.434  -3.299   0.060  0.00  0.00    +0.051 A 
ATOM      5  C   UNL     1      -6.867  -3.554  -0.092  0.00  0.00    -0.025 A 
ATOM      6  C   UNL     1      -7.363  -3.535  -1.346  0.00  0.00    -0.004 A 
ATOM      7  S   UNL     1      -5.973  -3.182  -2.387  0.00  0.00    -0.073 S 
ATOM      8  C   UNL     1      -4.724  -3.058  -1.133  0.00  0.00    +0.114 A 
ATOM      9  N   UNL     1      -3.429  -2.809  -1.127  0.00  0.00    -0.225 NA
ATOM     10  C   UNL     1      -8.784  -3.763  -1.764  0.00  0.00    +0.046 C 
ATOM     11  C   UNL     1      -9.678  -3.656  -0.520  0.00  0.00    -0.009 C 
ATOM     12  C   UNL     1      -9.060  -4.496   0.601  0.00  0.00    +0.008 C 
ATOM     13  C   UNL     1      -7.777  -3.831   1.102  0.00  0.00    +0.037 C 
ATOM     14  C   UNL     1     -11.077  -4.181  -0.848  0.00  0.00    +0.008 C 
ATOM     15  N   UNL     1      -5.248  -3.484   2.481  0.00  0.00    -0.312 N 
ATOM     16  C   UNL     1      -5.222  -4.821   3.092  0.00  0.00    +0.125 C 
ATOM     17  C   UNL     1      -4.605  -4.708   4.491  0.00  0.00    +0.128 C 
ATOM     18  N   UNL     1      -5.270  -3.614   5.211  0.00  0.00    -0.283 N 
ATOM     19  C   UNL     1      -5.296  -2.277   4.601  0.00  0.00    +0.128 C 
ATOM     20  C   UNL     1      -5.909  -2.388   3.204  0.00  0.00    +0.125 C 
ATOM     21  C   UNL     1      -5.847  -3.832   6.410  0.00  0.00    +0.303 C 
ATOM     22  O   UNL     1      -5.739  -4.917   6.948  0.00  0.00    -0.253 OA
ATOM     23  N   UNL     1      -6.542  -2.846   7.012  0.00  0.00    -0.296 N 
ATOM     24  H   UNL     1      -6.690  -2.006   6.552  0.00  0.00    +0.151 HD
ENDROOT
BRANCH  23  25
ATOM     25  C   UNL     1      -7.073  -3.046   8.363  0.00  0.00    +0.074 C 
ATOM     26  C   UNL     1      -8.428  -3.751   8.279  0.00  0.00    +0.022 C 
ATOM     27  C   UNL     1      -8.983  -3.958   9.690  0.00  0.00    +0.002 C 
ATOM     28  C   UNL     1      -9.156  -2.602  10.375  0.00  0.00    +0.000 C 
ATOM     29  C   UNL     1      -7.801  -1.896  10.459  0.00  0.00    +0.002 C 
ATOM     30  C   UNL     1      -7.246  -1.688   9.048  0.00  0.00    +0.022 C 
ENDBRANCH  23  25
BRANCH   1  31
ATOM     31  C   UNL     1      -1.280  -2.508  -0.011  0.00  0.00    +0.076 C 
BRANCH  31  32
ATOM     32  C   UNL     1      -1.046  -1.002   0.117  0.00  0.00    +0.007 C 
BRANCH  32  34
ATOM     33  C   UNL     1       0.690   0.792   0.224  0.00  0.00    +0.004 C 
ATOM     34  C   UNL     1       0.456  -0.715   0.096  0.00  0.00    -0.003 C 
ENDBRANCH  32  34
ENDBRANCH  31  32
ENDBRANCH   1  31
TORSDOF 4
