REMARK  Name = ZINC34923379
REMARK  13 active torsions:
REMARK  status: ('A' for Active; 'I' for Inactive)
REMARK    1  A    between atoms: C_1  and  C_2
REMARK    2  A    between atoms: C_5  and  C_8
REMARK    3  A    between atoms: C_10  and  C_31
REMARK    4  A    between atoms: C_11  and  C_30
REMARK    5  A    between atoms: C_15  and  C_18
REMARK    6  A    between atoms: C_19  and  N_21
REMARK    7  A    between atoms: N_21  and  C_22
REMARK    8  A    between atoms: N_21  and  C_23
REMARK    9  A    between atoms: N_26  and  C_29
REMARK   10  A    between atoms: C_31  and  O_33
REMARK   11  A    between atoms: O_33  and  C_34
REMARK   12  A    between atoms: C_34  and  C_35
REMARK   13  A    between atoms: C_34  and  C_36
REMARK                            x       y       z     vdW  Elec       q    Type
REMARK                         _______ _______ _______ _____ _____    ______ ____
ROOT
ATOM      1  C   UNL     1       0.134  -4.067   0.250  0.00  0.00    +0.150 C 
ATOM      2  C   UNL     1       1.501  -4.659  -0.010  0.00  0.00    +0.082 C 
ATOM      3  C   UNL     1       1.880  -5.758   0.738  0.00  0.00    +0.053 C 
ATOM      4  N   UNL     1       1.063  -6.263   1.647  0.00  0.00    -0.230 NA
ATOM      5  C   UNL     1      -0.137  -5.796   1.922  0.00  0.00    +0.166 C 
ATOM      6  N   UNL     1      -0.697  -4.718   1.297  0.00  0.00    -0.267 N 
ATOM      7  C   UNL     1      -1.966  -4.351   1.698  0.00  0.00    +0.048 C 
ATOM      8  C   UNL     1      -2.551  -5.081   2.673  0.00  0.00    +0.072 C 
ATOM      9  S   UNL     1      -1.300  -6.297   3.024  0.00  0.00    -0.060 S 
ATOM     10  C   UNL     1       3.233  -6.384   0.516  0.00  0.00    +0.066 C 
ENDROOT
BRANCH   1  15
ATOM     11  C   UNL     1       0.847   1.471   1.739  0.00  0.00    +0.044 C 
ATOM     12  C   UNL     1       0.661   0.027   1.351  0.00  0.00    -0.050 A 
ATOM     13  C   UNL     1       0.234  -0.297   0.076  0.00  0.00    +0.004 A 
ATOM     14  C   UNL     1       0.064  -1.621  -0.280  0.00  0.00    +0.006 A 
ATOM     15  C   UNL     1       0.321  -2.623   0.638  0.00  0.00    -0.022 A 
ATOM     16  C   UNL     1       0.748  -2.299   1.912  0.00  0.00    +0.006 A 
ATOM     17  C   UNL     1       0.923  -0.974   2.267  0.00  0.00    +0.004 A 
ENDBRANCH   1  15
BRANCH   7  18
ATOM     18  C   UNL     1      -2.656  -3.206   1.087  0.00  0.00    +0.091 C 
ATOM     19  C   UNL     1      -3.943  -2.953   1.394  0.00  0.00    +0.241 C 
ATOM     20  O   UNL     1      -4.567  -3.681   2.352  0.00  0.00    -0.271 OA
BRANCH  19  21
ATOM     21  N   UNL     1      -4.628  -1.948   0.732  0.00  0.00    -0.298 N 
ATOM     22  C   UNL     1      -3.980  -1.216  -0.360  0.00  0.00    +0.132 C 
BRANCH  21  23
ATOM     23  C   UNL     1      -6.000  -1.617   1.122  0.00  0.00    +0.073 C 
ATOM     24  C   UNL     1      -6.946  -1.888  -0.051  0.00  0.00    +0.004 C 
ATOM     25  C   UNL     1      -8.365  -1.466   0.337  0.00  0.00    -0.077 C 
ATOM     26  N   UNL     1      -8.382  -0.034   0.660  0.00  0.00    +0.378 N 
ATOM     27  C   UNL     1      -7.533   0.223   1.829  0.00  0.00    -0.077 C 
ATOM     28  C   UNL     1      -6.082  -0.135   1.499  0.00  0.00    +0.004 C 
ATOM     29  C   UNL     1      -9.759   0.383   0.955  0.00  0.00    -0.096 C 
ATOM     30  H   UNL     1      -8.035   0.492  -0.128  0.00  0.00    -0.082 HD
ENDBRANCH  21  23
ENDBRANCH  19  21
ENDBRANCH   7  18
BRANCH   2  31
ATOM     31  C   UNL     1       2.355  -4.113  -0.977  0.00  0.00    +0.339 C 
ATOM     32  O   UNL     1       3.494  -4.530  -1.089  0.00  0.00    -0.245 OA
BRANCH  31  33
ATOM     33  O   UNL     1       1.914  -3.124  -1.785  0.00  0.00    -0.459 OA
BRANCH  33  34
ATOM     34  C   UNL     1       2.838  -2.614  -2.748  0.00  0.00    +0.171 C 
ATOM     35  C   UNL     1       2.715  -3.414  -4.047  0.00  0.00    +0.052 C 
ATOM     36  C   UNL     1       2.526  -1.142  -3.025  0.00  0.00    +0.052 C 
ENDBRANCH  33  34
ENDBRANCH  31  33
ENDBRANCH   2  31
TORSDOF 7
