REMARK  Name = ZINC01938566
REMARK  10 active torsions:
REMARK  status: ('A' for Active; 'I' for Inactive)
REMARK    1  A    between atoms: C_1  and  C_2
REMARK    2  A    between atoms: C_2  and  C_3
REMARK    3  A    between atoms: C_6  and  O_9
REMARK    4  A    between atoms: O_9  and  C_10
REMARK    5  A    between atoms: C_16  and  O_25
REMARK    6  A    between atoms: C_20  and  C_21
REMARK    7  A    between atoms: O_25  and  C_26
REMARK    8  A    between atoms: C_26  and  C_28
REMARK    9  A    between atoms: C_31  and  N_35
REMARK   10  A    between atoms: C_32  and  C_34
REMARK                            x       y       z     vdW  Elec       q    Type
REMARK                         _______ _______ _______ _____ _____    ______ ____
ROOT
ATOM      1  C   UNL     1      -6.327  -5.690   0.662  0.00  0.00    +0.222 A 
ATOM      2  C   UNL     1      -6.275  -4.276   0.502  0.00  0.00    +0.235 A 
ATOM      3  O   UNL     1      -7.293  -3.609   0.423  0.00  0.00    -0.283 OA
ATOM      4  C   UNL     1      -4.942  -3.654   0.435  0.00  0.00    +0.068 A 
ATOM      5  C   UNL     1      -4.790  -2.275   0.279  0.00  0.00    +0.019 A 
ATOM      6  C   UNL     1      -3.537  -1.734   0.226  0.00  0.00    +0.047 A 
ATOM      7  C   UNL     1      -2.412  -2.550   0.317  0.00  0.00    +0.135 A 
ATOM      8  C   UNL     1      -2.546  -3.919   0.472  0.00  0.00    +0.093 A 
ATOM      9  C   UNL     1      -3.812  -4.485   0.533  0.00  0.00    +0.143 A 
ATOM     10  O   UNL     1      -3.971  -5.815   0.684  0.00  0.00    -0.447 OA
ATOM     11  C   UNL     1      -5.178  -6.392   0.745  0.00  0.00    +0.254 A 
ENDROOT
BRANCH  11  12
ATOM     12  C   UNL     1      -5.257  -7.887   0.914  0.00  0.00    +0.454 C 
ATOM     13  F   UNL     1      -5.277  -8.498  -0.344  0.00  0.00    -0.163 F 
ATOM     14  F   UNL     1      -4.142  -8.334   1.632  0.00  0.00    -0.163 F 
ATOM     15  F   UNL     1      -6.424  -8.217   1.612  0.00  0.00    -0.163 F 
ENDBRANCH  11  12
BRANCH   1  16
ATOM     16  O   UNL     1      -7.526  -6.329   0.731  0.00  0.00    -0.448 OA
BRANCH  16  20
ATOM     17  C   UNL     1      -9.222  -7.649  -2.790  0.00  0.00    -0.047 A 
ATOM     18  C   UNL     1      -9.873  -7.862  -1.589  0.00  0.00    +0.007 A 
ATOM     19  C   UNL     1      -9.307  -7.420  -0.408  0.00  0.00    +0.046 A 
ATOM     20  C   UNL     1      -8.085  -6.764  -0.429  0.00  0.00    +0.129 A 
ATOM     21  C   UNL     1      -7.437  -6.547  -1.637  0.00  0.00    +0.046 A 
ATOM     22  C   UNL     1      -8.004  -6.996  -2.813  0.00  0.00    +0.007 A 
BRANCH  17  24
ATOM     23  C   UNL     1     -10.732  -7.032  -4.658  0.00  0.00    +0.009 C 
ATOM     24  C   UNL     1      -9.841  -8.132  -4.077  0.00  0.00    +0.032 C 
ENDBRANCH  17  24
ENDBRANCH  16  20
ENDBRANCH   1  16
BRANCH   7  25
ATOM     25  O   UNL     1      -1.173  -1.998   0.258  0.00  0.00    -0.422 OA
BRANCH  25  26
ATOM     26  C   UNL     1      -0.489  -2.150  -0.893  0.00  0.00    +0.344 C 
ATOM     27  O   UNL     1      -0.947  -2.836  -1.785  0.00  0.00    -0.245 OA
BRANCH  26  28
ATOM     28  C   UNL     1       0.817  -1.484  -1.069  0.00  0.00    +0.060 A 
ATOM     29  C   UNL     1       1.347  -0.696  -0.045  0.00  0.00    +0.017 A 
ATOM     30  C   UNL     1       2.568  -0.077  -0.217  0.00  0.00    +0.034 A 
ATOM     31  C   UNL     1       3.267  -0.236  -1.400  0.00  0.00    +0.129 A 
ATOM     32  C   UNL     1       2.749  -1.015  -2.419  0.00  0.00    -0.019 A 
ATOM     33  C   UNL     1       1.529  -1.640  -2.261  0.00  0.00    +0.020 A 
ATOM     34  C   UNL     1       3.518  -1.183  -3.704  0.00  0.00    +0.046 C 
BRANCH  31  35
ATOM     35  N   UNL     1       4.577   0.431  -1.577  0.00  0.00    +0.057 N 
ATOM     36  O   UNL     1       5.351   0.511  -0.640  0.00  0.00    -0.126 OA
ATOM     37  O   UNL     1       4.880   0.900  -2.659  0.00  0.00    -0.126 OA
ENDBRANCH  31  35
ENDBRANCH  26  28
ENDBRANCH  25  26
ENDBRANCH   7  25
TORSDOF 8
