REMARK  Name = ZINC32697374
REMARK  8 active torsions:
REMARK  status: ('A' for Active; 'I' for Inactive)
REMARK    1  A    between atoms: C_6  and  C_11
REMARK    2  A    between atoms: C_14  and  S_16
REMARK    3  A    between atoms: S_16  and  C_17
REMARK    4  A    between atoms: C_17  and  C_18
REMARK    5  A    between atoms: N_20  and  C_21
REMARK    6  A    between atoms: C_22  and  C_36
REMARK    7  A    between atoms: C_23  and  C_31
REMARK    8  A    between atoms: C_24  and  C_26
REMARK                            x       y       z     vdW  Elec       q    Type
REMARK                         _______ _______ _______ _____ _____    ______ ____
ROOT
ATOM      1  C   UNL     1       1.940  13.589   0.052  0.00  0.00    +0.230 C 
ATOM      2  O   UNL     1       3.145  13.720   0.040  0.00  0.00    -0.274 OA
ATOM      3  N   UNL     1       1.144  14.676   0.066  0.00  0.00    -0.255 N 
ATOM      4  H   UNL     1       0.050  14.557   0.077  0.00  0.00    +0.158 HD
ENDROOT
BRANCH   3   5
ATOM      5  C   UNL     1       1.701  15.941   0.067  0.00  0.00    +0.211 A 
ATOM      6  C   UNL     1       0.995  17.132   0.075  0.00  0.00    +0.124 A 
ATOM      7  C   UNL     1       2.015  18.199   0.074  0.00  0.00    +0.085 A 
ATOM      8  C   UNL     1       3.236  17.544   0.058  0.00  0.00    +0.184 A 
ATOM      9  O   UNL     1       3.013  16.214   0.054  0.00  0.00    -0.436 OA
BRANCH   8  10
ATOM     10  C   UNL     1       4.552  18.189   0.046  0.00  0.00    +0.170 A 
ATOM     11  C   UNL     1       5.759  17.550   0.029  0.00  0.00    +0.053 A 
ATOM     12  C   UNL     1       6.747  18.552   0.022  0.00  0.00    +0.042 A 
ATOM     13  C   UNL     1       6.109  19.740   0.034  0.00  0.00    +0.196 A 
ATOM     14  O   UNL     1       4.783  19.517   0.043  0.00  0.00    -0.460 OA
ENDBRANCH   8  10
BRANCH   7  15
ATOM     15  C   UNL     1       1.785  19.654   0.083  0.00  0.00    +0.140 A 
ATOM     16  C   UNL     1       1.188  20.376  -0.906  0.00  0.00    +0.050 A 
ATOM     17  C   UNL     1       1.178  21.718  -0.479  0.00  0.00    +0.042 A 
ATOM     18  C   UNL     1       1.761  21.751   0.735  0.00  0.00    +0.196 A 
ATOM     19  O   UNL     1       2.122  20.502   1.075  0.00  0.00    -0.463 OA
ENDBRANCH   7  15
BRANCH   6  20
ATOM     20  C   UNL     1      -0.428  17.295   0.084  0.00  0.00    +0.105 C 
ATOM     21  N   UNL     1      -1.557  17.424   0.092  0.00  0.00    -0.191 NA
ENDBRANCH   6  20
ENDBRANCH   3   5
BRANCH   1  22
ATOM     22  C   UNL     1       1.332  12.210   0.051  0.00  0.00    +0.175 C 
BRANCH  22  23
ATOM     23  S   UNL     1       2.650  10.970   0.030  0.00  0.00    -0.056 S 
BRANCH  23  27
ATOM     24  C   UNL     1       1.072   7.425   0.029  0.00  0.00    +0.249 A 
ATOM     25  N   UNL     1       0.009   8.193   0.043  0.00  0.00    -0.106 NA
ATOM     26  N   UNL     1       0.372   9.427   0.046  0.00  0.00    -0.101 NA
ATOM     27  C   UNL     1       1.684   9.496   0.033  0.00  0.00    +0.278 A 
ATOM     28  O   UNL     1       2.155   8.235   0.028  0.00  0.00    -0.411 OA
BRANCH  24  34
ATOM     29  C   UNL     1      -0.013   1.076   0.008  0.00  0.00    +0.001 A 
ATOM     30  C   UNL     1      -1.235   1.745   0.017  0.00  0.00    +0.001 A 
ATOM     31  C   UNL     1      -1.288   3.105   0.030  0.00  0.00    +0.008 A 
ATOM     32  C   UNL     1      -0.094   3.849   0.023  0.00  0.00    -0.017 A 
ATOM     33  C   UNL     1      -0.113   5.251   0.029  0.00  0.00    +0.021 A 
ATOM     34  C   UNL     1       1.084   5.949   0.021  0.00  0.00    +0.039 A 
ATOM     35  C   UNL     1       2.311   5.261   0.006  0.00  0.00    +0.014 A 
ATOM     36  C   UNL     1       2.348   3.904  -0.000  0.00  0.00    +0.009 A 
ATOM     37  C   UNL     1       1.150   3.167   0.008  0.00  0.00    -0.018 A 
ATOM     38  C   UNL     1       1.163   1.762   0.000  0.00  0.00    +0.008 A 
ENDBRANCH  24  34
ENDBRANCH  23  27
ENDBRANCH  22  23
ENDBRANCH   1  22
TORSDOF 8
