REMARK  Name = ZINC05123448
REMARK  5 active torsions:
REMARK  status: ('A' for Active; 'I' for Inactive)
REMARK    1  A    between atoms: C_1  and  C_2
REMARK    2  A    between atoms: C_5  and  N_8
REMARK    3  A    between atoms: C_10  and  N_15
REMARK    4  A    between atoms: N_18  and  C_19
REMARK    5  A    between atoms: C_25  and  C_27
REMARK                            x       y       z     vdW  Elec       q    Type
REMARK                         _______ _______ _______ _____ _____    ______ ____
ROOT
ATOM      1  N   UNL     1       5.622   4.699   3.152  0.00  0.00    -0.270 N 
ATOM      2  C   UNL     1       4.416   5.431   3.558  0.00  0.00    +0.136 C 
ATOM      3  C   UNL     1       3.306   4.363   3.679  0.00  0.00    +0.101 C 
ATOM      4  C   UNL     1       4.129   3.086   3.966  0.00  0.00    +0.120 C 
ATOM      5  C   UNL     1       5.490   3.380   3.375  0.00  0.00    +0.222 C 
ATOM      6  O   UNL     1       6.339   2.547   3.137  0.00  0.00    -0.275 OA
ENDROOT
BRANCH   1  11
ATOM      7  C   UNL     1      10.244   7.125   0.931  0.00  0.00    +0.044 C 
ATOM      8  C   UNL     1       9.016   6.481   1.521  0.00  0.00    -0.050 A 
ATOM      9  C   UNL     1       7.886   7.241   1.762  0.00  0.00    +0.005 A 
ATOM     10  C   UNL     1       6.759   6.653   2.303  0.00  0.00    +0.024 A 
ATOM     11  C   UNL     1       6.762   5.298   2.605  0.00  0.00    +0.036 A 
ATOM     12  C   UNL     1       7.900   4.539   2.367  0.00  0.00    +0.024 A 
ATOM     13  C   UNL     1       9.021   5.131   1.821  0.00  0.00    +0.005 A 
ENDBRANCH   1  11
BRANCH   3  14
ATOM     14  N   UNL     1       2.561   4.237   2.424  0.00  0.00    -0.295 N 
ATOM     15  C   UNL     1       1.295   3.777   2.436  0.00  0.00    +0.300 C 
ATOM     16  O   UNL     1       0.770   3.466   3.488  0.00  0.00    -0.253 OA
ATOM     17  N   UNL     1       0.609   3.660   1.281  0.00  0.00    -0.296 N 
ATOM     18  H   UNL     1       2.980   4.485   1.585  0.00  0.00    +0.151 HD
ATOM     19  H   UNL     1       1.028   3.908   0.442  0.00  0.00    +0.151 HD
BRANCH  17  20
ATOM     20  C   UNL     1      -0.767   3.160   1.294  0.00  0.00    +0.077 C 
ATOM     21  C   UNL     1      -0.754   1.630   1.269  0.00  0.00    +0.022 C 
ATOM     22  C   UNL     1      -0.048   1.146   0.002  0.00  0.00    +0.002 C 
ATOM     23  C   UNL     1      -0.792   1.670  -1.228  0.00  0.00    +0.000 C 
ATOM     24  C   UNL     1      -0.805   3.199  -1.204  0.00  0.00    +0.005 C 
ATOM     25  C   UNL     1      -1.512   3.683   0.064  0.00  0.00    +0.006 C 
ATOM     26  C   UNL     1      -1.525   5.213   0.088  0.00  0.00    +0.009 C 
ENDBRANCH  17  20
ENDBRANCH   3  14
TORSDOF 3
