REMARK  Name = ZINC64558347
REMARK  10 active torsions:
REMARK  status: ('A' for Active; 'I' for Inactive)
REMARK    1  A    between atoms: C_1  and  C_2
REMARK    2  A    between atoms: C_5  and  S_8
REMARK    3  A    between atoms: S_8  and  C_11
REMARK    4  A    between atoms: N_15  and  C_26
REMARK    5  A    between atoms: C_16  and  C_18
REMARK    6  A    between atoms: C_21  and  O_24
REMARK    7  A    between atoms: O_24  and  C_25
REMARK    8  A    between atoms: C_26  and  C_27
REMARK    9  A    between atoms: C_30  and  O_33
REMARK   10  A    between atoms: O_33  and  C_34
REMARK                            x       y       z     vdW  Elec       q    Type
REMARK                         _______ _______ _______ _____ _____    ______ ____
ROOT
ATOM      1  C   UNL     1       1.752  -5.029  -0.035  0.00  0.00    +0.147 C 
ATOM      2  C   UNL     1       2.388  -5.699   0.926  0.00  0.00    +0.263 C 
ATOM      3  C   UNL     1       3.788  -5.921   0.532  0.00  0.00    +0.289 C 
ATOM      4  O   UNL     1       4.617  -6.504   1.203  0.00  0.00    -0.266 OA
ATOM      5  N   UNL     1       4.014  -5.384  -0.681  0.00  0.00    -0.278 N 
ATOM      6  C   UNL     1       2.754  -4.786  -1.140  0.00  0.00    +0.160 C 
ATOM      7  O   UNL     1       1.829  -6.112   2.095  0.00  0.00    -0.281 OA
ENDROOT
BRANCH   6   8
ATOM      8  C   UNL     1       2.935  -3.306  -1.360  0.00  0.00    -0.021 A 
ATOM      9  C   UNL     1       3.758  -2.579  -0.519  0.00  0.00    +0.009 A 
ATOM     10  C   UNL     1       3.925  -1.222  -0.718  0.00  0.00    +0.046 A 
ATOM     11  C   UNL     1       3.267  -0.589  -1.763  0.00  0.00    +0.120 A 
ATOM     12  C   UNL     1       2.442  -1.321  -2.605  0.00  0.00    +0.046 A 
ATOM     13  C   UNL     1       2.282  -2.679  -2.405  0.00  0.00    +0.009 A 
BRANCH  11  14
ATOM     14  O   UNL     1       3.429   0.745  -1.960  0.00  0.00    -0.495 OA
ATOM     15  C   UNL     1       2.721   1.330  -3.055  0.00  0.00    +0.277 C 
ENDBRANCH  11  14
ENDBRANCH   6   8
BRANCH   1  16
ATOM     16  S   UNL     1       0.063  -4.530  -0.023  0.00  0.00    +0.027 S 
ATOM     17  O   UNL     1      -0.476  -4.950   1.223  0.00  0.00    -0.164 OA
ATOM     18  O   UNL     1      -0.490  -4.937  -1.267  0.00  0.00    -0.164 OA
BRANCH  16  23
ATOM     19  C   UNL     1      -0.018   1.503   0.010  0.00  0.00    +0.044 C 
ATOM     20  C   UNL     1       0.002  -0.004   0.002  0.00  0.00    -0.050 A 
ATOM     21  C   UNL     1       0.006  -0.689  -1.199  0.00  0.00    +0.005 A 
ATOM     22  C   UNL     1       0.025  -2.071  -1.206  0.00  0.00    +0.027 A 
ATOM     23  C   UNL     1       0.040  -2.768  -0.013  0.00  0.00    +0.093 A 
ATOM     24  C   UNL     1       0.037  -2.084   1.188  0.00  0.00    +0.027 A 
ATOM     25  C   UNL     1       0.023  -0.702   1.195  0.00  0.00    +0.005 A 
ENDBRANCH  16  23
ENDBRANCH   1  16
BRANCH   5  26
ATOM     26  C   UNL     1       5.283  -5.399  -1.413  0.00  0.00    +0.144 C 
BRANCH  26  27
ATOM     27  C   UNL     1       5.351  -6.633  -2.276  0.00  0.00    -0.030 A 
ATOM     28  C   UNL     1       5.889  -7.801  -1.769  0.00  0.00    +0.009 A 
ATOM     29  C   UNL     1       5.953  -8.933  -2.558  0.00  0.00    +0.046 A 
ATOM     30  C   UNL     1       5.477  -8.897  -3.860  0.00  0.00    +0.120 A 
ATOM     31  C   UNL     1       4.937  -7.724  -4.367  0.00  0.00    +0.046 A 
ATOM     32  C   UNL     1       4.871  -6.596  -3.572  0.00  0.00    +0.009 A 
BRANCH  30  33
ATOM     33  O   UNL     1       5.539 -10.009  -4.639  0.00  0.00    -0.495 OA
ATOM     34  C   UNL     1       5.030  -9.899  -5.969  0.00  0.00    +0.277 C 
ENDBRANCH  30  33
ENDBRANCH  26  27
ENDBRANCH   5  26
TORSDOF 7
