REMARK  Name = ZINC45956921
REMARK  5 active torsions:
REMARK  status: ('A' for Active; 'I' for Inactive)
REMARK    1  A    between atoms: C_1  and  C_2
REMARK    2  A    between atoms: C_7  and  C_10
REMARK    3  A    between atoms: C_14  and  C_17
REMARK    4  A    between atoms: C_17  and  N_18
REMARK    5  A    between atoms: N_21  and  C_22
REMARK                            x       y       z     vdW  Elec       q    Type
REMARK                         _______ _______ _______ _____ _____    ______ ____
ROOT
ATOM      1  C   UNL     1      -0.108  -2.018   3.670  0.00  0.00    +0.039 C 
ATOM      2  C   UNL     1      -1.043  -1.637   2.520  0.00  0.00    +0.133 C 
ATOM      3  C   UNL     1      -0.644  -2.410   1.258  0.00  0.00    +0.137 C 
ATOM      4  N   UNL     1      -1.431  -1.892   0.128  0.00  0.00    -0.312 N 
ATOM      5  C   UNL     1      -1.457  -0.436  -0.086  0.00  0.00    +0.137 C 
ATOM      6  C   UNL     1      -1.816   0.241   1.242  0.00  0.00    +0.133 C 
ATOM      7  O   UNL     1      -0.940  -0.234   2.266  0.00  0.00    -0.371 OA
ATOM      8  C   UNL     1      -3.263  -0.093   1.611  0.00  0.00    +0.039 C 
ATOM      9  C   UNL     1      -2.128  -2.752  -0.713  0.00  0.00    +0.099 A 
ATOM     10  C   UNL     1      -2.952  -2.228  -1.704  0.00  0.00    +0.042 A 
ATOM     11  C   UNL     1      -3.640  -3.095  -2.534  0.00  0.00    +0.010 A 
ATOM     12  C   UNL     1      -3.480  -4.462  -2.344  0.00  0.00    -0.014 A 
ATOM     13  C   UNL     1      -2.646  -4.911  -1.340  0.00  0.00    +0.089 A 
ATOM     14  N   UNL     1      -1.998  -4.061  -0.567  0.00  0.00    -0.349 N 
ATOM     15  H   UNL     1      -1.415  -4.404   0.129  0.00  0.00    +0.167 HD
ENDROOT
BRANCH  12  16
ATOM     16  C   UNL     1      -4.210  -5.443  -3.224  0.00  0.00    +0.142 C 
BRANCH  16  17
ATOM     17  N   UNL     1      -3.384  -5.760  -4.391  0.00  0.00    -0.295 N 
ATOM     18  C   UNL     1      -3.837  -6.623  -5.323  0.00  0.00    +0.304 C 
ATOM     19  O   UNL     1      -4.930  -7.138  -5.194  0.00  0.00    -0.252 OA
ATOM     20  N   UNL     1      -3.077  -6.914  -6.397  0.00  0.00    -0.267 N 
ATOM     21  H   UNL     1      -2.512  -5.349  -4.495  0.00  0.00    +0.151 HD
ATOM     22  H   UNL     1      -2.172  -6.571  -6.459  0.00  0.00    +0.156 HD
BRANCH  20  23
ATOM     23  C   UNL     1      -3.595  -7.713  -7.425  0.00  0.00    +0.073 A 
ATOM     24  C   UNL     1      -4.943  -7.644  -7.747  0.00  0.00    +0.064 A 
ATOM     25  C   UNL     1      -5.451  -8.434  -8.763  0.00  0.00    +0.125 A 
ATOM     26  C   UNL     1      -4.615  -9.293  -9.458  0.00  0.00    +0.041 A 
ATOM     27  C   UNL     1      -3.272  -9.363  -9.139  0.00  0.00    +0.043 A 
ATOM     28  C   UNL     1      -2.757  -8.572  -8.128  0.00  0.00    +0.145 A 
ATOM     29  F   UNL     1      -1.444  -8.637  -7.821  0.00  0.00    -0.204 F 
ATOM     30  F   UNL     1      -6.763  -8.368  -9.077  0.00  0.00    -0.205 F 
ENDBRANCH  20  23
ENDBRANCH  16  17
ENDBRANCH  12  16
TORSDOF 3
