REMARK  Name = ZINC37425154
REMARK  10 active torsions:
REMARK  status: ('A' for Active; 'I' for Inactive)
REMARK    1  A    between atoms: C_1  and  C_2
REMARK    2  A    between atoms: C_2  and  C_3
REMARK    3  A    between atoms: C_2  and  C_4
REMARK    4  A    between atoms: C_2  and  C_5
REMARK    5  A    between atoms: N_8  and  C_10
REMARK    6  A    between atoms: N_11  and  C_26
REMARK    7  A    between atoms: C_16  and  C_18
REMARK    8  A    between atoms: C_26  and  C_27
REMARK    9  A    between atoms: N_29  and  C_30
REMARK   10  A    between atoms: C_30  and  C_31
REMARK                            x       y       z     vdW  Elec       q    Type
REMARK                         _______ _______ _______ _____ _____    ______ ____
ROOT
ATOM      1  C   UNL     1      -0.388  -0.432  -2.221  0.00  0.00    +0.075 A 
ATOM      2  C   UNL     1      -1.126  -1.592  -2.462  0.00  0.00    +0.033 A 
ATOM      3  C   UNL     1      -1.387  -1.649  -3.789  0.00  0.00    +0.131 A 
ATOM      4  N   UNL     1      -0.841  -0.566  -4.372  0.00  0.00    -0.253 N 
ATOM      5  N   UNL     1      -0.221   0.188  -3.363  0.00  0.00    -0.174 NA
ATOM      6  C   UNL     1      -0.891  -0.231  -5.797  0.00  0.00    +0.174 C 
ATOM      7  N   UNL     1      -2.104  -2.689  -4.399  0.00  0.00    -0.246 N 
ATOM      8  C   UNL     1      -1.767  -3.951  -4.113  0.00  0.00    +0.231 C 
ATOM      9  O   UNL     1      -2.535  -4.854  -4.368  0.00  0.00    -0.274 OA
ATOM     10  C   UNL     1      -0.444  -4.253  -3.477  0.00  0.00    +0.166 C 
ATOM     11  S   UNL     1      -0.555  -4.123  -1.661  0.00  0.00    -0.138 S 
ATOM     12  C   UNL     1      -1.572  -2.618  -1.452  0.00  0.00    +0.115 C 
ENDROOT
BRANCH  12  13
ATOM     13  C   UNL     1      -1.387  -2.071  -0.060  0.00  0.00    +0.005 A 
ATOM     14  C   UNL     1      -2.358  -1.262   0.499  0.00  0.00    +0.010 A 
ATOM     15  C   UNL     1      -2.190  -0.760   1.776  0.00  0.00    +0.039 A 
ATOM     16  C   UNL     1      -1.047  -1.067   2.496  0.00  0.00    +0.126 A 
ATOM     17  C   UNL     1      -0.074  -1.878   1.937  0.00  0.00    +0.077 A 
ATOM     18  C   UNL     1      -0.247  -2.384   0.660  0.00  0.00    +0.131 A 
ATOM     19  F   UNL     1       0.700  -3.180   0.115  0.00  0.00    -0.205 F 
ATOM     20  F   UNL     1      -0.883  -0.576   3.744  0.00  0.00    -0.205 F 
ENDBRANCH  12  13
BRANCH   1  22
ATOM     21  C   UNL     1       0.820   1.381  -1.037  0.00  0.00    +0.017 C 
ATOM     22  C   UNL     1       0.120   0.029  -0.879  0.00  0.00    +0.007 C 
ATOM     23  C   UNL     1       1.113  -0.997  -0.330  0.00  0.00    +0.017 C 
ATOM     24  C   UNL     1      -1.054   0.173   0.090  0.00  0.00    +0.017 C 
ENDBRANCH   1  22
BRANCH   7  25
ATOM     25  C   UNL     1      -3.198  -2.400  -5.329  0.00  0.00    +0.210 C 
BRANCH  25  26
ATOM     26  C   UNL     1      -4.516  -2.510  -4.606  0.00  0.00    +0.231 C 
ATOM     27  O   UNL     1      -4.535  -2.677  -3.405  0.00  0.00    -0.274 OA
ATOM     28  N   UNL     1      -5.672  -2.424  -5.293  0.00  0.00    -0.307 N 
ATOM     29  H   UNL     1      -5.656  -2.290  -6.254  0.00  0.00    +0.149 HD
BRANCH  28  30
ATOM     30  C   UNL     1      -6.952  -2.531  -4.590  0.00  0.00    +0.178 C 
BRANCH  30  31
ATOM     31  C   UNL     1      -8.081  -2.402  -5.579  0.00  0.00    +0.122 A 
ATOM     32  C   UNL     1      -8.666  -3.416  -6.242  0.00  0.00    +0.046 A 
ATOM     33  C   UNL     1      -9.670  -2.847  -7.058  0.00  0.00    +0.041 A 
ATOM     34  C   UNL     1      -9.639  -1.519  -6.846  0.00  0.00    +0.195 A 
ATOM     35  O   UNL     1      -8.678  -1.256  -5.945  0.00  0.00    -0.466 OA
ENDBRANCH  30  31
ENDBRANCH  28  30
ENDBRANCH  25  26
ENDBRANCH   7  25
TORSDOF 6
