REMARK  Name = ZINC64167183
REMARK  4 active torsions:
REMARK  status: ('A' for Active; 'I' for Inactive)
REMARK    1  A    between atoms: C_1  and  C_2
REMARK    2  A    between atoms: C_10  and  C_12
REMARK    3  A    between atoms: C_12  and  N_13
REMARK    4  A    between atoms: N_13  and  C_14
REMARK                            x       y       z     vdW  Elec       q    Type
REMARK                         _______ _______ _______ _____ _____    ______ ____
ROOT
ATOM      1  N   UNL     1       1.354  -1.641   3.132  0.00  0.00    +0.385 N 
ATOM      2  H   UNL     1       0.539  -1.546   3.720  0.00  0.00    -0.085 HD
ATOM      3  H   UNL     1       1.385  -2.575   2.751  0.00  0.00    -0.085 HD
ENDROOT
BRANCH   1   4
ATOM      4  C   UNL     1       2.563  -1.398   3.930  0.00  0.00    -0.042 C 
ATOM      5  C   UNL     1       3.817  -1.694   3.090  0.00  0.00    -0.011 C 
ATOM      6  C   UNL     1       3.913  -3.191   2.804  0.00  0.00    +0.001 C 
ATOM      7  C   UNL     1       4.097  -3.990   4.099  0.00  0.00    +0.029 C 
ATOM      8  C   UNL     1       2.834  -3.832   4.950  0.00  0.00    +0.121 C 
ATOM      9  C   UNL     1       2.600  -2.336   5.113  0.00  0.00    -0.047 C 
ATOM     10  C   UNL     1       2.474  -2.087   6.387  0.00  0.00    +0.087 C 
ATOM     11  N   UNL     1       2.660  -3.228   7.150  0.00  0.00    -0.270 N 
ATOM     12  N   UNL     1       3.027  -4.325   6.316  0.00  0.00    -0.230 N 
ATOM     13  C   UNL     1       3.473  -5.584   6.703  0.00  0.00    +0.138 A 
ATOM     14  C   UNL     1       3.593  -5.888   8.055  0.00  0.00    +0.045 A 
ATOM     15  C   UNL     1       4.037  -7.144   8.425  0.00  0.00    +0.005 A 
ATOM     16  C   UNL     1       4.349  -8.058   7.427  0.00  0.00    +0.020 A 
ATOM     17  C   UNL     1       4.206  -7.689   6.105  0.00  0.00    +0.113 A 
ATOM     18  N   UNL     1       3.775  -6.485   5.780  0.00  0.00    -0.239 NA
ATOM     19  H   UNL     1       2.552  -3.277   8.113  0.00  0.00    +0.170 HD
ENDBRANCH   1   4
BRANCH   1  20
ATOM     20  C   UNL     1       1.285  -0.666   2.037  0.00  0.00    -0.052 C 
BRANCH  20  30
ATOM     21  C   UNL     1      -0.018   1.503   0.010  0.00  0.00    +0.042 C 
ATOM     22  C   UNL     1       0.002  -0.004   0.002  0.00  0.00    -0.043 C 
ATOM     23  C   UNL     1       0.009  -0.811  -1.083  0.00  0.00    +0.000 A 
ATOM     24  C   UNL     1      -0.001  -0.541  -2.526  0.00  0.00    +0.010 A 
ATOM     25  C   UNL     1       0.009  -1.574  -3.396  0.00  0.00    +0.002 A 
ATOM     26  C   UNL     1       0.028  -2.910  -2.976  0.00  0.00    +0.022 A 
ATOM     27  C   UNL     1       0.038  -3.263  -1.671  0.00  0.00    +0.064 A 
ATOM     28  C   UNL     1       0.030  -2.223  -0.637  0.00  0.00    +0.061 A 
ATOM     29  N   UNL     1       0.036  -2.286   0.671  0.00  0.00    -0.378 N 
ATOM     30  C   UNL     1       0.026  -0.920   1.206  0.00  0.00    +0.089 C 
ATOM     31 CL   UNL     1       0.062  -4.940  -1.221  0.00  0.00    -0.081 Cl
ATOM     32  H   UNL     1       0.049  -3.100   1.199  0.00  0.00    +0.160 HD
ENDBRANCH  20  30
ENDBRANCH   1  20
TORSDOF 3
