REMARK  Name = ZINC12468577
REMARK  4 active torsions:
REMARK  status: ('A' for Active; 'I' for Inactive)
REMARK    1  A    between atoms: C_1  and  O_2
REMARK    2  A    between atoms: O_2  and  C_3
REMARK    3  A    between atoms: C_6  and  C_9
REMARK    4  A    between atoms: C_12  and  C_26
REMARK                            x       y       z     vdW  Elec       q    Type
REMARK                         _______ _______ _______ _____ _____    ______ ____
ROOT
ATOM      1  C   UNL     1      -4.981  -2.629   0.035  0.00  0.00    +0.147 C 
ATOM      2  C   UNL     1      -5.087  -3.524   1.276  0.00  0.00    +0.087 C 
ATOM      3  C   UNL     1      -4.294  -4.788   1.099  0.00  0.00    +0.055 C 
ATOM      4  N   UNL     1      -4.158  -5.378  -0.058  0.00  0.00    -0.215 NA
ATOM      5  C   UNL     1      -4.694  -4.788  -1.160  0.00  0.00    +0.251 A 
ATOM      6  N   UNL     1      -5.100  -3.480  -1.149  0.00  0.00    -0.220 N 
ATOM      7  N   UNL     1      -5.597  -3.204  -2.418  0.00  0.00    -0.131 NA
ATOM      8  C   UNL     1      -5.460  -4.305  -3.127  0.00  0.00    +0.252 A 
ATOM      9  N   UNL     1      -4.904  -5.257  -2.365  0.00  0.00    -0.175 NA
ATOM     10  N   UNL     1      -5.837  -4.457  -4.468  0.00  0.00    -0.176 N 
ATOM     11  C   UNL     1      -6.386  -3.467  -5.183  0.00  0.00    +0.229 C 
ATOM     12  O   UNL     1      -6.617  -2.350  -4.774  0.00  0.00    -0.275 OA
ATOM     13  C   UNL     1      -6.671  -3.964  -6.584  0.00  0.00    +0.106 C 
ATOM     14  C   UNL     1      -6.187  -5.428  -6.553  0.00  0.00    +0.106 C 
ATOM     15  C   UNL     1      -5.674  -5.603  -5.141  0.00  0.00    +0.229 C 
ATOM     16  O   UNL     1      -5.194  -6.620  -4.689  0.00  0.00    -0.275 OA
ENDROOT
BRANCH   3  17
ATOM     17  C   UNL     1      -3.644  -5.384   2.277  0.00  0.00    -0.003 A 
ATOM     18  C   UNL     1      -3.775  -4.781   3.533  0.00  0.00    +0.011 A 
ATOM     19  C   UNL     1      -3.164  -5.346   4.632  0.00  0.00    +0.016 A 
ATOM     20  C   UNL     1      -2.422  -6.507   4.495  0.00  0.00    +0.018 A 
ATOM     21  C   UNL     1      -2.288  -7.110   3.255  0.00  0.00    +0.016 A 
ATOM     22  C   UNL     1      -2.898  -6.561   2.148  0.00  0.00    +0.011 A 
ATOM     23 BR   UNL     1      -1.587  -7.273   6.009  0.00  0.00    -0.050 Br
ENDBRANCH   3  17
BRANCH   1  27
ATOM     24  C   UNL     1      -1.200  -0.637   0.010  0.00  0.00    +0.120 A 
ATOM     25  C   UNL     1      -2.375   0.101   0.019  0.00  0.00    +0.046 A 
ATOM     26  C   UNL     1      -3.596  -0.545   0.027  0.00  0.00    +0.009 A 
ATOM     27  C   UNL     1      -3.648  -1.927   0.026  0.00  0.00    -0.022 A 
ATOM     28  C   UNL     1      -2.479  -2.665   0.017  0.00  0.00    +0.009 A 
ATOM     29  C   UNL     1      -1.255  -2.024   0.003  0.00  0.00    +0.046 A 
BRANCH  24  31
ATOM     30  C   UNL     1      -0.017   1.425   0.010  0.00  0.00    +0.277 C 
ATOM     31  O   UNL     1       0.002  -0.004   0.002  0.00  0.00    -0.495 OA
ENDBRANCH  24  31
ENDBRANCH   1  27
TORSDOF 3
