REMARK  Name = ZINC01602283
REMARK  9 active torsions:
REMARK  status: ('A' for Active; 'I' for Inactive)
REMARK    1  A    between atoms: N_22  and  C_23
REMARK    2  A    between atoms: C_23  and  C_24
REMARK    3  A    between atoms: C_24  and  N_57
REMARK    4  A    between atoms: C_25  and  C_26
REMARK    5  A    between atoms: C_25  and  N_57
REMARK    6  A    between atoms: C_26  and  O_27
REMARK    7  A    between atoms: C_28  and  C_29
REMARK    8  A    between atoms: C_28  and  N_57
REMARK    9  A    between atoms: C_29  and  O_30
REMARK                            x       y       z     vdW  Elec       q    Type
REMARK                         _______ _______ _______ _____ _____    ______ ____
ROOT
ATOM      1  C   UNL     1      -3.313  -0.868  -1.509  0.00  0.00    +0.001 A 
ATOM      2  C   UNL     1      -3.216   0.521  -1.424  0.00  0.00    +0.001 A 
ATOM      3  C   UNL     1      -2.128   1.114  -0.861  0.00  0.00    +0.009 A 
ATOM      4  C   UNL     1      -1.085   0.320  -0.357  0.00  0.00    -0.002 A 
ATOM      5  C   UNL     1      -1.185  -1.094  -0.440  0.00  0.00    -0.017 A 
ATOM      6  C   UNL     1      -2.324  -1.669  -1.029  0.00  0.00    +0.008 A 
ATOM      7  C   UNL     1      -0.144  -1.889   0.066  0.00  0.00    +0.010 A 
ATOM      8  C   UNL     1       0.952  -1.310   0.630  0.00  0.00    +0.025 A 
ATOM      9  C   UNL     1       1.069   0.080   0.718  0.00  0.00    +0.048 A 
ATOM     10  C   UNL     1       0.056   0.891   0.229  0.00  0.00    +0.042 A 
ATOM     11  S   UNL     1       0.232   2.643   0.356  0.00  0.00    -0.085 S 
ATOM     12  C   UNL     1       1.984   2.850   0.321  0.00  0.00    +0.042 A 
ATOM     13  C   UNL     1       2.562   4.026  -0.182  0.00  0.00    -0.002 A 
ATOM     14  C   UNL     1       1.776   5.079  -0.676  0.00  0.00    +0.009 A 
ATOM     15  C   UNL     1       2.377   6.202  -1.155  0.00  0.00    +0.001 A 
ATOM     16  C   UNL     1       3.765   6.326  -1.163  0.00  0.00    +0.001 A 
ATOM     17  C   UNL     1       4.560   5.327  -0.692  0.00  0.00    +0.008 A 
ATOM     18  C   UNL     1       3.977   4.151  -0.190  0.00  0.00    -0.017 A 
ATOM     19  C   UNL     1       4.765   3.099   0.303  0.00  0.00    +0.010 A 
ATOM     20  C   UNL     1       4.178   1.968   0.784  0.00  0.00    +0.025 A 
ATOM     21  C   UNL     1       2.788   1.827   0.800  0.00  0.00    +0.048 A 
ATOM     22  N   UNL     1       2.208   0.652   1.301  0.00  0.00    -0.300 N 
ENDROOT
BRANCH  22  23
ATOM     23  C   UNL     1       2.811   0.004   2.468  0.00  0.00    +0.092 C 
BRANCH  23  24
ATOM     24  C   UNL     1       3.861  -1.008   2.004  0.00  0.00    -0.059 C 
BRANCH  24  25
ATOM     25  N   UNL     1       4.475  -1.637   3.192  0.00  0.00    +0.384 N 
ATOM     26  H   UNL     1       4.794  -0.901   3.833  0.00  0.00    -0.082 HD
BRANCH  25  27
ATOM     27  C   UNL     1       3.479  -2.480   3.888  0.00  0.00    -0.050 C 
BRANCH  27  28
ATOM     28  C   UNL     1       4.005  -2.806   5.288  0.00  0.00    +0.137 C 
BRANCH  28  29
ATOM     29  O   UNL     1       4.127  -1.599   6.044  0.00  0.00    -0.397 OA
ATOM     30  H   UNL     1       4.455  -1.731   6.944  0.00  0.00    +0.209 HD
ENDBRANCH  28  29
ENDBRANCH  27  28
ENDBRANCH  25  27
BRANCH  25  31
ATOM     31  C   UNL     1       5.636  -2.457   2.787  0.00  0.00    -0.050 C 
BRANCH  31  32
ATOM     32  C   UNL     1       6.821  -1.528   2.517  0.00  0.00    +0.137 C 
BRANCH  32  33
ATOM     33  O   UNL     1       7.202  -0.876   3.730  0.00  0.00    -0.397 OA
ATOM     34  H   UNL     1       7.898  -0.214   3.619  0.00  0.00    +0.209 HD
ENDBRANCH  32  33
ENDBRANCH  31  32
ENDBRANCH  25  31
ENDBRANCH  24  25
ENDBRANCH  23  24
ENDBRANCH  22  23
TORSDOF 9
