REMARK  Name = ZINC20071665
REMARK  10 active torsions:
REMARK  status: ('A' for Active; 'I' for Inactive)
REMARK    1  A    between atoms: C_1  and  C_2
REMARK    2  A    between atoms: C_2  and  C_3
REMARK    3  A    between atoms: C_3  and  C_4
REMARK    4  A    between atoms: C_4  and  N_5
REMARK    5  A    between atoms: C_18  and  S_19
REMARK    6  A    between atoms: S_19  and  C_20
REMARK    7  A    between atoms: C_20  and  C_21
REMARK    8  A    between atoms: N_23  and  C_24
REMARK    9  A    between atoms: C_24  and  C_26
REMARK   10  A    between atoms: C_24  and  C_27
REMARK                            x       y       z     vdW  Elec       q    Type
REMARK                         _______ _______ _______ _____ _____    ______ ____
ROOT
ATOM      1  N   UNL     1       0.839   0.507   6.243  0.00  0.00    -0.277 N 
ATOM      2  C   UNL     1      -0.096   1.170   6.955  0.00  0.00    +0.263 A 
ATOM      3  O   UNL     1      -0.071   1.159   8.171  0.00  0.00    -0.267 OA
ATOM      4  C   UNL     1      -1.154   1.899   6.232  0.00  0.00    +0.064 A 
ATOM      5  C   UNL     1      -2.151   2.594   6.916  0.00  0.00    +0.015 A 
ATOM      6  C   UNL     1      -3.124   3.264   6.206  0.00  0.00    +0.001 A 
ATOM      7  C   UNL     1      -3.114   3.250   4.820  0.00  0.00    +0.002 A 
ATOM      8  C   UNL     1      -2.133   2.566   4.131  0.00  0.00    +0.027 A 
ATOM      9  C   UNL     1      -1.147   1.886   4.829  0.00  0.00    +0.064 A 
ATOM     10  N   UNL     1      -0.144   1.188   4.159  0.00  0.00    -0.256 N 
ATOM     11  C   UNL     1       0.823   0.517   4.857  0.00  0.00    +0.240 A 
ATOM     12  N   UNL     1       1.633  -0.040   3.985  0.00  0.00    -0.109 NA
ATOM     13  N   UNL     1       1.175   0.274   2.701  0.00  0.00    -0.120 NA
ATOM     14  C   UNL     1       0.099   1.013   2.823  0.00  0.00    +0.198 A 
ENDROOT
BRANCH   1  15
ATOM     15  C   UNL     1       1.898  -0.221   6.947  0.00  0.00    +0.128 C 
BRANCH  15  16
ATOM     16  C   UNL     1       3.083   0.715   7.191  0.00  0.00    +0.021 C 
BRANCH  16  18
ATOM     17  C   UNL     1       5.375   0.892   8.171  0.00  0.00    +0.004 C 
ATOM     18  C   UNL     1       4.190  -0.044   7.926  0.00  0.00    -0.002 C 
ENDBRANCH  16  18
ENDBRANCH  15  16
ENDBRANCH   1  15
BRANCH  14  19
ATOM     19  S   UNL     1      -0.862   1.671   1.500  0.00  0.00    -0.076 S 
BRANCH  19  20
ATOM     20  C   UNL     1      -0.013   1.086   0.008  0.00  0.00    +0.173 C 
BRANCH  20  21
ATOM     21  C   UNL     1      -0.742   1.585  -1.213  0.00  0.00    +0.224 C 
ATOM     22  O   UNL     1      -1.736   2.268  -1.088  0.00  0.00    -0.275 OA
ATOM     23  N   UNL     1      -0.288   1.272  -2.443  0.00  0.00    -0.308 N 
ATOM     24  H   UNL     1       0.614   0.653  -2.556  0.00  0.00    +0.149 HD
BRANCH  23  25
ATOM     25  C   UNL     1      -0.997   1.758  -3.630  0.00  0.00    +0.100 C 
ATOM     26  C   UNL     1      -2.141   0.800  -3.968  0.00  0.00    +0.033 C 
BRANCH  25  27
ATOM     27  C   UNL     1      -0.041   1.828  -4.792  0.00  0.00    -0.027 A 
ATOM     28  C   UNL     1       0.898   0.830  -4.980  0.00  0.00    +0.006 A 
ATOM     29  C   UNL     1       1.772   0.902  -6.045  0.00  0.00    +0.004 A 
ATOM     30  C   UNL     1       1.717   1.970  -6.931  0.00  0.00    -0.044 A 
ATOM     31  C   UNL     1       0.779   2.961  -6.747  0.00  0.00    -0.044 A 
ATOM     32  C   UNL     1      -0.102   2.885  -5.676  0.00  0.00    +0.009 A 
ATOM     33  C   UNL     1       0.656   4.142  -7.674  0.00  0.00    +0.035 C 
ATOM     34  C   UNL     1       1.926   4.306  -8.507  0.00  0.00    +0.005 C 
ATOM     35  C   UNL     1       2.255   2.958  -9.157  0.00  0.00    +0.005 C 
ATOM     36  C   UNL     1       2.710   1.993  -8.064  0.00  0.00    +0.035 C 
ENDBRANCH  25  27
ENDBRANCH  23  25
ENDBRANCH  20  21
ENDBRANCH  19  20
ENDBRANCH  14  19
TORSDOF 8
