REMARK  Name = ZINC06301745
REMARK  7 active torsions:
REMARK  status: ('A' for Active; 'I' for Inactive)
REMARK    1  A    between atoms: C_1  and  C_2
REMARK    2  A    between atoms: C_4  and  C_33
REMARK    3  A    between atoms: C_7  and  C_14
REMARK    4  A    between atoms: C_14  and  C_16
REMARK    5  A    between atoms: C_14  and  N_60
REMARK    6  A    between atoms: N_20  and  C_21
REMARK    7  A    between atoms: C_21  and  C_22
REMARK                            x       y       z     vdW  Elec       q    Type
REMARK                         _______ _______ _______ _____ _____    ______ ____
ROOT
ATOM      1  C   UNL     1       1.961   6.385  -1.852  0.00  0.00    +0.039 C 
ENDROOT
BRANCH   1   8
ATOM      2  C   UNL     1      -5.148   5.045  -5.212  0.00  0.00    +0.044 C 
ATOM      3  C   UNL     1      -3.746   5.087  -4.659  0.00  0.00    -0.048 A 
ATOM      4  C   UNL     1      -2.894   4.010  -4.864  0.00  0.00    +0.007 A 
ATOM      5  C   UNL     1      -1.621   4.028  -4.372  0.00  0.00    -0.041 A 
ATOM      6  C   UNL     1      -1.170   5.141  -3.654  0.00  0.00    +0.002 A 
ATOM      7  C   UNL     1       0.190   5.196  -3.116  0.00  0.00    +0.018 A 
ATOM      8  C   UNL     1       0.569   6.298  -2.424  0.00  0.00    +0.011 A 
ATOM      9  C   UNL     1      -0.333   7.368  -2.241  0.00  0.00    +0.251 A 
ATOM     10  O   UNL     1       0.030   8.352  -1.619  0.00  0.00    -0.268 OA
ATOM     11  N   UNL     1      -1.583   7.329  -2.736  0.00  0.00    -0.322 N 
ATOM     12  H   UNL     1      -2.177   8.082  -2.592  0.00  0.00    +0.169 HD
ATOM     13  C   UNL     1      -2.031   6.235  -3.444  0.00  0.00    +0.050 A 
ATOM     14  C   UNL     1      -3.324   6.194  -3.955  0.00  0.00    +0.029 A 
ATOM     15  C   UNL     1      -0.704   2.853  -4.599  0.00  0.00    +0.044 C 
ENDBRANCH   1   8
BRANCH   1  21
ATOM     16  C   UNL     1       2.671   7.467  -3.898  0.00  0.00    -0.077 C 
ATOM     17  C   UNL     1       3.273   8.753  -4.470  0.00  0.00    -0.019 C 
ATOM     18  C   UNL     1       4.697   8.925  -3.936  0.00  0.00    -0.004 C 
ATOM     19  C   UNL     1       4.661   8.950  -2.405  0.00  0.00    -0.019 C 
ATOM     20  C   UNL     1       4.019   7.659  -1.893  0.00  0.00    -0.077 C 
ATOM     21  N   UNL     1       2.642   7.565  -2.423  0.00  0.00    +0.389 N 
ATOM     22  H   UNL     1       2.124   8.410  -2.156  0.00  0.00    -0.080 HD
ENDBRANCH   1  21
BRANCH   1  23
ATOM     23  C   UNL     1       2.719   5.124  -2.183  0.00  0.00    +0.143 A 
ATOM     24  N   UNL     1       3.150   4.758  -3.365  0.00  0.00    -0.115 NA
ATOM     25  N   UNL     1       3.750   3.625  -3.236  0.00  0.00    -0.023 NA
ATOM     26  N   UNL     1       3.716   3.261  -2.002  0.00  0.00    -0.044 NA
ATOM     27  N   UNL     1       3.084   4.157  -1.321  0.00  0.00    -0.226 N 
BRANCH  27  28
ATOM     28  C   UNL     1       2.820   4.129   0.119  0.00  0.00    +0.182 C 
BRANCH  28  29
ATOM     29  C   UNL     1       1.571   3.329   0.385  0.00  0.00    -0.026 A 
ATOM     30  C   UNL     1       1.641   1.952   0.493  0.00  0.00    +0.005 A 
ATOM     31  C   UNL     1       0.496   1.218   0.737  0.00  0.00    +0.000 A 
ATOM     32  C   UNL     1      -0.722   1.860   0.868  0.00  0.00    +0.000 A 
ATOM     33  C   UNL     1      -0.792   3.237   0.765  0.00  0.00    +0.000 A 
ATOM     34  C   UNL     1       0.354   3.971   0.522  0.00  0.00    +0.005 A 
ENDBRANCH  28  29
ENDBRANCH  27  28
ENDBRANCH   1  23
TORSDOF 5
