REMARK  Name = ZINC04436155
REMARK  6 active torsions:
REMARK  status: ('A' for Active; 'I' for Inactive)
REMARK    1  A    between atoms: C_1  and  C_2
REMARK    2  A    between atoms: C_2  and  C_3
REMARK    3  A    between atoms: C_6  and  C_9
REMARK    4  A    between atoms: C_22  and  S_24
REMARK    5  A    between atoms: S_24  and  C_25
REMARK    6  A    between atoms: C_25  and  C_26
REMARK                            x       y       z     vdW  Elec       q    Type
REMARK                         _______ _______ _______ _____ _____    ______ ____
ROOT
ATOM      1  C   UNL     1      -5.419  -2.005   0.043  0.00  0.00    +0.175 C 
ATOM      2  C   UNL     1      -6.325  -1.016  -0.657  0.00  0.00    +0.041 C 
ATOM      3  C   UNL     1      -6.821  -1.246  -1.891  0.00  0.00    +0.020 C 
ATOM      4  C   UNL     1      -7.709  -0.231  -2.572  0.00  0.00    +0.052 C 
ATOM      5  C   UNL     1      -8.521   0.529  -1.522  0.00  0.00    +0.014 C 
ATOM      6  C   UNL     1      -7.543   1.210  -0.557  0.00  0.00    +0.080 C 
ATOM      7  C   UNL     1      -6.638   0.167   0.037  0.00  0.00    +0.163 C 
ATOM      8  O   UNL     1      -6.165   0.351   1.141  0.00  0.00    -0.292 OA
ATOM      9  N   UNL     1      -6.547  -2.405  -2.578  0.00  0.00    -0.287 N 
ATOM     10  C   UNL     1      -5.994  -3.463  -1.875  0.00  0.00    +0.219 A 
ATOM     11  N   UNL     1      -5.465  -3.291  -0.641  0.00  0.00    -0.220 N 
ATOM     12  N   UNL     1      -5.011  -4.542  -0.228  0.00  0.00    -0.141 NA
ATOM     13  C   UNL     1      -5.276  -5.383  -1.205  0.00  0.00    +0.210 A 
ATOM     14  N   UNL     1      -5.872  -4.721  -2.199  0.00  0.00    -0.187 NA
ATOM     15  H   UNL     1      -6.734  -2.479  -3.527  0.00  0.00    +0.155 HD
ENDROOT
BRANCH   1  19
ATOM     16  C   UNL     1      -1.412  -0.526   0.013  0.00  0.00    -0.048 A 
ATOM     17  C   UNL     1      -2.051  -0.766   1.215  0.00  0.00    +0.004 A 
ATOM     18  C   UNL     1      -3.348  -1.244   1.225  0.00  0.00    +0.006 A 
ATOM     19  C   UNL     1      -4.006  -1.482   0.032  0.00  0.00    -0.018 A 
ATOM     20  C   UNL     1      -3.367  -1.241  -1.170  0.00  0.00    +0.006 A 
ATOM     21  C   UNL     1      -2.072  -0.758  -1.179  0.00  0.00    +0.004 A 
BRANCH  16  23
ATOM     22  C   UNL     1      -0.019   1.526   0.010  0.00  0.00    +0.009 C 
ATOM     23  C   UNL     1       0.002  -0.004   0.002  0.00  0.00    +0.032 C 
ENDBRANCH  16  23
ENDBRANCH   1  19
BRANCH  13  24
ATOM     24  S   UNL     1      -4.906  -7.106  -1.201  0.00  0.00    -0.085 S 
BRANCH  24  25
ATOM     25  C   UNL     1      -5.512  -7.689  -2.808  0.00  0.00    +0.074 C 
ATOM     26  C   UNL     1      -5.250  -9.191  -2.938  0.00  0.00    +0.016 C 
ENDBRANCH  24  25
ENDBRANCH  13  24
TORSDOF 4
