REMARK  Name = ZINC00028676
REMARK  4 active torsions:
REMARK  status: ('A' for Active; 'I' for Inactive)
REMARK    1  A    between atoms: C_1  and  O_2
REMARK    2  A    between atoms: O_2  and  C_3
REMARK    3  A    between atoms: C_3  and  C_5
REMARK    4  A    between atoms: C_8  and  C_11
REMARK                            x       y       z     vdW  Elec       q    Type
REMARK                         _______ _______ _______ _____ _____    ______ ____
ROOT
ATOM      1  C   UNL     1      -1.413  -6.381  -0.019  0.00  0.00    +0.187 C 
ATOM      2  N   UNL     1      -0.249  -6.920  -0.745  0.00  0.00    -0.322 N 
ATOM      3  C   UNL     1      -0.237  -6.812  -2.137  0.00  0.00    +0.038 A 
ATOM      4  C   UNL     1       0.936  -6.802  -2.854  0.00  0.00    +0.023 A 
ATOM      5  C   UNL     1       0.911  -6.695  -4.243  0.00  0.00    +0.002 A 
ATOM      6  C   UNL     1      -0.265  -6.599  -4.926  0.00  0.00    +0.009 A 
ATOM      7  C   UNL     1      -1.485  -6.604  -4.228  0.00  0.00    -0.014 A 
ATOM      8  C   UNL     1      -1.468  -6.712  -2.819  0.00  0.00    +0.024 A 
ATOM      9  C   UNL     1      -2.681  -6.716  -2.100  0.00  0.00    +0.038 A 
ATOM     10  C   UNL     1      -3.871  -6.613  -2.782  0.00  0.00    +0.023 A 
ATOM     11  C   UNL     1      -3.879  -6.509  -4.171  0.00  0.00    +0.002 A 
ATOM     12  C   UNL     1      -2.721  -6.504  -4.889  0.00  0.00    +0.009 A 
ATOM     13  N   UNL     1      -2.636  -6.827  -0.709  0.00  0.00    -0.322 N 
ATOM     14  H   UNL     1       0.487  -7.337  -0.270  0.00  0.00    +0.148 HD
ATOM     15  H   UNL     1      -3.387  -7.188  -0.212  0.00  0.00    +0.148 HD
ENDROOT
BRANCH   1  19
ATOM     16  C   UNL     1      -1.247  -2.108   0.003  0.00  0.00    +0.059 A 
ATOM     17  C   UNL     1      -0.068  -2.856  -0.007  0.00  0.00    +0.015 A 
ATOM     18  C   UNL     1      -0.129  -4.234  -0.014  0.00  0.00    +0.008 A 
ATOM     19  C   UNL     1      -1.354  -4.875  -0.011  0.00  0.00    -0.010 A 
ATOM     20  C   UNL     1      -2.527  -4.141  -0.002  0.00  0.00    +0.008 A 
ATOM     21  C   UNL     1      -2.481  -2.762   0.011  0.00  0.00    +0.015 A 
BRANCH  16  22
ATOM     22  C   UNL     1      -1.190  -0.632   0.010  0.00  0.00    +0.339 C 
ATOM     23  O   UNL     1      -2.217   0.016   0.023  0.00  0.00    -0.245 OA
BRANCH  22  25
ATOM     24  C   UNL     1      -0.017   1.425   0.010  0.00  0.00    +0.280 C 
ATOM     25  O   UNL     1       0.002  -0.004   0.002  0.00  0.00    -0.464 OA
ENDBRANCH  22  25
ENDBRANCH  16  22
ENDBRANCH   1  19
TORSDOF 3
