REMARK  Name = ZINC00366870
REMARK  3 active torsions:
REMARK  status: ('A' for Active; 'I' for Inactive)
REMARK    1  A    between atoms: C_4  and  C_7
REMARK    2  A    between atoms: N_8  and  N_9
REMARK    3  A    between atoms: N_9  and  C_10
REMARK                            x       y       z     vdW  Elec       q    Type
REMARK                         _______ _______ _______ _____ _____    ______ ____
ROOT
ATOM      1  C   UNL     1       4.831   5.562  -0.016  0.00  0.00    +0.137 C 
ATOM      2  C   UNL     1       3.659   6.218  -0.007  0.00  0.00    +0.136 C 
ATOM      3  N   UNL     1       3.696   7.625  -0.015  0.00  0.00    -0.283 N 
ATOM      4  C   UNL     1       2.722   8.554   0.183  0.00  0.00    +0.075 A 
ATOM      5  C   UNL     1       1.364   8.460   0.468  0.00  0.00    +0.028 A 
ATOM      6  C   UNL     1       0.662   9.646   0.606  0.00  0.00    +0.002 A 
ATOM      7  C   UNL     1       1.273  10.881   0.468  0.00  0.00    +0.002 A 
ATOM      8  C   UNL     1       2.621  11.004   0.184  0.00  0.00    +0.030 A 
ATOM      9  C   UNL     1       3.351   9.819   0.041  0.00  0.00    +0.091 A 
ATOM     10  N   UNL     1       4.654   9.594  -0.230  0.00  0.00    -0.213 NA
ATOM     11  C   UNL     1       4.870   8.311  -0.265  0.00  0.00    +0.217 A 
ATOM     12  N   UNL     1       6.043   7.605  -0.502  0.00  0.00    -0.235 N 
ATOM     13  N   UNL     1       6.038   6.272  -0.024  0.00  0.00    -0.249 N 
ATOM     14  H   UNL     1       6.805   7.994  -0.959  0.00  0.00    +0.173 HD
ATOM     15  H   UNL     1       6.856   5.858   0.293  0.00  0.00    +0.171 HD
ENDROOT
BRANCH   1  16
ATOM     16  N   UNL     1       4.846   4.170  -0.023  0.00  0.00    -0.222 N 
ATOM     17  H   UNL     1       5.691   3.694  -0.033  0.00  0.00    +0.176 HD
BRANCH  16  19
ATOM     18  C   UNL     1       3.654   2.157  -0.022  0.00  0.00    +0.138 C 
ATOM     19  N   UNL     1       3.640   3.456  -0.015  0.00  0.00    -0.189 NA
BRANCH  18  23
ATOM     20  C   UNL     1       0.002  -0.004   0.002  0.00  0.00    +0.000 A 
ATOM     21  C   UNL     1      -0.017   1.380   0.010  0.00  0.00    +0.001 A 
ATOM     22  C   UNL     1       1.166   2.089   0.002  0.00  0.00    +0.009 A 
ATOM     23  C   UNL     1       2.386   1.407  -0.014  0.00  0.00    -0.005 A 
ATOM     24  C   UNL     1       2.397   0.009  -0.021  0.00  0.00    +0.009 A 
ATOM     25  C   UNL     1       1.206  -0.686  -0.013  0.00  0.00    +0.001 A 
ENDBRANCH  18  23
ENDBRANCH  16  19
ENDBRANCH   1  16
TORSDOF 3
