REMARK  Name = ZINC13182803
REMARK  11 active torsions:
REMARK  status: ('A' for Active; 'I' for Inactive)
REMARK    1  A    between atoms: C_1  and  O_2
REMARK    2  A    between atoms: O_2  and  C_3
REMARK    3  A    between atoms: C_6  and  C_11
REMARK    4  A    between atoms: C_8  and  O_9
REMARK    5  A    between atoms: O_9  and  C_10
REMARK    6  A    between atoms: C_11  and  C_13
REMARK    7  A    between atoms: C_11  and  N_16
REMARK    8  A    between atoms: C_13  and  C_14
REMARK    9  A    between atoms: C_17  and  C_19
REMARK   10  A    between atoms: C_23  and  S_25
REMARK   11  A    between atoms: S_25  and  N_28
REMARK                            x       y       z     vdW  Elec       q    Type
REMARK                         _______ _______ _______ _____ _____    ______ ____
ROOT
ATOM      1  N   UNL     1       2.075   4.044   1.016  0.00  0.00    -0.304 N 
ATOM      2  C   UNL     1       1.969   5.277   1.550  0.00  0.00    +0.245 C 
ATOM      3  O   UNL     1       1.035   5.993   1.244  0.00  0.00    -0.270 OA
ATOM      4  H   UNL     1       2.779   3.446   1.314  0.00  0.00    +0.150 HD
ENDROOT
BRANCH   2   5
ATOM      5  C   UNL     1       2.987   5.759   2.505  0.00  0.00    +0.039 A 
ATOM      6  C   UNL     1       4.057   4.936   2.863  0.00  0.00    +0.016 A 
ATOM      7  C   UNL     1       5.007   5.393   3.751  0.00  0.00    +0.041 A 
ATOM      8  C   UNL     1       4.895   6.662   4.298  0.00  0.00    +0.150 A 
ATOM      9  C   UNL     1       3.832   7.481   3.951  0.00  0.00    +0.141 A 
ATOM     10  C   UNL     1       2.879   7.036   3.059  0.00  0.00    +0.044 A 
ATOM     11  F   UNL     1       5.826   7.102   5.173  0.00  0.00    -0.203 F 
BRANCH   9  12
ATOM     12  S   UNL     1       3.697   9.092   4.650  0.00  0.00    +0.064 S 
ATOM     13  O   UNL     1       4.969   9.708   4.498  0.00  0.00    -0.153 OA
ATOM     14  O   UNL     1       2.507   9.664   4.127  0.00  0.00    -0.153 OA
BRANCH  12  15
ATOM     15  N   UNL     1       3.455   8.901   6.277  0.00  0.00    -0.176 NA
ATOM     16  C   UNL     1       2.096   8.799   6.825  0.00  0.00    +0.109 C 
ATOM     17  C   UNL     1       2.005   7.520   7.671  0.00  0.00    +0.017 C 
ATOM     18  C   UNL     1       3.109   7.537   8.730  0.00  0.00    +0.003 C 
ATOM     19  C   UNL     1       4.477   7.563   8.044  0.00  0.00    +0.017 C 
ATOM     20  C   UNL     1       4.596   8.837   7.202  0.00  0.00    +0.109 C 
ENDBRANCH  12  15
ENDBRANCH   9  12
ENDBRANCH   2   5
BRANCH   1  21
ATOM     21  C   UNL     1       1.128   3.606  -0.012  0.00  0.00    +0.114 C 
BRANCH  21  25
ATOM     22  C   UNL     1      -2.277   1.819   1.860  0.00  0.00    +0.162 A 
ATOM     23  C   UNL     1      -1.005   1.578   2.354  0.00  0.00    +0.050 A 
ATOM     24  C   UNL     1       0.094   2.157   1.746  0.00  0.00    +0.009 A 
ATOM     25  C   UNL     1      -0.073   2.977   0.646  0.00  0.00    -0.023 A 
ATOM     26  C   UNL     1      -1.339   3.222   0.148  0.00  0.00    +0.055 A 
ATOM     27  C   UNL     1      -2.445   2.644   0.752  0.00  0.00    +0.162 A 
BRANCH  22  29
ATOM     28  C   UNL     1      -3.110   0.413   3.588  0.00  0.00    +0.277 C 
ATOM     29  O   UNL     1      -3.358   1.249   2.456  0.00  0.00    -0.491 OA
ENDBRANCH  22  29
BRANCH  27  30
ATOM     30  O   UNL     1      -3.691   2.884   0.264  0.00  0.00    -0.491 OA
ATOM     31  C   UNL     1      -3.788   3.741  -0.875  0.00  0.00    +0.277 C 
ENDBRANCH  27  30
ENDBRANCH  21  25
BRANCH  21  32
ATOM     32  C   UNL     1       1.804   2.582  -0.925  0.00  0.00    +0.152 C 
BRANCH  32  33
ATOM     33  C   UNL     1       2.920   3.248  -1.688  0.00  0.00    +0.358 C 
ATOM     34  O   UNL     1       3.087   4.441  -1.595  0.00  0.00    -0.246 OA
ATOM     35  O   UNL     1       3.728   2.516  -2.471  0.00  0.00    -0.246 OA
ENDBRANCH  32  33
ENDBRANCH  21  32
ENDBRANCH   1  21
TORSDOF 9
