REMARK  Name = ZINC02415817
REMARK  6 active torsions:
REMARK  status: ('A' for Active; 'I' for Inactive)
REMARK    1  A    between atoms: C_1  and  C_2
REMARK    2  A    between atoms: C_2  and  C_3
REMARK    3  A    between atoms: C_3  and  N_4
REMARK    4  A    between atoms: C_5  and  C_7
REMARK    5  A    between atoms: C_8  and  C_27
REMARK    6  A    between atoms: C_13  and  C_19
REMARK                            x       y       z     vdW  Elec       q    Type
REMARK                         _______ _______ _______ _____ _____    ______ ____
ROOT
ATOM      1  C   UNL     1      -4.806   2.866   0.182  0.00  0.00    +0.118 A 
ATOM      2  C   UNL     1      -3.985   3.234  -0.907  0.00  0.00    +0.018 A 
ATOM      3  C   UNL     1      -2.843   2.451  -0.840  0.00  0.00    +0.004 A 
ATOM      4  C   UNL     1      -2.979   1.701   0.295  0.00  0.00    +0.123 A 
ATOM      5  N   UNL     1      -4.159   1.877   0.905  0.00  0.00    -0.295 N 
ATOM      6  C   UNL     1      -4.148   1.002   1.977  0.00  0.00    +0.119 A 
ATOM      7  C   UNL     1      -2.913   0.440   2.078  0.00  0.00    +0.067 A 
ATOM      8  N   UNL     1      -2.129   0.952   1.081  0.00  0.00    -0.325 N 
ATOM      9  C   UNL     1      -0.713   0.942   0.733  0.00  0.00    +0.124 C 
ATOM     10  C   UNL     1      -0.485   0.262  -0.603  0.00  0.00    +0.022 C 
ATOM     11  C   UNL     1      -1.323   0.795  -1.773  0.00  0.00    +0.006 C 
ATOM     12  C   UNL     1      -1.638   2.299  -1.750  0.00  0.00    +0.039 C 
ENDROOT
BRANCH   7  13
ATOM     13  C   UNL     1      -2.492  -0.553   3.091  0.00  0.00    +0.001 A 
ATOM     14  C   UNL     1      -3.254  -0.744   4.244  0.00  0.00    +0.011 A 
ATOM     15  C   UNL     1      -2.857  -1.671   5.186  0.00  0.00    +0.022 A 
ATOM     16  C   UNL     1      -1.703  -2.411   4.989  0.00  0.00    +0.059 A 
ATOM     17  C   UNL     1      -0.942  -2.226   3.846  0.00  0.00    +0.060 A 
ATOM     18  C   UNL     1      -1.334  -1.306   2.894  0.00  0.00    +0.031 A 
ATOM     19 CL   UNL     1       0.503  -3.159   3.607  0.00  0.00    -0.082 Cl
ATOM     20 CL   UNL     1      -1.209  -3.575   6.178  0.00  0.00    -0.082 Cl
ENDBRANCH   7  13
BRANCH   2  21
ATOM     21  C   UNL     1      -4.287   4.264  -1.929  0.00  0.00    -0.015 A 
ATOM     22  C   UNL     1      -3.504   5.416  -2.014  0.00  0.00    +0.010 A 
ATOM     23  C   UNL     1      -3.787   6.370  -2.970  0.00  0.00    +0.020 A 
ATOM     24  C   UNL     1      -4.852   6.190  -3.837  0.00  0.00    +0.041 A 
ATOM     25  C   UNL     1      -5.635   5.052  -3.753  0.00  0.00    +0.020 A 
ATOM     26  C   UNL     1      -5.358   4.089  -2.804  0.00  0.00    +0.010 A 
ATOM     27 CL   UNL     1      -5.207   7.398  -5.032  0.00  0.00    -0.084 Cl
ENDBRANCH   2  21
BRANCH   1  29
ATOM     28  N   UNL     1      -6.758   2.974   1.556  0.00  0.00    -0.310 N 
ATOM     29  C   UNL     1      -6.071   3.413   0.482  0.00  0.00    +0.262 C 
ATOM     30  O   UNL     1      -6.544   4.283  -0.229  0.00  0.00    -0.269 OA
ATOM     31  H   UNL     1      -6.382   2.281   2.122  0.00  0.00    +0.149 HD
BRANCH  28  32
ATOM     32  C   UNL     1      -8.072   3.541   1.868  0.00  0.00    +0.104 C 
BRANCH  32  34
ATOM     33  C   UNL     1     -10.003   3.466   3.451  0.00  0.00    +0.005 C 
ATOM     34  C   UNL     1      -8.631   2.873   3.126  0.00  0.00    +0.015 C 
ENDBRANCH  32  34
ENDBRANCH  28  32
ENDBRANCH   1  29
TORSDOF 5
