REMARK  Name = ZINC22324650
REMARK  12 active torsions:
REMARK  status: ('A' for Active; 'I' for Inactive)
REMARK    1  A    between atoms: C_1  and  C_2
REMARK    2  A    between atoms: C_5  and  S_8
REMARK    3  A    between atoms: S_8  and  N_11
REMARK    4  A    between atoms: N_11  and  C_12
REMARK    5  A    between atoms: N_11  and  C_29
REMARK    6  A    between atoms: C_12  and  C_13
REMARK    7  A    between atoms: N_15  and  C_16
REMARK    8  A    between atoms: C_19  and  C_27
REMARK    9  A    between atoms: C_19  and  C_28
REMARK   10  A    between atoms: C_31  and  C_37
REMARK   11  A    between atoms: C_34  and  O_35
REMARK   12  A    between atoms: O_35  and  C_36
REMARK                            x       y       z     vdW  Elec       q    Type
REMARK                         _______ _______ _______ _____ _____    ______ ____
ROOT
ATOM      1  N   UNL     1      -3.675   1.675  -0.669  0.00  0.00    -0.191 N 
ENDROOT
BRANCH   1   2
ATOM      2  C   UNL     1      -4.027   1.818  -2.016  0.00  0.00    +0.094 A 
ATOM      3  C   UNL     1      -4.847   0.879  -2.624  0.00  0.00    +0.031 A 
ATOM      4  C   UNL     1      -5.197   1.025  -3.953  0.00  0.00    -0.048 A 
ATOM      5  C   UNL     1      -4.722   2.099  -4.683  0.00  0.00    +0.007 A 
ATOM      6  C   UNL     1      -3.900   3.036  -4.085  0.00  0.00    +0.048 A 
ATOM      7  C   UNL     1      -3.549   2.900  -2.752  0.00  0.00    +0.143 A 
ATOM      8  C   UNL     1      -6.093   0.007  -4.611  0.00  0.00    +0.044 C 
BRANCH   7   9
ATOM      9  O   UNL     1      -2.740   3.821  -2.163  0.00  0.00    -0.493 OA
ATOM     10  C   UNL     1      -2.288   4.904  -2.978  0.00  0.00    +0.277 C 
ENDBRANCH   7   9
ENDBRANCH   1   2
BRANCH   1  11
ATOM     11  S   UNL     1      -4.545   2.460   0.501  0.00  0.00    +0.075 S 
ATOM     12  O   UNL     1      -5.873   2.579   0.008  0.00  0.00    -0.150 OA
ATOM     13  O   UNL     1      -4.245   1.815   1.732  0.00  0.00    -0.150 OA
BRANCH  11  18
ATOM     14  C   UNL     1      -2.344   8.063   0.906  0.00  0.00    +0.044 C 
ATOM     15  C   UNL     1      -2.894   6.664   0.805  0.00  0.00    -0.050 A 
ATOM     16  C   UNL     1      -3.978   6.404  -0.013  0.00  0.00    +0.005 A 
ATOM     17  C   UNL     1      -4.482   5.120  -0.106  0.00  0.00    +0.029 A 
ATOM     18  C   UNL     1      -3.903   4.096   0.619  0.00  0.00    +0.109 A 
ATOM     19  C   UNL     1      -2.822   4.356   1.442  0.00  0.00    +0.029 A 
ATOM     20  C   UNL     1      -2.315   5.639   1.531  0.00  0.00    +0.005 A 
ENDBRANCH  11  18
ENDBRANCH   1  11
BRANCH   1  21
ATOM     21  C   UNL     1      -2.537   0.832  -0.294  0.00  0.00    +0.227 C 
BRANCH  21  22
ATOM     22  C   UNL     1      -1.268   1.642  -0.359  0.00  0.00    +0.233 C 
ATOM     23  O   UNL     1      -1.321   2.834  -0.579  0.00  0.00    -0.274 OA
ATOM     24  N   UNL     1      -0.076   1.042  -0.174  0.00  0.00    -0.307 N 
ATOM     25  H   UNL     1      -0.023  -0.048  -0.043  0.00  0.00    +0.149 HD
BRANCH  24  26
ATOM     26  C   UNL     1       1.151   1.843  -0.149  0.00  0.00    +0.110 C 
ATOM     27  C   UNL     1       2.306   1.024  -0.729  0.00  0.00    +0.074 C 
ATOM     28  C   UNL     1       3.618   1.760  -0.425  0.00  0.00    +0.107 C 
ATOM     29  O   UNL     1       3.804   1.782   0.991  0.00  0.00    -0.486 OA
ATOM     30  C   UNL     1       2.761   2.183   1.763  0.00  0.00    +0.126 A 
ATOM     31  C   UNL     1       1.467   2.230   1.274  0.00  0.00    +0.015 A 
ATOM     32  C   UNL     1       0.434   2.640   2.099  0.00  0.00    +0.009 A 
ATOM     33  C   UNL     1       0.688   3.006   3.406  0.00  0.00    +0.001 A 
ATOM     34  C   UNL     1       1.980   2.963   3.897  0.00  0.00    +0.004 A 
ATOM     35  C   UNL     1       3.014   2.553   3.080  0.00  0.00    +0.046 A 
ATOM     36  C   UNL     1       4.786   1.027  -1.088  0.00  0.00    +0.055 C 
ATOM     37  C   UNL     1       3.540   3.193  -0.956  0.00  0.00    +0.055 C 
ENDBRANCH  24  26
ENDBRANCH  21  22
ENDBRANCH   1  21
TORSDOF 7
