REMARK  Name = ZINC22368312
REMARK  10 active torsions:
REMARK  status: ('A' for Active; 'I' for Inactive)
REMARK    1  A    between atoms: C_1  and  C_2
REMARK    2  A    between atoms: N_7  and  C_9
REMARK    3  A    between atoms: C_12  and  C_15
REMARK    4  A    between atoms: C_15  and  C_17
REMARK    5  A    between atoms: C_15  and  N_18
REMARK    6  A    between atoms: C_19  and  C_21
REMARK    7  A    between atoms: C_21  and  N_22
REMARK    8  A    between atoms: N_22  and  C_23
REMARK    9  A    between atoms: N_22  and  S_32
REMARK   10  A    between atoms: S_32  and  C_35
REMARK                            x       y       z     vdW  Elec       q    Type
REMARK                         _______ _______ _______ _____ _____    ______ ____
ROOT
ATOM      1  N   UNL     1       6.951  -3.567   1.076  0.00  0.00    -0.307 N 
ATOM      2  C   UNL     1       6.311  -2.382   1.140  0.00  0.00    +0.233 C 
ATOM      3  O   UNL     1       6.287  -1.653   0.172  0.00  0.00    -0.274 OA
ATOM      4  H   UNL     1       6.973  -4.228   1.955  0.00  0.00    +0.149 HD
ENDROOT
BRANCH   1   5
ATOM      5  C   UNL     1       7.617  -3.974  -0.164  0.00  0.00    +0.100 C 
ATOM      6  C   UNL     1       6.601  -4.638  -1.094  0.00  0.00    +0.033 C 
BRANCH   5  10
ATOM      7  C   UNL     1      10.745  -6.742   0.742  0.00  0.00    +0.030 A 
ATOM      8  C   UNL     1      10.939  -5.765  -0.226  0.00  0.00    +0.023 A 
ATOM      9  C   UNL     1       9.927  -4.872  -0.516  0.00  0.00    +0.007 A 
ATOM     10  C   UNL     1       8.720  -4.950   0.156  0.00  0.00    -0.027 A 
ATOM     11  C   UNL     1       8.526  -5.918   1.124  0.00  0.00    +0.007 A 
ATOM     12  C   UNL     1       9.532  -6.817   1.415  0.00  0.00    +0.023 A 
BRANCH   7  18
ATOM     13  C   UNL     1      12.006 -10.626   3.376  0.00  0.00    +0.009 C 
ATOM     14  C   UNL     1      12.433  -9.654   2.275  0.00  0.00    +0.003 C 
ATOM     15  C   UNL     1      13.743  -8.970   2.675  0.00  0.00    +0.006 C 
ATOM     16  C   UNL     1      14.132  -7.957   1.596  0.00  0.00    +0.019 C 
ATOM     17  C   UNL     1      12.998  -6.944   1.421  0.00  0.00    +0.105 C 
ATOM     18  N   UNL     1      11.767  -7.647   1.037  0.00  0.00    -0.330 N 
ATOM     19  C   UNL     1      11.348  -8.592   2.080  0.00  0.00    +0.108 C 
ENDBRANCH   7  18
ENDBRANCH   5  10
ENDBRANCH   1   5
BRANCH   2  20
ATOM     20  C   UNL     1       5.626  -1.964   2.416  0.00  0.00    +0.226 C 
BRANCH  20  21
ATOM     21  N   UNL     1       5.009  -0.648   2.230  0.00  0.00    -0.199 N 
BRANCH  21  22
ATOM     22  C   UNL     1       3.732  -0.547   1.668  0.00  0.00    +0.055 A 
ATOM     23  C   UNL     1       3.547   0.153   0.483  0.00  0.00    +0.028 A 
ATOM     24  C   UNL     1       2.286   0.254  -0.072  0.00  0.00    +0.051 A 
ATOM     25  C   UNL     1       1.203  -0.345   0.550  0.00  0.00    +0.166 A 
ATOM     26  C   UNL     1       1.384  -1.049   1.737  0.00  0.00    +0.168 A 
ATOM     27  C   UNL     1       2.649  -1.148   2.294  0.00  0.00    +0.074 A 
ATOM     28  O   UNL     1       0.177  -1.538   2.144  0.00  0.00    -0.453 OA
ATOM     29  C   UNL     1      -0.674  -1.475   0.984  0.00  0.00    +0.466 C 
ATOM     30  O   UNL     1      -0.120  -0.393   0.212  0.00  0.00    -0.453 OA
ENDBRANCH  21  22
BRANCH  21  31
ATOM     31  S   UNL     1       5.824   0.720   2.684  0.00  0.00    +0.043 S 
ATOM     32  O   UNL     1       7.196   0.408   2.485  0.00  0.00    -0.155 OA
ATOM     33  O   UNL     1       5.206   1.770   1.953  0.00  0.00    -0.155 OA
ATOM     34  C   UNL     1       5.477   0.902   4.455  0.00  0.00    +0.218 C 
ENDBRANCH  21  31
ENDBRANCH  20  21
ENDBRANCH   2  20
TORSDOF 7
