REMARK  Name = ZINC59485260
REMARK  5 active torsions:
REMARK  status: ('A' for Active; 'I' for Inactive)
REMARK    1  A    between atoms: C_1  and  C_2
REMARK    2  A    between atoms: C_9  and  S_12
REMARK    3  A    between atoms: S_12  and  C_13
REMARK    4  A    between atoms: C_13  and  C_14
REMARK    5  A    between atoms: N_16  and  C_17
REMARK                            x       y       z     vdW  Elec       q    Type
REMARK                         _______ _______ _______ _____ _____    ______ ____
ROOT
ATOM      1  C   UNL     1      -4.090  -4.947   1.936  0.00  0.00    +0.227 C 
ATOM      2  O   UNL     1      -4.085  -5.990   2.554  0.00  0.00    -0.275 OA
ATOM      3  N   UNL     1      -5.260  -4.385   1.573  0.00  0.00    -0.285 N 
ATOM      4  H   UNL     1      -5.268  -3.518   1.138  0.00  0.00    +0.155 HD
ENDROOT
BRANCH   3   5
ATOM      5  C   UNL     1      -6.460  -5.049   1.823  0.00  0.00    +0.034 A 
ATOM      6  C   UNL     1      -7.509  -4.948   0.916  0.00  0.00    +0.024 A 
ATOM      7  C   UNL     1      -8.702  -5.602   1.154  0.00  0.00    +0.014 A 
ATOM      8  C   UNL     1      -8.859  -6.368   2.308  0.00  0.00    +0.033 A 
ATOM      9  C   UNL     1      -7.799  -6.473   3.228  0.00  0.00    +0.035 A 
ATOM     10  C   UNL     1      -6.601  -5.816   2.977  0.00  0.00    +0.035 A 
ATOM     11  C   UNL     1      -7.960  -7.285   4.454  0.00  0.00    +0.195 C 
ATOM     12  O   UNL     1      -7.046  -7.375   5.248  0.00  0.00    -0.287 OA
ATOM     13  C   UNL     1      -9.237  -7.984   4.710  0.00  0.00    +0.033 A 
ATOM     14  C   UNL     1      -9.398  -8.750   5.862  0.00  0.00    +0.012 A 
ATOM     15  C   UNL     1     -10.597  -9.402   6.094  0.00  0.00    +0.001 A 
ATOM     16  C   UNL     1     -11.637  -9.297   5.189  0.00  0.00    +0.001 A 
ATOM     17  C   UNL     1     -11.493  -8.540   4.040  0.00  0.00    +0.012 A 
ATOM     18  C   UNL     1     -10.295  -7.879   3.790  0.00  0.00    +0.033 A 
ATOM     19  C   UNL     1     -10.133  -7.068   2.565  0.00  0.00    +0.195 C 
ATOM     20  O   UNL     1     -11.048  -6.976   1.771  0.00  0.00    -0.287 OA
ENDBRANCH   3   5
BRANCH   1  21
ATOM     21  C   UNL     1      -2.789  -4.278   1.575  0.00  0.00    +0.168 C 
BRANCH  21  22
ATOM     22  S   UNL     1      -1.405  -5.271   2.199  0.00  0.00    -0.110 S 
BRANCH  22  31
ATOM     23  C   UNL     1      -0.025   1.524   0.070  0.00  0.00    +0.044 C 
ATOM     24  C   UNL     1      -0.002   0.017   0.049  0.00  0.00    -0.049 A 
ATOM     25  C   UNL     1       0.005  -0.656  -1.159  0.00  0.00    +0.005 A 
ATOM     26  C   UNL     1       0.025  -2.037  -1.183  0.00  0.00    +0.025 A 
ATOM     27  C   UNL     1       0.039  -2.756   0.006  0.00  0.00    +0.050 A 
ATOM     28  C   UNL     1       0.033  -2.079   1.222  0.00  0.00    +0.050 A 
ATOM     29  C   UNL     1       0.018  -0.689   1.236  0.00  0.00    +0.028 A 
ATOM     30  N   UNL     1       0.049  -3.000   2.279  0.00  0.00    -0.316 N 
ATOM     31  C   UNL     1       0.067  -4.343   1.687  0.00  0.00    +0.217 C 
ATOM     32  N   UNL     1       0.060  -4.139   0.234  0.00  0.00    -0.316 N 
ATOM     33  H   UNL     1       0.049  -2.788   3.225  0.00  0.00    +0.149 HD
ATOM     34  H   UNL     1       0.068  -4.833  -0.444  0.00  0.00    +0.149 HD
ENDBRANCH  22  31
ENDBRANCH  21  22
ENDBRANCH   1  21
TORSDOF 4
