REMARK  Name = ZINC21994910
REMARK  14 active torsions:
REMARK  status: ('A' for Active; 'I' for Inactive)
REMARK    1  A    between atoms: C_1  and  C_2
REMARK    2  A    between atoms: C_2  and  C_3
REMARK    3  A    between atoms: C_3  and  N_4
REMARK    4  A    between atoms: C_8  and  S_30
REMARK    5  A    between atoms: C_12  and  C_13
REMARK    6  A    between atoms: C_13  and  O_14
REMARK    7  A    between atoms: O_14  and  C_15
REMARK    8  A    between atoms: C_15  and  C_17
REMARK    9  A    between atoms: C_22  and  N_23
REMARK   10  A    between atoms: N_23  and  C_24
REMARK   11  A    between atoms: C_24  and  C_25
REMARK   12  A    between atoms: S_30  and  N_33
REMARK   13  A    between atoms: N_33  and  C_34
REMARK   14  A    between atoms: N_33  and  C_35
REMARK                            x       y       z     vdW  Elec       q    Type
REMARK                         _______ _______ _______ _____ _____    ______ ____
ROOT
ATOM      1  N   UNL     1       1.294   1.868   0.005  0.00  0.00    -0.325 N 
ATOM      2  C   UNL     1       2.165   0.797  -0.008  0.00  0.00    +0.069 A 
ATOM      3  C   UNL     1       3.548   0.676  -0.020  0.00  0.00    +0.030 A 
ATOM      4  C   UNL     1       4.124  -0.577  -0.033  0.00  0.00    +0.030 A 
ATOM      5  C   UNL     1       3.331  -1.716  -0.033  0.00  0.00    +0.108 A 
ATOM      6  C   UNL     1       1.968  -1.616  -0.022  0.00  0.00    +0.058 A 
ATOM      7  C   UNL     1       1.363  -0.356  -0.009  0.00  0.00    +0.091 A 
ATOM      8  N   UNL     1       0.070   0.061   0.004  0.00  0.00    -0.229 NA
ATOM      9  C   UNL     1       0.031   1.362   0.013  0.00  0.00    +0.149 A 
ENDROOT
BRANCH   5  10
ATOM     10  S   UNL     1       4.088  -3.306  -0.049  0.00  0.00    +0.060 S 
ATOM     11  O   UNL     1       3.134  -4.205  -0.598  0.00  0.00    -0.153 OA
ATOM     12  O   UNL     1       5.383  -3.134  -0.610  0.00  0.00    -0.153 OA
BRANCH  10  13
ATOM     13  N   UNL     1       4.312  -3.758   1.528  0.00  0.00    -0.183 NA
ATOM     14  C   UNL     1       3.265  -4.503   2.232  0.00  0.00    +0.131 C 
ATOM     15  C   UNL     1       5.556  -3.412   2.220  0.00  0.00    +0.131 C 
ENDBRANCH  10  13
ENDBRANCH   5  10
BRANCH   1  16
ATOM     16  C   UNL     1       1.661   3.286   0.011  0.00  0.00    +0.123 C 
BRANCH  16  18
ATOM     17  C   UNL     1       2.185   5.252   1.460  0.00  0.00    +0.005 C 
ATOM     18  C   UNL     1       1.801   3.771   1.455  0.00  0.00    +0.018 C 
ENDBRANCH  16  18
ENDBRANCH   1  16
BRANCH   9  19
ATOM     19  C   UNL     1      -1.230   2.187   0.022  0.00  0.00    +0.306 C 
BRANCH  19  20
ATOM     20  O   UNL     1      -1.629   2.444   1.394  0.00  0.00    -0.453 OA
BRANCH  20  21
ATOM     21  C   UNL     1      -2.746   3.175   1.579  0.00  0.00    +0.341 C 
ATOM     22  O   UNL     1      -3.369   3.586   0.620  0.00  0.00    -0.245 OA
BRANCH  21  23
ATOM     23  C   UNL     1      -3.212   3.475   2.944  0.00  0.00    +0.080 A 
ATOM     24  C   UNL     1      -2.572   2.905   4.048  0.00  0.00    +0.017 A 
ATOM     25  C   UNL     1      -3.009   3.194   5.321  0.00  0.00    +0.001 A 
ATOM     26  C   UNL     1      -4.089   4.041   5.516  0.00  0.00    +0.002 A 
ATOM     27  C   UNL     1      -4.735   4.608   4.437  0.00  0.00    +0.024 A 
ATOM     28  C   UNL     1      -4.306   4.333   3.144  0.00  0.00    +0.042 A 
BRANCH  28  29
ATOM     29  N   UNL     1      -4.955   4.902   2.057  0.00  0.00    -0.336 N 
ATOM     30  H   UNL     1      -4.672   4.612   1.034  0.00  0.00    +0.147 HD
BRANCH  29  31
ATOM     31  C   UNL     1      -6.017   5.888   2.272  0.00  0.00    +0.176 C 
BRANCH  31  32
ATOM     32  C   UNL     1      -6.554   6.346   0.941  0.00  0.00    +0.122 A 
ATOM     33  C   UNL     1      -7.574   5.784   0.268  0.00  0.00    +0.046 A 
ATOM     34  C   UNL     1      -7.739   6.528  -0.923  0.00  0.00    +0.041 A 
ATOM     35  C   UNL     1      -6.810   7.500  -0.907  0.00  0.00    +0.195 A 
ATOM     36  O   UNL     1      -6.099   7.389   0.227  0.00  0.00    -0.466 OA
ENDBRANCH  31  32
ENDBRANCH  29  31
ENDBRANCH  28  29
ENDBRANCH  21  23
ENDBRANCH  20  21
ENDBRANCH  19  20
ENDBRANCH   9  19
TORSDOF 11
