REMARK  Name = ZINC63411652
REMARK  7 active torsions:
REMARK  status: ('A' for Active; 'I' for Inactive)
REMARK    1  A    between atoms: C_1  and  O_2
REMARK    2  A    between atoms: O_2  and  C_3
REMARK    3  A    between atoms: C_6  and  C_9
REMARK    4  A    between atoms: N_13  and  C_23
REMARK    5  A    between atoms: N_15  and  C_16
REMARK    6  A    between atoms: C_23  and  C_24
REMARK    7  A    between atoms: C_24  and  C_25
REMARK                            x       y       z     vdW  Elec       q    Type
REMARK                         _______ _______ _______ _____ _____    ______ ____
ROOT
ATOM      1  C   UNL     1       2.488  -2.488  -4.356  0.00  0.00    +0.028 C 
ATOM      2  C   UNL     1       2.626  -3.838  -4.379  0.00  0.00    +0.078 C 
ATOM      3  C   UNL     1       3.330  -4.690  -5.357  0.00  0.00    +0.259 C 
ATOM      4  O   UNL     1       3.903  -4.214  -6.319  0.00  0.00    -0.269 OA
ATOM      5  N   UNL     1       3.310  -5.995  -5.139  0.00  0.00    -0.246 N 
ATOM      6  C   UNL     1       2.656  -6.514  -4.043  0.00  0.00    +0.168 C 
ATOM      7  N   UNL     1       2.541  -7.772  -3.681  0.00  0.00    -0.225 NA
ATOM      8  S   UNL     1       2.012  -5.061  -3.230  0.00  0.00    -0.049 S 
ENDROOT
BRANCH   1  12
ATOM      9  C   UNL     1      -0.057  -0.667  -1.495  0.00  0.00    +0.120 A 
ATOM     10  C   UNL     1       0.894   0.097  -2.161  0.00  0.00    +0.046 A 
ATOM     11  C   UNL     1       1.723  -0.489  -3.091  0.00  0.00    +0.011 A 
ATOM     12  C   UNL     1       1.607  -1.857  -3.365  0.00  0.00    -0.024 A 
ATOM     13  C   UNL     1       0.647  -2.622  -2.690  0.00  0.00    +0.011 A 
ATOM     14  C   UNL     1      -0.173  -2.027  -1.758  0.00  0.00    +0.046 A 
BRANCH   9  16
ATOM     15  C   UNL     1      -0.701   1.318  -0.356  0.00  0.00    +0.277 C 
ATOM     16  O   UNL     1      -0.873  -0.083  -0.579  0.00  0.00    -0.495 OA
ENDBRANCH   9  16
ENDBRANCH   1  12
BRANCH   7  17
ATOM     17  C   UNL     1       1.845  -8.097  -2.549  0.00  0.00    +0.067 A 
ATOM     18  C   UNL     1       2.038  -7.367  -1.373  0.00  0.00    +0.028 A 
ATOM     19  C   UNL     1       1.333  -7.699  -0.235  0.00  0.00    +0.002 A 
ATOM     20  C   UNL     1       0.437  -8.754  -0.256  0.00  0.00    +0.000 A 
ATOM     21  C   UNL     1       0.241  -9.482  -1.417  0.00  0.00    +0.002 A 
ATOM     22  C   UNL     1       0.935  -9.157  -2.563  0.00  0.00    +0.028 A 
ENDBRANCH   7  17
BRANCH   5  23
ATOM     23  C   UNL     1       3.990  -6.896  -6.073  0.00  0.00    +0.120 C 
BRANCH  23  24
ATOM     24  C   UNL     1       5.438  -7.099  -5.623  0.00  0.00    +0.052 C 
BRANCH  24  25
ATOM     25  C   UNL     1       6.137  -8.027  -6.583  0.00  0.00    -0.040 C 
ATOM     26  C   UNL     1       6.901  -7.675  -7.642  0.00  0.00    -0.001 A 
ATOM     27  C   UNL     1       7.294  -6.374  -8.197  0.00  0.00    +0.010 A 
ATOM     28  C   UNL     1       8.086  -6.340  -9.293  0.00  0.00    +0.001 A 
ATOM     29  C   UNL     1       8.539  -7.513  -9.911  0.00  0.00    +0.002 A 
ATOM     30  C   UNL     1       8.220  -8.745  -9.460  0.00  0.00    +0.026 A 
ATOM     31  C   UNL     1       7.393  -8.899  -8.314  0.00  0.00    +0.043 A 
ATOM     32  N   UNL     1       6.950  -9.966  -7.694  0.00  0.00    -0.380 N 
ATOM     33  C   UNL     1       6.131  -9.539  -6.554  0.00  0.00    +0.144 C 
ATOM     34  H   UNL     1       7.136 -10.884  -7.945  0.00  0.00    +0.160 HD
ENDBRANCH  24  25
ENDBRANCH  23  24
ENDBRANCH   5  23
TORSDOF 6
