REMARK  Name = ZINC63373355
REMARK  12 active torsions:
REMARK  status: ('A' for Active; 'I' for Inactive)
REMARK    1  A    between atoms: C_1  and  C_2
REMARK    2  A    between atoms: C_2  and  C_3
REMARK    3  A    between atoms: C_3  and  C_4
REMARK    4  A    between atoms: C_4  and  C_5
REMARK    5  A    between atoms: C_5  and  N_6
REMARK    6  A    between atoms: C_12  and  C_28
REMARK    7  A    between atoms: C_24  and  C_27
REMARK    8  A    between atoms: C_32  and  O_37
REMARK    9  A    between atoms: C_33  and  O_34
REMARK   10  A    between atoms: O_34  and  C_35
REMARK   11  A    between atoms: C_35  and  C_36
REMARK   12  A    between atoms: O_37  and  C_38
REMARK                            x       y       z     vdW  Elec       q    Type
REMARK                         _______ _______ _______ _____ _____    ______ ____
ROOT
ATOM      1  N   UNL     1       1.475  -3.986  -2.532  0.00  0.00    -0.291 N 
ATOM      2  C   UNL     1       2.596  -4.661  -1.901  0.00  0.00    +0.203 C 
ATOM      3  C   UNL     1       2.492  -6.146  -2.007  0.00  0.00    +0.234 C 
ATOM      4  O   UNL     1       3.380  -6.808  -1.513  0.00  0.00    -0.274 OA
ATOM      5  N   UNL     1       1.490  -6.801  -2.605  0.00  0.00    -0.283 N 
ATOM      6  C   UNL     1       1.557  -8.274  -2.657  0.00  0.00    +0.121 C 
ATOM      7  C   UNL     1       0.318  -8.865  -1.962  0.00  0.00    +0.069 C 
ATOM      8  C   UNL     1      -0.875  -8.105  -2.486  0.00  0.00    -0.027 C 
ATOM      9  C   UNL     1      -2.018  -8.518  -3.020  0.00  0.00    -0.000 A 
ATOM     10  C   UNL     1      -2.591  -9.863  -3.191  0.00  0.00    +0.010 A 
ATOM     11  C   UNL     1      -3.798  -9.925  -3.813  0.00  0.00    +0.001 A 
ATOM     12  C   UNL     1      -4.484  -8.799  -4.276  0.00  0.00    +0.002 A 
ATOM     13  C   UNL     1      -4.037  -7.524  -4.154  0.00  0.00    +0.026 A 
ATOM     14  C   UNL     1      -2.781  -7.328  -3.508  0.00  0.00    +0.043 A 
ATOM     15  N   UNL     1      -2.136  -6.232  -3.237  0.00  0.00    -0.375 N 
ATOM     16  C   UNL     1      -0.925  -6.581  -2.494  0.00  0.00    +0.139 C 
ATOM     17  C   UNL     1       0.347  -6.111  -3.206  0.00  0.00    +0.135 C 
ATOM     18  C   UNL     1       0.462  -4.626  -3.112  0.00  0.00    +0.242 C 
ATOM     19  O   UNL     1      -0.424  -3.958  -3.602  0.00  0.00    -0.273 OA
ATOM     20  C   UNL     1       0.258  -6.497  -4.683  0.00  0.00    +0.044 C 
ATOM     21  H   UNL     1      -2.411  -5.336  -3.486  0.00  0.00    +0.160 HD
ENDROOT
BRANCH   7  22
ATOM     22  C   UNL     1       0.187 -10.329  -2.297  0.00  0.00    +0.007 A 
ATOM     23  C   UNL     1       0.049 -10.727  -3.615  0.00  0.00    +0.008 A 
ATOM     24  C   UNL     1      -0.071 -12.068  -3.925  0.00  0.00    +0.004 A 
ATOM     25  C   UNL     1      -0.054 -13.018  -2.920  0.00  0.00    +0.049 A 
ATOM     26  C   UNL     1       0.083 -12.626  -1.599  0.00  0.00    +0.162 A 
ATOM     27  C   UNL     1       0.210 -11.275  -1.286  0.00  0.00    +0.166 A 
BRANCH  26  28
ATOM     28  O   UNL     1       0.100 -13.559  -0.609  0.00  0.00    -0.491 OA
ATOM     29  C   UNL     1      -0.030 -14.926  -1.004  0.00  0.00    +0.277 C 
ENDBRANCH  26  28
BRANCH  27  30
ATOM     30  O   UNL     1       0.351 -10.886   0.009  0.00  0.00    -0.488 OA
BRANCH  30  31
ATOM     31  C   UNL     1      -0.847 -10.612   0.738  0.00  0.00    +0.226 C 
ATOM     32  C   UNL     1      -0.490 -10.192   2.165  0.00  0.00    +0.048 C 
ENDBRANCH  30  31
ENDBRANCH  27  30
ENDBRANCH   7  22
BRANCH   1  33
ATOM     33  C   UNL     1       1.455  -2.521  -2.524  0.00  0.00    +0.108 C 
BRANCH  33  34
ATOM     34  C   UNL     1       0.739  -2.027  -1.265  0.00  0.00    +0.019 C 
BRANCH  34  35
ATOM     35  C   UNL     1       0.718  -0.497  -1.257  0.00  0.00    +0.001 C 
BRANCH  35  37
ATOM     36  C   UNL     1      -0.019   1.526   0.010  0.00  0.00    +0.004 C 
ATOM     37  C   UNL     1       0.002  -0.004   0.002  0.00  0.00    -0.003 C 
ENDBRANCH  35  37
ENDBRANCH  34  35
ENDBRANCH  33  34
ENDBRANCH   1  33
TORSDOF 8
