REMARK  Name = ZINC12609681
REMARK  8 active torsions:
REMARK  status: ('A' for Active; 'I' for Inactive)
REMARK    1  A    between atoms: C_1  and  C_2
REMARK    2  A    between atoms: C_2  and  C_4
REMARK    3  A    between atoms: C_2  and  N_52
REMARK    4  A    between atoms: C_7  and  S_15
REMARK    5  A    between atoms: N_8  and  C_9
REMARK    6  A    between atoms: S_15  and  C_16
REMARK    7  A    between atoms: C_16  and  C_17
REMARK    8  A    between atoms: C_17  and  C_19
REMARK                            x       y       z     vdW  Elec       q    Type
REMARK                         _______ _______ _______ _____ _____    ______ ____
ROOT
ATOM      1  C   UNL     1      -0.581  -2.106  -0.004  0.00  0.00    +0.125 A 
ATOM      2  N   UNL     1       0.718  -2.007  -0.015  0.00  0.00    -0.135 NA
ATOM      3  N   UNL     1       1.068  -0.771  -0.012  0.00  0.00    -0.122 NA
ATOM      4  C   UNL     1       0.002  -0.004   0.002  0.00  0.00    +0.196 A 
ATOM      5  N   UNL     1      -1.086  -0.833   0.013  0.00  0.00    -0.275 N 
ENDROOT
BRANCH   5   6
ATOM      6  C   UNL     1      -2.437  -0.457   0.035  0.00  0.00    +0.050 A 
ATOM      7  C   UNL     1      -3.229  -0.770   1.132  0.00  0.00    +0.026 A 
ATOM      8  C   UNL     1      -4.558  -0.393   1.153  0.00  0.00    +0.002 A 
ATOM      9  C   UNL     1      -5.103   0.284   0.078  0.00  0.00    +0.000 A 
ATOM     10  C   UNL     1      -4.318   0.593  -1.018  0.00  0.00    +0.002 A 
ATOM     11  C   UNL     1      -2.987   0.224  -1.042  0.00  0.00    +0.026 A 
ENDBRANCH   5   6
BRANCH   1  13
ATOM     12  C   UNL     1      -1.322  -4.022   1.385  0.00  0.00    -0.005 C 
ATOM     13  C   UNL     1      -1.380  -3.384  -0.004  0.00  0.00    -0.002 C 
BRANCH  13  19
ATOM     14  C   UNL     1      -0.766  -3.695  -2.325  0.00  0.00    -0.078 C 
ATOM     15  C   UNL     1      -0.044  -4.633  -3.296  0.00  0.00    -0.019 C 
ATOM     16  C   UNL     1      -0.793  -5.967  -3.360  0.00  0.00    -0.004 C 
ATOM     17  C   UNL     1      -0.875  -6.566  -1.953  0.00  0.00    -0.019 C 
ATOM     18  C   UNL     1      -1.573  -5.572  -1.022  0.00  0.00    -0.078 C 
ATOM     19  N   UNL     1      -0.790  -4.319  -0.984  0.00  0.00    +0.386 N 
ATOM     20  H   UNL     1       0.173  -4.535  -0.700  0.00  0.00    -0.081 HD
ENDBRANCH  13  19
ENDBRANCH   1  13
BRANCH   4  21
ATOM     21  S   UNL     1      -0.022   1.758   0.012  0.00  0.00    -0.078 S 
BRANCH  21  22
ATOM     22  C   UNL     1       1.756   2.096  -0.004  0.00  0.00    +0.157 C 
BRANCH  22  23
ATOM     23  C   UNL     1       1.984   3.586   0.002  0.00  0.00    +0.180 C 
ATOM     24  O   UNL     1       1.036   4.345   0.015  0.00  0.00    -0.291 OA
BRANCH  23  25
ATOM     25  C   UNL     1       3.299   4.099  -0.007  0.00  0.00    +0.056 A 
ATOM     26  C   UNL     1       3.723   5.424  -0.004  0.00  0.00    +0.020 A 
ATOM     27  C   UNL     1       5.075   5.645  -0.016  0.00  0.00    +0.023 A 
ATOM     28  C   UNL     1       5.923   4.579  -0.030  0.00  0.00    +0.056 A 
ATOM     29  S   UNL     1       4.850   3.217  -0.019  0.00  0.00    -0.079 S 
ATOM     30 BR   UNL     1       7.814   4.583  -0.047  0.00  0.00    -0.043 Br
ENDBRANCH  23  25
ENDBRANCH  22  23
ENDBRANCH  21  22
ENDBRANCH   4  21
TORSDOF 7
