REMARK  Name = ZINC49678068
REMARK  5 active torsions:
REMARK  status: ('A' for Active; 'I' for Inactive)
REMARK    1  A    between atoms: C_1  and  C_2
REMARK    2  A    between atoms: C_4  and  C_15
REMARK    3  A    between atoms: C_5  and  C_14
REMARK    4  A    between atoms: N_6  and  C_7
REMARK    5  A    between atoms: C_25  and  C_27
REMARK                            x       y       z     vdW  Elec       q    Type
REMARK                         _______ _______ _______ _____ _____    ______ ____
ROOT
ATOM      1  C   UNL     1       0.011  -3.325  -1.415  0.00  0.00    +0.026 C 
ATOM      2  C   UNL     1      -0.084  -3.236  -2.789  0.00  0.00    +0.079 C 
ATOM      3  C   UNL     1      -0.088  -1.922  -3.490  0.00  0.00    +0.132 C 
ATOM      4  N   UNL     1       0.575  -0.879  -3.066  0.00  0.00    -0.385 N 
ATOM      5  N   UNL     1      -0.880  -1.914  -4.659  0.00  0.00    -0.153 N 
ATOM      6  C   UNL     1      -1.120  -3.125  -5.273  0.00  0.00    +0.181 C 
ATOM      7  N   UNL     1      -0.779  -4.316  -4.849  0.00  0.00    -0.152 NA
ATOM      8  C   UNL     1      -0.181  -4.442  -3.645  0.00  0.00    +0.273 C 
ATOM      9  O   UNL     1       0.264  -5.515  -3.271  0.00  0.00    -0.268 OA
ATOM     10  S   UNL     1      -2.006  -2.638  -6.730  0.00  0.00    -0.033 S 
ATOM     11  C   UNL     1      -2.087  -0.886  -6.382  0.00  0.00    +0.130 C 
ATOM     12  N   UNL     1      -1.429  -0.797  -5.252  0.00  0.00    -0.164 NA
ATOM     13  H   UNL     1       1.171  -0.961  -2.305  0.00  0.00    +0.157 HD
ATOM     14  H   UNL     1       0.472  -0.024  -3.512  0.00  0.00    +0.157 HD
ENDROOT
BRANCH   1  18
ATOM     15  C   UNL     1      -1.139   1.328   0.180  0.00  0.00    +0.064 C 
ATOM     16  C   UNL     1      -0.602  -0.076   0.082  0.00  0.00    +0.022 A 
ATOM     17  C   UNL     1      -0.775  -0.904  -0.961  0.00  0.00    +0.031 A 
ATOM     18  C   UNL     1      -0.082  -2.155  -0.620  0.00  0.00    -0.003 A 
ATOM     19  C   UNL     1       0.462  -1.955   0.639  0.00  0.00    +0.028 A 
ATOM     20  N   UNL     1       0.145  -0.707   1.038  0.00  0.00    -0.317 N 
ATOM     21  C   UNL     1       1.271  -2.956   1.422  0.00  0.00    +0.064 C 
BRANCH  20  22
ATOM     22  C   UNL     1       0.525  -0.138   2.261  0.00  0.00    +0.047 A 
ATOM     23  C   UNL     1       1.866   0.102   2.530  0.00  0.00    +0.029 A 
ATOM     24  C   UNL     1       2.238   0.664   3.736  0.00  0.00    +0.040 A 
ATOM     25  C   UNL     1       1.275   0.987   4.677  0.00  0.00    +0.124 A 
ATOM     26  C   UNL     1      -0.063   0.748   4.411  0.00  0.00    +0.040 A 
ATOM     27  C   UNL     1      -0.440   0.192   3.204  0.00  0.00    +0.029 A 
ATOM     28  F   UNL     1       1.641   1.535   5.856  0.00  0.00    -0.205 F 
ENDBRANCH  20  22
ENDBRANCH   1  18
BRANCH  11  29
ATOM     29  C   UNL     1      -2.733   0.188  -7.168  0.00  0.00    +0.009 A 
ATOM     30  C   UNL     1      -2.679   1.510  -6.724  0.00  0.00    +0.013 A 
ATOM     31  C   UNL     1      -3.282   2.508  -7.460  0.00  0.00    +0.039 A 
ATOM     32  C   UNL     1      -3.942   2.199  -8.639  0.00  0.00    +0.123 A 
ATOM     33  C   UNL     1      -3.999   0.888  -9.084  0.00  0.00    +0.039 A 
ATOM     34  C   UNL     1      -3.393  -0.116  -8.358  0.00  0.00    +0.013 A 
ATOM     35  F   UNL     1      -4.533   3.180  -9.356  0.00  0.00    -0.205 F 
ENDBRANCH  11  29
TORSDOF 3
