REMARK  Name = ZINC02357198
REMARK  6 active torsions:
REMARK  status: ('A' for Active; 'I' for Inactive)
REMARK    1  A    between atoms: C_1  and  O_2
REMARK    2  A    between atoms: O_2  and  C_3
REMARK    3  A    between atoms: C_3  and  C_5
REMARK    4  A    between atoms: C_8  and  C_11
REMARK    5  A    between atoms: C_24  and  C_26
REMARK    6  A    between atoms: C_33  and  C_38
REMARK                            x       y       z     vdW  Elec       q    Type
REMARK                         _______ _______ _______ _____ _____    ______ ____
ROOT
ATOM      1  C   UNL     1      -1.388  -6.496  -0.067  0.00  0.00    +0.127 C 
ATOM      2  C   UNL     1      -1.843  -7.170  -1.441  0.00  0.00    +0.125 C 
ATOM      3  C   UNL     1      -2.177  -8.623  -1.168  0.00  0.00    +0.033 C 
ATOM      4  N   UNL     1      -3.415  -8.843  -0.822  0.00  0.00    -0.254 NA
ATOM      5  C   UNL     1      -4.253  -7.763  -0.570  0.00  0.00    +0.085 A 
ATOM      6  C   UNL     1      -5.467  -7.589  -1.212  0.00  0.00    +0.029 A 
ATOM      7  C   UNL     1      -6.261  -6.518  -0.829  0.00  0.00    +0.002 A 
ATOM      8  C   UNL     1      -5.831  -5.666   0.174  0.00  0.00    +0.002 A 
ATOM      9  C   UNL     1      -4.604  -5.838   0.786  0.00  0.00    +0.026 A 
ATOM     10  C   UNL     1      -3.785  -6.894   0.377  0.00  0.00    +0.063 A 
ATOM     11  N   UNL     1      -2.477  -6.987   0.838  0.00  0.00    -0.257 N 
ATOM     12  C   UNL     1      -2.192  -7.487   2.056  0.00  0.00    +0.251 C 
ATOM     13  O   UNL     1      -1.052  -7.451   2.477  0.00  0.00    -0.270 OA
ATOM     14  C   UNL     1      -1.179  -9.725  -1.275  0.00  0.00    +0.063 C 
ATOM     15  C   UNL     1      -0.243  -9.505  -2.462  0.00  0.00    +0.068 C 
ATOM     16  C   UNL     1       0.414  -8.127  -2.334  0.00  0.00    +0.086 C 
ATOM     17  C   UNL     1      -0.669  -7.061  -2.374  0.00  0.00    +0.145 C 
ATOM     18  O   UNL     1      -0.597  -6.136  -3.147  0.00  0.00    -0.297 OA
ENDROOT
BRANCH   1  22
ATOM     19  C   UNL     1      -1.408  -2.229  -0.347  0.00  0.00    +0.059 A 
ATOM     20  C   UNL     1      -2.547  -2.959  -0.689  0.00  0.00    +0.015 A 
ATOM     21  C   UNL     1      -2.534  -4.335  -0.596  0.00  0.00    +0.006 A 
ATOM     22  C   UNL     1      -1.395  -4.992  -0.166  0.00  0.00    -0.026 A 
ATOM     23  C   UNL     1      -0.262  -4.274   0.175  0.00  0.00    +0.006 A 
ATOM     24  C   UNL     1      -0.260  -2.898   0.081  0.00  0.00    +0.015 A 
BRANCH  19  25
ATOM     25  C   UNL     1      -1.415  -0.755  -0.445  0.00  0.00    +0.339 C 
ATOM     26  O   UNL     1      -0.420  -0.122  -0.151  0.00  0.00    -0.245 OA
BRANCH  25  28
ATOM     27  C   UNL     1      -2.459   1.314  -0.928  0.00  0.00    +0.280 C 
ATOM     28  O   UNL     1      -2.524  -0.112  -0.858  0.00  0.00    -0.464 OA
ENDBRANCH  25  28
ENDBRANCH  19  25
ENDBRANCH   1  22
BRANCH  12  29
ATOM     29  C   UNL     1      -3.266  -8.079   2.882  0.00  0.00    +0.037 A 
ATOM     30  C   UNL     1      -4.362  -8.690   2.272  0.00  0.00    +0.013 A 
ATOM     31  C   UNL     1      -5.361  -9.241   3.049  0.00  0.00    +0.001 A 
ATOM     32  C   UNL     1      -5.277  -9.187   4.429  0.00  0.00    +0.000 A 
ATOM     33  C   UNL     1      -4.193  -8.582   5.040  0.00  0.00    +0.001 A 
ATOM     34  C   UNL     1      -3.185  -8.033   4.275  0.00  0.00    +0.013 A 
ENDBRANCH  12  29
BRANCH  15  35
ATOM     35  C   UNL     1       0.821 -10.573  -2.470  0.00  0.00    +0.109 A 
ATOM     36  C   UNL     1       1.044 -11.453  -3.463  0.00  0.00    +0.045 A 
ATOM     37  C   UNL     1       2.127 -12.265  -3.054  0.00  0.00    +0.041 A 
ATOM     38  C   UNL     1       2.500 -11.833  -1.836  0.00  0.00    +0.195 A 
ATOM     39  O   UNL     1       1.709 -10.804  -1.490  0.00  0.00    -0.468 OA
ENDBRANCH  15  35
TORSDOF 5
