REMARK  Name = ZINC63804686
REMARK  8 active torsions:
REMARK  status: ('A' for Active; 'I' for Inactive)
REMARK    1  A    between atoms: C_1  and  C_2
REMARK    2  A    between atoms: C_5  and  N_26
REMARK    3  A    between atoms: C_7  and  S_8
REMARK    4  A    between atoms: S_8  and  N_11
REMARK    5  A    between atoms: N_11  and  C_12
REMARK    6  A    between atoms: C_12  and  C_13
REMARK    7  A    between atoms: C_13  and  C_14
REMARK    8  A    between atoms: C_22  and  C_24
REMARK                            x       y       z     vdW  Elec       q    Type
REMARK                         _______ _______ _______ _____ _____    ______ ____
ROOT
ATOM      1  N   UNL     1       1.528   1.237   2.966  0.00  0.00    -0.190 NA
ATOM      2  H   UNL     1       2.235   0.900   3.538  0.00  0.00    +0.148 HD
ENDROOT
BRANCH   1   3
ATOM      3  S   UNL     1       0.159   0.337   2.724  0.00  0.00    +0.059 S 
ATOM      4  O   UNL     1       0.290  -0.827   3.529  0.00  0.00    -0.153 OA
ATOM      5  O   UNL     1      -0.042   0.273   1.318  0.00  0.00    -0.153 OA
BRANCH   3  12
ATOM      6  C   UNL     1      -0.135   1.066   5.644  0.00  0.00    +0.046 C 
ATOM      7  C   UNL     1      -1.239   1.541   4.735  0.00  0.00    -0.024 A 
ATOM      8  C   UNL     1      -2.296   2.267   5.252  0.00  0.00    +0.007 A 
ATOM      9  C   UNL     1      -3.309   2.703   4.418  0.00  0.00    +0.033 A 
ATOM     10  C   UNL     1      -3.264   2.413   3.067  0.00  0.00    +0.128 A 
ATOM     11  C   UNL     1      -2.207   1.688   2.550  0.00  0.00    +0.061 A 
ATOM     12  C   UNL     1      -1.192   1.256   3.384  0.00  0.00    +0.110 A 
BRANCH  10  13
ATOM     13  N   UNL     1      -4.349   2.879   2.174  0.00  0.00    +0.056 N 
ATOM     14  O   UNL     1      -5.274   3.512   2.627  0.00  0.00    -0.126 OA
ATOM     15  O   UNL     1      -4.310   2.625   0.993  0.00  0.00    -0.126 OA
ENDBRANCH  10  13
ENDBRANCH   3  12
ENDBRANCH   1   3
BRANCH   1  16
ATOM     16  C   UNL     1       1.671   2.542   2.316  0.00  0.00    +0.110 C 
BRANCH  16  17
ATOM     17  C   UNL     1       2.784   3.335   3.003  0.00  0.00    +0.050 C 
BRANCH  17  18
ATOM     18  C   UNL     1       2.930   4.678   2.336  0.00  0.00    -0.037 C 
ATOM     19  C   UNL     1       2.211   5.150   1.292  0.00  0.00    +0.002 A 
ATOM     20  C   UNL     1       1.119   4.575   0.497  0.00  0.00    +0.048 A 
ATOM     21  C   UNL     1       0.586   5.306  -0.511  0.00  0.00    +0.124 A 
ATOM     22  C   UNL     1       1.051   6.596  -0.812  0.00  0.00    +0.040 A 
ATOM     23  C   UNL     1       2.050   7.189  -0.126  0.00  0.00    +0.029 A 
ATOM     24  C   UNL     1       2.683   6.512   0.953  0.00  0.00    +0.043 A 
ATOM     25  N   UNL     1       3.655   6.868   1.756  0.00  0.00    -0.378 N 
ATOM     26  C   UNL     1       3.907   5.774   2.701  0.00  0.00    +0.103 C 
ATOM     27  C   UNL     1       3.660   6.244   4.136  0.00  0.00    +0.035 C 
ATOM     28  F   UNL     1      -0.419   4.780  -1.245  0.00  0.00    -0.205 F 
ATOM     29  H   UNL     1       4.128   7.715   1.733  0.00  0.00    +0.160 HD
ENDBRANCH  17  18
ENDBRANCH  16  17
ENDBRANCH   1  16
TORSDOF 6
