REMARK  Name = ZINC27027902
REMARK  4 active torsions:
REMARK  status: ('A' for Active; 'I' for Inactive)
REMARK    1  A    between atoms: C_6  and  C_7
REMARK    2  A    between atoms: C_10  and  C_26
REMARK    3  A    between atoms: C_11  and  C_19
REMARK    4  A    between atoms: N_28  and  C_29
REMARK                            x       y       z     vdW  Elec       q    Type
REMARK                         _______ _______ _______ _____ _____    ______ ____
ROOT
ATOM      1  C   UNL     1      -1.132   1.847   0.017  0.00  0.00    +0.067 A 
ATOM      2  C   UNL     1      -0.044   1.128  -0.369  0.00  0.00    +0.119 A 
ATOM      3  N   UNL     1       1.089   1.911  -0.242  0.00  0.00    -0.295 N 
ATOM      4  C   UNL     1       2.462   2.050  -0.361  0.00  0.00    +0.118 A 
ATOM      5  C   UNL     1       2.840   3.277   0.230  0.00  0.00    +0.018 A 
ATOM      6  C   UNL     1       1.685   3.898   0.657  0.00  0.00    +0.004 A 
ATOM      7  C   UNL     1       0.651   3.066   0.272  0.00  0.00    +0.123 A 
ATOM      8  N   UNL     1      -0.709   3.112   0.357  0.00  0.00    -0.325 N 
ATOM      9  C   UNL     1      -1.432   4.374   0.604  0.00  0.00    +0.124 C 
ATOM     10  C   UNL     1      -0.688   5.448  -0.202  0.00  0.00    +0.022 C 
ATOM     11  C   UNL     1       0.534   6.086   0.473  0.00  0.00    +0.006 C 
ATOM     12  C   UNL     1       1.331   5.167   1.385  0.00  0.00    +0.039 C 
ENDROOT
BRANCH   1  18
ATOM     13  C   UNL     1      -3.497   2.070   0.770  0.00  0.00    +0.011 A 
ATOM     14  C   UNL     1      -4.797   1.609   0.808  0.00  0.00    +0.020 A 
ATOM     15  C   UNL     1      -5.137   0.434   0.159  0.00  0.00    +0.041 A 
ATOM     16  C   UNL     1      -4.178  -0.281  -0.537  0.00  0.00    +0.020 A 
ATOM     17  C   UNL     1      -2.876   0.172  -0.586  0.00  0.00    +0.011 A 
ATOM     18  C   UNL     1      -2.527   1.355   0.066  0.00  0.00    +0.000 A 
ATOM     19 CL   UNL     1      -6.773  -0.143   0.217  0.00  0.00    -0.084 Cl
ENDBRANCH   1  18
BRANCH   5  20
ATOM     20  C   UNL     1       4.220   3.800   0.366  0.00  0.00    -0.015 A 
ATOM     21  C   UNL     1       4.601   4.956  -0.313  0.00  0.00    +0.010 A 
ATOM     22  C   UNL     1       5.885   5.440  -0.179  0.00  0.00    +0.020 A 
ATOM     23  C   UNL     1       6.799   4.774   0.620  0.00  0.00    +0.041 A 
ATOM     24  C   UNL     1       6.428   3.623   1.293  0.00  0.00    +0.020 A 
ATOM     25  C   UNL     1       5.144   3.133   1.170  0.00  0.00    +0.010 A 
ATOM     26 CL   UNL     1       8.416   5.385   0.778  0.00  0.00    -0.084 Cl
ENDBRANCH   5  20
BRANCH   4  27
ATOM     27  C   UNL     1       3.336   1.124  -0.969  0.00  0.00    +0.262 C 
ATOM     28  O   UNL     1       4.532   1.354  -1.015  0.00  0.00    -0.269 OA
ATOM     29  N   UNL     1       2.848  -0.015  -1.500  0.00  0.00    -0.307 N 
ATOM     30  H   UNL     1       1.769  -0.223  -1.458  0.00  0.00    +0.149 HD
BRANCH  29  31
ATOM     31  C   UNL     1       3.756  -0.977  -2.131  0.00  0.00    +0.073 C 
ATOM     32  C   UNL     1       3.993  -0.573  -3.588  0.00  0.00    +0.022 C 
ATOM     33  C   UNL     1       4.940  -1.577  -4.247  0.00  0.00    +0.002 C 
ATOM     34  C   UNL     1       4.317  -2.974  -4.200  0.00  0.00    +0.000 C 
ATOM     35  C   UNL     1       4.080  -3.377  -2.743  0.00  0.00    +0.002 C 
ATOM     36  C   UNL     1       3.132  -2.373  -2.084  0.00  0.00    +0.022 C 
ENDBRANCH  29  31
ENDBRANCH   4  27
TORSDOF 4
