REMARK  Name = ZINC35926643
REMARK  12 active torsions:
REMARK  status: ('A' for Active; 'I' for Inactive)
REMARK    1  A    between atoms: C_1  and  C_2
REMARK    2  A    between atoms: C_2  and  C_3
REMARK    3  A    between atoms: C_3  and  C_4
REMARK    4  A    between atoms: C_4  and  C_5
REMARK    5  A    between atoms: C_5  and  C_7
REMARK    6  A    between atoms: C_5  and  C_9
REMARK    7  A    between atoms: C_7  and  C_8
REMARK    8  A    between atoms: C_23  and  C_25
REMARK    9  A    between atoms: C_25  and  N_26
REMARK   10  A    between atoms: N_29  and  C_32
REMARK   11  A    between atoms: C_35  and  C_39
REMARK   12  A    between atoms: C_36  and  C_38
REMARK                            x       y       z     vdW  Elec       q    Type
REMARK                         _______ _______ _______ _____ _____    ______ ____
ROOT
ATOM      1  C   UNL     1       3.312  -4.123  -1.342  0.00  0.00    +0.219 C 
ATOM      2  O   UNL     1       3.359  -2.931  -1.125  0.00  0.00    -0.275 OA
ATOM      3  N   UNL     1       3.917  -4.634  -2.433  0.00  0.00    -0.298 N 
ATOM      4  C   UNL     1       3.957  -6.086  -2.655  0.00  0.00    +0.127 C 
ATOM      5  C   UNL     1       3.360  -6.388  -4.035  0.00  0.00    +0.127 C 
ATOM      6  N   UNL     1       3.991  -5.502  -5.023  0.00  0.00    -0.298 N 
ATOM      7  C   UNL     1       3.951  -4.050  -4.801  0.00  0.00    +0.127 C 
ATOM      8  C   UNL     1       4.543  -3.748  -3.424  0.00  0.00    +0.127 C 
ATOM      9  C   UNL     1       4.606  -6.021  -6.131  0.00  0.00    +0.198 A 
ATOM     10  N   UNL     1       4.543  -7.360  -6.365  0.00  0.00    -0.295 N 
ATOM     11  H   UNL     1       4.066  -7.939  -5.751  0.00  0.00    +0.172 HD
ATOM     12  C   UNL     1       5.147  -7.879  -7.456  0.00  0.00    +0.253 A 
ATOM     13  O   UNL     1       5.100  -9.077  -7.681  0.00  0.00    -0.268 OA
ATOM     14  C   UNL     1       5.830  -7.012  -8.327  0.00  0.00    +0.091 A 
ATOM     15  C   UNL     1       5.859  -5.678  -8.041  0.00  0.00    +0.034 A 
ATOM     16  N   UNL     1       5.244  -5.214  -6.955  0.00  0.00    -0.223 NA
ENDROOT
BRANCH   1  17
ATOM     17  C   UNL     1       2.576  -5.034  -0.393  0.00  0.00    +0.075 C 
BRANCH  17  18
ATOM     18  C   UNL     1       1.411  -4.273   0.243  0.00  0.00    +0.009 C 
ATOM     19  C   UNL     1       0.387  -3.913  -0.835  0.00  0.00    +0.004 C 
ENDBRANCH  17  18
BRANCH  17  20
ATOM     20  C   UNL     1       3.533  -5.509   0.702  0.00  0.00    +0.013 C 
BRANCH  20  21
ATOM     21  C   UNL     1       2.822  -6.530   1.593  0.00  0.00    +0.000 C 
BRANCH  21  23
ATOM     22  C   UNL     1       3.068  -8.026   3.579  0.00  0.00    +0.004 C 
ATOM     23  C   UNL     1       3.779  -7.006   2.688  0.00  0.00    -0.003 C 
ENDBRANCH  21  23
ENDBRANCH  20  21
ENDBRANCH  17  20
ENDBRANCH   1  17
BRANCH  15  24
ATOM     24  C   UNL     1       6.584  -4.728  -8.959  0.00  0.00    -0.022 C 
BRANCH  24  25
ATOM     25  N   UNL     1       5.618  -3.806  -9.571  0.00  0.00    +0.385 N 
ATOM     26  C   UNL     1       4.697  -4.564 -10.429  0.00  0.00    -0.059 C 
ATOM     27  C   UNL     1       3.620  -3.622 -10.978  0.00  0.00    +0.086 C 
ATOM     28  N   UNL     1       4.285  -2.494 -11.648  0.00  0.00    -0.333 N 
ATOM     29  C   UNL     1       5.341  -1.778 -10.917  0.00  0.00    +0.086 C 
ATOM     30  C   UNL     1       6.337  -2.806 -10.371  0.00  0.00    -0.059 C 
ATOM     31  H   UNL     1       5.092  -3.341  -8.847  0.00  0.00    -0.081 HD
BRANCH  28  32
ATOM     32  C   UNL     1       3.923  -2.113 -12.942  0.00  0.00    +0.030 A 
ATOM     33  C   UNL     1       2.850  -2.729 -13.575  0.00  0.00    +0.023 A 
ATOM     34  C   UNL     1       2.495  -2.350 -14.854  0.00  0.00    +0.005 A 
ATOM     35  C   UNL     1       3.205  -1.359 -15.506  0.00  0.00    -0.047 A 
ATOM     36  C   UNL     1       4.273  -0.744 -14.880  0.00  0.00    -0.046 A 
ATOM     37  C   UNL     1       4.631  -1.114 -13.598  0.00  0.00    +0.026 A 
ATOM     38  C   UNL     1       5.045   0.336 -15.594  0.00  0.00    +0.044 C 
ATOM     39  C   UNL     1       2.814  -0.948 -16.902  0.00  0.00    +0.044 C 
ENDBRANCH  28  32
ENDBRANCH  24  25
ENDBRANCH  15  24
TORSDOF 8
