REMARK  Name = ZINC39674395
REMARK  10 active torsions:
REMARK  status: ('A' for Active; 'I' for Inactive)
REMARK    1  A    between atoms: C_1  and  C_2
REMARK    2  A    between atoms: C_2  and  S_3
REMARK    3  A    between atoms: S_3  and  C_4
REMARK    4  A    between atoms: C_5  and  C_10
REMARK    5  A    between atoms: C_14  and  C_23
REMARK    6  A    between atoms: N_25  and  C_26
REMARK    7  A    between atoms: C_26  and  C_28
REMARK    8  A    between atoms: C_26  and  C_29
REMARK    9  A    between atoms: C_30  and  C_36
REMARK   10  A    between atoms: C_33  and  C_35
REMARK                            x       y       z     vdW  Elec       q    Type
REMARK                         _______ _______ _______ _____ _____    ______ ____
ROOT
ATOM      1  C   UNL     1       1.254  -3.938   2.278  0.00  0.00    +0.249 C 
ATOM      2  O   UNL     1       1.183  -2.724   2.266  0.00  0.00    -0.270 OA
ATOM      3  N   UNL     1       1.712  -4.576   3.373  0.00  0.00    -0.296 N 
ATOM      4  C   UNL     1       1.972  -6.025   3.538  0.00  0.00    +0.121 C 
ATOM      5  C   UNL     1       3.271  -6.097   4.371  0.00  0.00    +0.100 C 
ATOM      6  C   UNL     1       3.330  -4.757   5.123  0.00  0.00    -0.004 C 
ATOM      7  C   UNL     1       2.078  -3.985   4.683  0.00  0.00    +0.115 C 
ATOM      8  C   UNL     1       4.585  -3.984   4.728  0.00  0.00    -0.010 C 
ATOM      9  C   UNL     1       4.650  -2.681   5.530  0.00  0.00    -0.082 C 
ATOM     10  N   UNL     1       4.672  -2.989   6.965  0.00  0.00    +0.379 N 
ATOM     11  C   UNL     1       3.420  -3.651   7.355  0.00  0.00    -0.082 C 
ATOM     12  C   UNL     1       3.303  -4.994   6.630  0.00  0.00    -0.010 C 
ATOM     13  H   UNL     1       5.449  -3.600   7.165  0.00  0.00    -0.086 HD
ATOM     14  H   UNL     1       4.776  -2.134   7.490  0.00  0.00    -0.086 HD
ENDROOT
BRANCH   1  16
ATOM     15  C   UNL     1       1.070  -4.218  -0.202  0.00  0.00    +0.109 A 
ATOM     16  C   UNL     1       0.838  -4.711   1.095  0.00  0.00    +0.069 A 
ATOM     17  C   UNL     1       0.205  -5.951   1.240  0.00  0.00    +0.017 A 
ATOM     18  C   UNL     1      -0.166  -6.638   0.097  0.00  0.00    +0.020 A 
ATOM     19  C   UNL     1       0.097  -6.088  -1.145  0.00  0.00    +0.112 A 
ATOM     20  N   UNL     1       0.690  -4.916  -1.262  0.00  0.00    -0.248 NA
BRANCH  15  21
ATOM     21  S   UNL     1       1.865  -2.660  -0.417  0.00  0.00    -0.105 S 
BRANCH  21  23
ATOM     22  C   UNL     1       2.612  -1.117  -2.549  0.00  0.00    +0.015 C 
ATOM     23  C   UNL     1       1.935  -2.449  -2.217  0.00  0.00    +0.072 C 
ENDBRANCH  21  23
ENDBRANCH  15  21
ENDBRANCH   1  16
BRANCH   5  24
ATOM     24  C   UNL     1       4.467  -6.247   3.467  0.00  0.00    +0.219 C 
ATOM     25  O   UNL     1       4.456  -5.752   2.360  0.00  0.00    -0.275 OA
ATOM     26  N   UNL     1       5.549  -6.931   3.888  0.00  0.00    -0.309 N 
ATOM     27  H   UNL     1       5.558  -7.328   4.773  0.00  0.00    +0.149 HD
BRANCH  26  28
ATOM     28  C   UNL     1       6.712  -7.077   3.009  0.00  0.00    +0.100 C 
ATOM     29  C   UNL     1       7.572  -5.814   3.087  0.00  0.00    +0.033 C 
BRANCH  28  30
ATOM     30  C   UNL     1       7.526  -8.268   3.445  0.00  0.00    -0.001 C 
ATOM     31  C   UNL     1       7.871  -9.337   2.725  0.00  0.00    +0.063 C 
ATOM     32  N   UNL     1       8.606 -10.197   3.464  0.00  0.00    -0.159 NA
ATOM     33  N   UNL     1       8.806  -9.832   4.625  0.00  0.00    -0.180 NA
ATOM     34  C   UNL     1       8.150  -8.526   4.805  0.00  0.00    +0.154 C 
ATOM     35  C   UNL     1       7.072  -8.610   5.888  0.00  0.00    +0.039 C 
ATOM     36  C   UNL     1       7.492  -9.556   1.283  0.00  0.00    +0.067 C 
ENDBRANCH  28  30
ENDBRANCH  26  28
ENDBRANCH   5  24
TORSDOF 6
