REMARK  Name = ZINC03289918
REMARK  10 active torsions:
REMARK  status: ('A' for Active; 'I' for Inactive)
REMARK    1  A    between atoms: C_1  and  C_2
REMARK    2  A    between atoms: C_4  and  C_36
REMARK    3  A    between atoms: C_6  and  N_8
REMARK    4  A    between atoms: C_9  and  C_11
REMARK    5  A    between atoms: C_11  and  O_12
REMARK    6  A    between atoms: O_12  and  C_13
REMARK    7  A    between atoms: C_19  and  O_29
REMARK    8  A    between atoms: C_20  and  C_25
REMARK    9  A    between atoms: C_23  and  C_24
REMARK   10  A    between atoms: O_29  and  C_30
REMARK                            x       y       z     vdW  Elec       q    Type
REMARK                         _______ _______ _______ _____ _____    ______ ____
ROOT
ATOM      1  C   UNL     1       2.303  -2.825  -0.415  0.00  0.00    +0.128 A 
ATOM      2  C   UNL     1       3.503  -2.135  -0.258  0.00  0.00    +0.047 A 
ATOM      3  C   UNL     1       3.522  -0.770  -0.269  0.00  0.00    +0.019 A 
ATOM      4  C   UNL     1       2.331  -0.062  -0.439  0.00  0.00    +0.068 A 
ATOM      5  C   UNL     1       2.309   1.410  -0.457  0.00  0.00    +0.235 A 
ATOM      6  O   UNL     1       3.330   2.063  -0.324  0.00  0.00    -0.283 OA
ATOM      7  C   UNL     1       1.044   2.040  -0.638  0.00  0.00    +0.222 A 
ATOM      8  C   UNL     1      -0.061   1.283  -0.781  0.00  0.00    +0.254 A 
ATOM      9  O   UNL     1      -0.030  -0.056  -0.763  0.00  0.00    -0.447 OA
ATOM     10  C   UNL     1       1.115  -0.750  -0.599  0.00  0.00    +0.146 A 
ATOM     11  C   UNL     1       1.113  -2.138  -0.585  0.00  0.00    +0.034 A 
ATOM     12  C   UNL     1      -0.180  -2.894  -0.753  0.00  0.00    +0.051 C 
ENDROOT
BRANCH   8  13
ATOM     13  C   UNL     1      -1.387   1.971  -0.977  0.00  0.00    +0.454 C 
ATOM     14  F   UNL     1      -1.612   2.171  -2.343  0.00  0.00    -0.163 F 
ATOM     15  F   UNL     1      -2.409   1.175  -0.447  0.00  0.00    -0.163 F 
ATOM     16  F   UNL     1      -1.373   3.207  -0.321  0.00  0.00    -0.163 F 
ENDBRANCH   8  13
BRANCH   1  17
ATOM     17  O   UNL     1       2.300  -4.182  -0.401  0.00  0.00    -0.482 OA
BRANCH  17  18
ATOM     18  C   UNL     1       3.560  -4.832  -0.222  0.00  0.00    +0.324 C 
BRANCH  18  20
ATOM     19  N   UNL     1       4.418  -7.147  -0.080  0.00  0.00    -0.283 N 
ATOM     20  C   UNL     1       3.361  -6.326  -0.233  0.00  0.00    +0.255 C 
ATOM     21  O   UNL     1       2.249  -6.788  -0.381  0.00  0.00    -0.272 OA
ATOM     22  H   UNL     1       5.315  -6.781  -0.039  0.00  0.00    +0.155 HD
BRANCH  19  28
ATOM     23  C   UNL     1       5.996 -11.721  -0.954  0.00  0.00    +0.044 C 
ATOM     24  C   UNL     1       4.970 -10.769  -0.395  0.00  0.00    -0.048 A 
ATOM     25  C   UNL     1       3.832 -11.261   0.217  0.00  0.00    +0.006 A 
ATOM     26  C   UNL     1       2.888 -10.391   0.731  0.00  0.00    -0.048 A 
ATOM     27  C   UNL     1       3.080  -9.027   0.634  0.00  0.00    +0.026 A 
ATOM     28  C   UNL     1       4.221  -8.529   0.020  0.00  0.00    +0.034 A 
ATOM     29  C   UNL     1       5.165  -9.406  -0.500  0.00  0.00    +0.026 A 
ATOM     30  C   UNL     1       1.650 -10.932   1.398  0.00  0.00    +0.044 C 
ENDBRANCH  19  28
ENDBRANCH  18  20
ENDBRANCH  17  18
ENDBRANCH   1  17
BRANCH   7  31
ATOM     31  O   UNL     1       0.953   3.398  -0.665  0.00  0.00    -0.448 OA
BRANCH  31  32
ATOM     32  C   UNL     1       0.747   4.047   0.511  0.00  0.00    +0.129 A 
ATOM     33  C   UNL     1       0.631   3.327   1.691  0.00  0.00    +0.046 A 
ATOM     34  C   UNL     1       0.427   3.990   2.886  0.00  0.00    +0.004 A 
ATOM     35  C   UNL     1       0.328   5.369   2.905  0.00  0.00    +0.000 A 
ATOM     36  C   UNL     1       0.439   6.089   1.729  0.00  0.00    +0.004 A 
ATOM     37  C   UNL     1       0.648   5.431   0.532  0.00  0.00    +0.046 A 
ENDBRANCH  31  32
ENDBRANCH   7  31
TORSDOF 7
