REMARK  Name = ZINC04647525
REMARK  6 active torsions:
REMARK  status: ('A' for Active; 'I' for Inactive)
REMARK    1  A    between atoms: C_3  and  C_6
REMARK    2  A    between atoms: C_6  and  N_7
REMARK    3  A    between atoms: C_8  and  C_10
REMARK    4  A    between atoms: C_17  and  S_22
REMARK    5  A    between atoms: S_22  and  N_25
REMARK    6  A    between atoms: N_25  and  C_26
REMARK                            x       y       z     vdW  Elec       q    Type
REMARK                         _______ _______ _______ _____ _____    ______ ____
ROOT
ATOM      1  C   UNL     1       1.240  -0.139  -6.767  0.00  0.00    +0.100 A 
ATOM      2  C   UNL     1       2.452   0.260  -7.291  0.00  0.00    +0.100 A 
ATOM      3  N   UNL     1       3.594   0.172  -6.597  0.00  0.00    -0.360 N 
ATOM      4  H   UNL     1       4.442   0.477  -7.030  0.00  0.00    +0.165 HD
ATOM      5  C   UNL     1       3.650  -0.321  -5.311  0.00  0.00    +0.050 A 
ATOM      6  C   UNL     1       4.864  -0.391  -4.633  0.00  0.00    +0.028 A 
ATOM      7  C   UNL     1       4.907  -0.886  -3.348  0.00  0.00    +0.031 A 
ATOM      8  C   UNL     1       3.750  -1.317  -2.716  0.00  0.00    +0.109 A 
ATOM      9  C   UNL     1       2.539  -1.263  -3.369  0.00  0.00    +0.042 A 
ATOM     10  C   UNL     1       2.480  -0.759  -4.669  0.00  0.00    +0.048 A 
ATOM     11  C   UNL     1       1.201  -0.679  -5.399  0.00  0.00    +0.202 A 
ATOM     12  O   UNL     1       0.155  -1.045  -4.890  0.00  0.00    -0.286 OA
ENDROOT
BRANCH   1  14
ATOM     13  N   UNL     1       0.056   0.472  -8.813  0.00  0.00    -0.307 N 
ATOM     14  C   UNL     1       0.007  -0.025  -7.562  0.00  0.00    +0.249 C 
ATOM     15  O   UNL     1      -1.056  -0.380  -7.089  0.00  0.00    -0.270 OA
ATOM     16  H   UNL     1       0.904   0.755  -9.190  0.00  0.00    +0.149 HD
BRANCH  13  17
ATOM     17  C   UNL     1      -1.172   0.586  -9.605  0.00  0.00    +0.147 C 
BRANCH  17  20
ATOM     18  C   UNL     1      -0.247   1.271 -13.236  0.00  0.00    +0.008 A 
ATOM     19  C   UNL     1      -0.501   0.525 -12.100  0.00  0.00    +0.013 A 
ATOM     20  C   UNL     1      -0.846   1.166 -10.957  0.00  0.00    +0.007 A 
ATOM     21  S   UNL     1      -0.806   2.877 -11.466  0.00  0.00    -0.100 S 
ATOM     22  C   UNL     1      -0.340   2.622 -13.170  0.00  0.00    +0.045 A 
ENDBRANCH  17  20
ENDBRANCH  13  17
ENDBRANCH   1  14
BRANCH   8  23
ATOM     23  S   UNL     1       3.831  -1.946  -1.071  0.00  0.00    +0.072 S 
ATOM     24  O   UNL     1       5.161  -2.406  -0.877  0.00  0.00    -0.150 OA
ATOM     25  O   UNL     1       2.700  -2.790  -0.903  0.00  0.00    -0.150 OA
BRANCH  23  26
ATOM     26  N   UNL     1       3.620  -0.662  -0.046  0.00  0.00    -0.216 N 
ATOM     27  H   UNL     1       4.342  -0.387   0.541  0.00  0.00    +0.174 HD
BRANCH  26  28
ATOM     28  C   UNL     1       2.401   0.025  -0.026  0.00  0.00    +0.052 A 
ATOM     29  C   UNL     1       1.206  -0.682  -0.016  0.00  0.00    +0.028 A 
ATOM     30  C   UNL     1       0.002  -0.004   0.002  0.00  0.00    +0.051 A 
ATOM     31  C   UNL     1      -0.017   1.383   0.010  0.00  0.00    +0.162 A 
ATOM     32  C   UNL     1       1.178   2.093   0.002  0.00  0.00    +0.164 A 
ATOM     33  C   UNL     1       2.386   1.412  -0.018  0.00  0.00    +0.074 A 
ATOM     34  O   UNL     1       1.179   3.454   0.018  0.00  0.00    -0.485 OA
ATOM     35  C   UNL     1      -0.045   4.103  -0.340  0.00  0.00    +0.270 C 
ATOM     36  C   UNL     1      -1.193   3.412   0.408  0.00  0.00    +0.270 C 
ATOM     37  O   UNL     1      -1.214   2.034   0.019  0.00  0.00    -0.485 OA
ENDBRANCH  26  28
ENDBRANCH  23  26
ENDBRANCH   8  23
TORSDOF 6
