REMARK  Name = ZINC45061854
REMARK  6 active torsions:
REMARK  status: ('A' for Active; 'I' for Inactive)
REMARK    1  A    between atoms: C_1  and  N_2
REMARK    2  A    between atoms: N_2  and  C_3
REMARK    3  A    between atoms: N_2  and  S_8
REMARK    4  A    between atoms: C_3  and  C_4
REMARK    5  A    between atoms: N_5  and  O_6
REMARK    6  A    between atoms: S_8  and  C_11
REMARK                            x       y       z     vdW  Elec       q    Type
REMARK                         _______ _______ _______ _____ _____    ______ ____
ROOT
ATOM      1  S   UNL     1      -0.000  -0.824  -1.437  0.00  0.00    +0.062 S 
ATOM      2  O   UNL     1      -0.531  -2.115  -1.167  0.00  0.00    -0.153 OA
ATOM      3  O   UNL     1      -0.572   0.049  -2.401  0.00  0.00    -0.153 OA
ENDROOT
BRANCH   1   4
ATOM      4  C   UNL     1       1.682  -1.059  -1.905  0.00  0.00    +0.120 A 
ATOM      5  C   UNL     1       2.208  -2.336  -1.976  0.00  0.00    +0.045 A 
ATOM      6  C   UNL     1       3.528  -2.520  -2.343  0.00  0.00    +0.020 A 
ATOM      7  C   UNL     1       4.323  -1.427  -2.641  0.00  0.00    +0.016 A 
ATOM      8  C   UNL     1       3.797  -0.151  -2.571  0.00  0.00    +0.018 A 
ATOM      9  C   UNL     1       2.474   0.033  -2.208  0.00  0.00    +0.044 A 
ATOM     10 BR   UNL     1       1.753   1.778  -2.119  0.00  0.00    -0.048 Br
ATOM     11 BR   UNL     1       4.248  -4.266  -2.439  0.00  0.00    -0.050 Br
ENDBRANCH   1   4
BRANCH   1  13
ATOM     12  C   UNL     1      -0.018   1.461   0.010  0.00  0.00    +0.132 C 
ATOM     13  N   UNL     1       0.002  -0.004   0.002  0.00  0.00    -0.172 NA
BRANCH  13  14
ATOM     14  C   UNL     1       0.024  -0.743   1.267  0.00  0.00    +0.183 C 
BRANCH  14  15
ATOM     15  C   UNL     1      -1.384  -0.909   1.776  0.00  0.00    +0.147 C 
ATOM     16  N   UNL     1      -2.376  -0.425   1.104  0.00  0.00    -0.075 NA
ATOM     17  N   UNL     1      -1.615  -1.577   2.958  0.00  0.00    -0.343 N 
ATOM     18  H   UNL     1      -0.871  -1.940   3.463  0.00  0.00    +0.144 HD
ATOM     19  H   UNL     1      -2.521  -1.684   3.286  0.00  0.00    +0.144 HD
BRANCH  16  20
ATOM     20  O   UNL     1      -3.699  -0.581   1.583  0.00  0.00    -0.408 OA
ATOM     21  H   UNL     1      -4.373  -0.186   1.012  0.00  0.00    +0.328 HD
ENDBRANCH  16  20
ENDBRANCH  14  15
ENDBRANCH  13  14
ENDBRANCH   1  13
TORSDOF 5
