REMARK  Name = ZINC06409084
REMARK  9 active torsions:
REMARK  status: ('A' for Active; 'I' for Inactive)
REMARK    1  A    between atoms: C_1  and  C_2
REMARK    2  A    between atoms: C_9  and  C_14
REMARK    3  A    between atoms: C_14  and  C_16
REMARK    4  A    between atoms: C_14  and  N_70
REMARK    5  A    between atoms: N_20  and  C_21
REMARK    6  A    between atoms: C_27  and  C_28
REMARK    7  A    between atoms: C_27  and  N_70
REMARK    8  A    between atoms: C_34  and  C_35
REMARK    9  A    between atoms: C_34  and  N_70
REMARK                            x       y       z     vdW  Elec       q    Type
REMARK                         _______ _______ _______ _____ _____    ______ ____
ROOT
ATOM      1  C   UNL     1      -0.182   1.034  -0.042  0.00  0.00    +0.040 C 
ENDROOT
BRANCH   1  10
ATOM      2  C   UNL     1      -3.255  -0.223   6.636  0.00  0.00    +0.044 C 
ATOM      3  C   UNL     1      -2.716   0.724   5.594  0.00  0.00    -0.050 A 
ATOM      4  C   UNL     1      -2.717   2.090   5.840  0.00  0.00    +0.005 A 
ATOM      5  C   UNL     1      -2.230   2.974   4.901  0.00  0.00    +0.026 A 
ATOM      6  C   UNL     1      -1.731   2.494   3.695  0.00  0.00    +0.049 A 
ATOM      7  C   UNL     1      -1.732   1.108   3.450  0.00  0.00    -0.001 A 
ATOM      8  C   UNL     1      -2.231   0.230   4.417  0.00  0.00    +0.013 A 
ATOM      9  C   UNL     1      -1.204   0.612   2.177  0.00  0.00    +0.017 A 
ATOM     10  C   UNL     1      -0.732   1.511   1.278  0.00  0.00    +0.011 A 
ATOM     11  C   UNL     1      -0.749   2.890   1.575  0.00  0.00    +0.251 A 
ATOM     12  O   UNL     1      -0.315   3.680   0.754  0.00  0.00    -0.268 OA
ATOM     13  N   UNL     1      -1.236   3.355   2.739  0.00  0.00    -0.322 N 
ATOM     14  H   UNL     1      -1.237   4.310   2.909  0.00  0.00    +0.169 HD
ENDBRANCH   1  10
BRANCH   1  15
ATOM     15  C   UNL     1       1.307   1.263  -0.078  0.00  0.00    +0.143 A 
ATOM     16  N   UNL     1       1.919   2.411  -0.242  0.00  0.00    -0.115 NA
ATOM     17  N   UNL     1       3.188   2.193  -0.213  0.00  0.00    -0.023 NA
ATOM     18  N   UNL     1       3.402   0.936  -0.035  0.00  0.00    -0.044 NA
ATOM     19  N   UNL     1       2.267   0.330   0.058  0.00  0.00    -0.227 N 
BRANCH  19  20
ATOM     20  C   UNL     1       2.062  -1.105   0.270  0.00  0.00    +0.111 C 
ATOM     21  C   UNL     1       2.706  -1.523   1.593  0.00  0.00    +0.027 C 
ATOM     22  C   UNL     1       2.492  -3.022   1.814  0.00  0.00    +0.002 C 
ATOM     23  C   UNL     1       3.133  -3.804   0.665  0.00  0.00    +0.000 C 
ATOM     24  C   UNL     1       2.489  -3.386  -0.658  0.00  0.00    +0.002 C 
ATOM     25  C   UNL     1       2.703  -1.887  -0.879  0.00  0.00    +0.027 C 
ENDBRANCH  19  20
ENDBRANCH   1  15
BRANCH   1  26
ATOM     26  N   UNL     1      -0.814   1.808  -1.131  0.00  0.00    +0.395 N 
ATOM     27  H   UNL     1      -0.651   2.808  -0.968  0.00  0.00    -0.079 HD
BRANCH  26  28
ATOM     28  C   UNL     1      -2.271   1.556  -1.151  0.00  0.00    -0.041 C 
BRANCH  28  29
ATOM     29  C   UNL     1      -2.552   0.099  -1.415  0.00  0.00    -0.064 A 
ATOM     30  C   UNL     1      -2.624  -0.366  -2.715  0.00  0.00    +0.002 A 
ATOM     31  C   UNL     1      -2.876  -1.703  -2.958  0.00  0.00    +0.000 A 
ATOM     32  C   UNL     1      -3.068  -2.573  -1.901  0.00  0.00    +0.000 A 
ATOM     33  C   UNL     1      -3.002  -2.107  -0.601  0.00  0.00    +0.000 A 
ATOM     34  C   UNL     1      -2.744  -0.770  -0.358  0.00  0.00    +0.002 A 
ENDBRANCH  28  29
ENDBRANCH  26  28
BRANCH  26  35
ATOM     35  C   UNL     1      -0.219   1.429  -2.431  0.00  0.00    -0.034 C 
BRANCH  35  36
ATOM     36  C   UNL     1      -0.602   2.464  -3.458  0.00  0.00    -0.027 A 
ATOM     37  C   UNL     1       0.082   3.565  -3.856  0.00  0.00    +0.009 A 
ATOM     38  C   UNL     1      -0.469   4.381  -4.826  0.00  0.00    +0.008 A 
ATOM     39  C   UNL     1      -1.676   4.057  -5.350  0.00  0.00    +0.045 A 
ATOM     40  S   UNL     1      -2.068   2.554  -4.471  0.00  0.00    -0.103 S 
ENDBRANCH  35  36
ENDBRANCH  26  35
ENDBRANCH   1  26
TORSDOF 8
