REMARK  Name = ZINC21786099
REMARK  7 active torsions:
REMARK  status: ('A' for Active; 'I' for Inactive)
REMARK    1  A    between atoms: C_1  and  C_2
REMARK    2  A    between atoms: C_7  and  C_12
REMARK    3  A    between atoms: C_14  and  C_17
REMARK    4  A    between atoms: N_19  and  C_20
REMARK    5  A    between atoms: C_23  and  S_26
REMARK    6  A    between atoms: S_26  and  N_29
REMARK    7  A    between atoms: N_29  and  C_30
REMARK                            x       y       z     vdW  Elec       q    Type
REMARK                         _______ _______ _______ _____ _____    ______ ____
ROOT
ATOM      1  C   UNL     1       1.122   1.695   0.006  0.00  0.00    +0.270 C 
ATOM      2  O   UNL     1       1.065   2.906  -0.075  0.00  0.00    -0.268 OA
ATOM      3  N   UNL     1      -0.011   0.966   0.007  0.00  0.00    -0.280 N 
ATOM      4  H   UNL     1       0.042  -0.133   0.009  0.00  0.00    +0.155 HD
ENDROOT
BRANCH   3   5
ATOM      5  C   UNL     1      -1.254   1.606   0.007  0.00  0.00    +0.034 A 
ATOM      6  C   UNL     1      -2.325   1.048   0.695  0.00  0.00    +0.025 A 
ATOM      7  C   UNL     1      -3.550   1.686   0.697  0.00  0.00    +0.031 A 
ATOM      8  C   UNL     1      -3.714   2.873   0.007  0.00  0.00    +0.111 A 
ATOM      9  C   UNL     1      -2.652   3.428  -0.683  0.00  0.00    +0.031 A 
ATOM     10  C   UNL     1      -1.423   2.798  -0.685  0.00  0.00    +0.025 A 
BRANCH   8  11
ATOM     11  S   UNL     1      -5.281   3.679   0.007  0.00  0.00    +0.093 S 
ATOM     12  O   UNL     1      -5.963   3.242   1.175  0.00  0.00    -0.148 OA
ATOM     13  O   UNL     1      -5.031   5.052  -0.261  0.00  0.00    -0.148 OA
BRANCH  11  14
ATOM     14  N   UNL     1      -6.133   3.093  -1.286  0.00  0.00    -0.070 NA
BRANCH  14  15
ATOM     15  C   UNL     1      -6.506   1.758  -1.323  0.00  0.00    +0.201 A 
ATOM     16  N   UNL     1      -6.273   0.808  -0.438  0.00  0.00    -0.231 NA
ATOM     17  C   UNL     1      -6.707  -0.424  -0.628  0.00  0.00    +0.120 A 
ATOM     18  C   UNL     1      -7.392  -0.699  -1.764  0.00  0.00    +0.068 A 
ATOM     19  S   UNL     1      -7.392   0.906  -2.549  0.00  0.00    -0.058 S 
ENDBRANCH  14  15
ENDBRANCH  11  14
ENDBRANCH   8  11
ENDBRANCH   3   5
BRANCH   1  22
ATOM     20  C   UNL     1       4.587   0.592   0.219  0.00  0.00    +0.168 A 
ATOM     21  C   UNL     1       3.715   1.640   0.115  0.00  0.00    +0.086 A 
ATOM     22  C   UNL     1       2.439   1.020   0.103  0.00  0.00    +0.168 A 
ATOM     23  N   UNL     1       2.656  -0.270   0.202  0.00  0.00    -0.073 NA
ATOM     24  O   UNL     1       3.836  -0.523   0.261  0.00  0.00    -0.354 OA
BRANCH  20  30
ATOM     25  C   UNL     1      11.775  -1.194   0.305  0.00  0.00    +0.052 C 
ATOM     26  C   UNL     1      10.507  -0.634   0.952  0.00  0.00    +0.175 C 
ATOM     27  C   UNL     1       9.272  -1.477   0.555  0.00  0.00    +0.083 C 
ATOM     28  C   UNL     1       8.195  -0.415   0.432  0.00  0.00    -0.002 A 
ATOM     29  C   UNL     1       6.824  -0.496   0.387  0.00  0.00    +0.019 A 
ATOM     30  C   UNL     1       6.062   0.669   0.274  0.00  0.00    +0.020 A 
ATOM     31  C   UNL     1       6.704   1.908   0.220  0.00  0.00    +0.015 A 
ATOM     32  C   UNL     1       8.078   1.978   0.269  0.00  0.00    +0.046 A 
ATOM     33  C   UNL     1       8.841   0.815   0.373  0.00  0.00    +0.124 A 
ATOM     34  O   UNL     1      10.193   0.663   0.418  0.00  0.00    -0.488 OA
ENDBRANCH  20  30
ENDBRANCH   1  22
TORSDOF 6
