REMARK  Name = ZINC09723213
REMARK  11 active torsions:
REMARK  status: ('A' for Active; 'I' for Inactive)
REMARK    1  A    between atoms: C_1  and  C_2
REMARK    2  A    between atoms: C_3  and  S_9
REMARK    3  A    between atoms: C_4  and  C_8
REMARK    4  A    between atoms: S_9  and  N_12
REMARK    5  A    between atoms: N_12  and  C_13
REMARK    6  A    between atoms: N_12  and  C_25
REMARK    7  A    between atoms: C_13  and  C_14
REMARK    8  A    between atoms: N_16  and  C_17
REMARK    9  A    between atoms: C_28  and  C_31
REMARK   10  A    between atoms: C_31  and  C_32
REMARK   11  A    between atoms: C_31  and  C_33
REMARK                            x       y       z     vdW  Elec       q    Type
REMARK                         _______ _______ _______ _____ _____    ______ ____
ROOT
ATOM      1  N   UNL     1      -2.358   1.002  -0.024  0.00  0.00    -0.194 N 
ENDROOT
BRANCH   1   2
ATOM      2  C   UNL     1      -2.240   0.717   1.338  0.00  0.00    +0.052 A 
ATOM      3  C   UNL     1      -3.040  -0.260   1.917  0.00  0.00    +0.025 A 
ATOM      4  C   UNL     1      -2.917  -0.543   3.263  0.00  0.00    +0.006 A 
ATOM      5  C   UNL     1      -2.005   0.152   4.037  0.00  0.00    -0.045 A 
ATOM      6  C   UNL     1      -1.211   1.129   3.465  0.00  0.00    +0.006 A 
ATOM      7  C   UNL     1      -1.325   1.413   2.119  0.00  0.00    +0.025 A 
BRANCH   5   8
ATOM      8  C   UNL     1      -1.877  -0.156   5.506  0.00  0.00    +0.013 C 
ATOM      9  C   UNL     1      -3.218   0.095   6.199  0.00  0.00    +0.012 C 
ATOM     10  C   UNL     1      -1.476  -1.622   5.687  0.00  0.00    +0.012 C 
ENDBRANCH   5   8
ENDBRANCH   1   2
BRANCH   1  11
ATOM     11  S   UNL     1      -3.376   2.206  -0.532  0.00  0.00    +0.079 S 
ATOM     12  O   UNL     1      -3.753   1.884  -1.863  0.00  0.00    -0.150 OA
ATOM     13  O   UNL     1      -4.329   2.397   0.505  0.00  0.00    -0.150 OA
BRANCH  11  16
ATOM     14  C   UNL     1      -1.788   3.527  -3.086  0.00  0.00    +0.067 C 
ATOM     15  C   UNL     1      -1.799   4.166  -1.721  0.00  0.00    +0.060 A 
ATOM     16  C   UNL     1      -2.426   3.688  -0.622  0.00  0.00    +0.151 A 
ATOM     17  C   UNL     1      -2.191   4.580   0.430  0.00  0.00    +0.087 A 
ATOM     18  N   UNL     1      -1.442   5.554  -0.020  0.00  0.00    -0.177 NA
ATOM     19  N   UNL     1      -1.185   5.317  -1.377  0.00  0.00    -0.280 N 
ATOM     20  H   UNL     1      -0.641   5.898  -1.982  0.00  0.00    +0.189 HD
ATOM     21  C   UNL     1      -2.708   4.441   1.838  0.00  0.00    +0.069 C 
ENDBRANCH  11  16
ENDBRANCH   1  11
BRANCH   1  22
ATOM     22  C   UNL     1      -1.583   0.237  -1.003  0.00  0.00    +0.227 C 
BRANCH  22  23
ATOM     23  C   UNL     1      -2.323  -1.029  -1.351  0.00  0.00    +0.232 C 
ATOM     24  O   UNL     1      -3.393  -1.268  -0.833  0.00  0.00    -0.274 OA
ATOM     25  N   UNL     1      -1.799  -1.892  -2.243  0.00  0.00    -0.311 N 
ATOM     26  H   UNL     1      -0.943  -1.701  -2.658  0.00  0.00    +0.149 HD
BRANCH  25  27
ATOM     27  C   UNL     1      -2.521  -3.120  -2.587  0.00  0.00    +0.073 C 
ATOM     28  C   UNL     1      -2.194  -4.208  -1.562  0.00  0.00    +0.022 C 
ATOM     29  C   UNL     1      -3.221  -5.336  -1.671  0.00  0.00    +0.002 C 
ATOM     30  C   UNL     1      -4.624  -4.739  -1.795  0.00  0.00    +0.000 C 
ATOM     31  C   UNL     1      -5.186  -5.043  -3.185  0.00  0.00    +0.000 C 
ATOM     32  C   UNL     1      -4.528  -4.120  -4.213  0.00  0.00    +0.000 C 
ATOM     33  C   UNL     1      -3.108  -4.610  -4.503  0.00  0.00    +0.002 C 
ATOM     34  C   UNL     1      -2.098  -3.588  -3.980  0.00  0.00    +0.022 C 
ENDBRANCH  25  27
ENDBRANCH  22  23
ENDBRANCH   1  22
TORSDOF 7
