REMARK  Name = ZINC10065695
REMARK  8 active torsions:
REMARK  status: ('A' for Active; 'I' for Inactive)
REMARK    1  A    between atoms: C_1  and  N_45
REMARK    2  A    between atoms: C_2  and  N_45
REMARK    3  A    between atoms: C_3  and  C_4
REMARK    4  A    between atoms: C_3  and  N_45
REMARK    5  A    between atoms: C_4  and  N_5
REMARK    6  A    between atoms: C_16  and  C_18
REMARK    7  A    between atoms: C_19  and  C_20
REMARK    8  A    between atoms: C_23  and  N_25
REMARK                            x       y       z     vdW  Elec       q    Type
REMARK                         _______ _______ _______ _____ _____    ______ ____
ROOT
ATOM      1  N   UNL     1       1.398   3.459   0.007  0.00  0.00    -0.249 N 
ATOM      2  C   UNL     1       1.400   4.145   1.209  0.00  0.00    +0.168 A 
ATOM      3  N   UNL     1       1.384   5.441   1.418  0.00  0.00    -0.224 NA
ATOM      4  C   UNL     1       1.389   5.976   2.659  0.00  0.00    +0.080 A 
ATOM      5  C   UNL     1       1.373   7.343   3.019  0.00  0.00    +0.030 A 
ATOM      6  C   UNL     1       1.380   7.720   4.336  0.00  0.00    +0.017 A 
ATOM      7  C   UNL     1       1.402   6.782   5.359  0.00  0.00    +0.019 A 
ATOM      8  C   UNL     1       1.418   5.435   5.043  0.00  0.00    +0.032 A 
ATOM      9  C   UNL     1       1.411   5.049   3.725  0.00  0.00    +0.042 A 
ATOM     10  S   UNL     1       1.417   3.490   2.873  0.00  0.00    -0.052 S 
ATOM     11 BR   UNL     1       1.411   7.339   7.167  0.00  0.00    -0.050 Br
ATOM     12  C   UNL     1       1.377   4.139  -1.156  0.00  0.00    +0.245 C 
ATOM     13  O   UNL     1       1.361   5.357  -1.149  0.00  0.00    -0.270 OA
ENDROOT
BRANCH  12  14
ATOM     14  C   UNL     1       1.375   3.439  -2.384  0.00  0.00    +0.069 C 
ATOM     15  C   UNL     1       1.355   4.124  -3.556  0.00  0.00    +0.020 C 
BRANCH  15  16
ATOM     16  C   UNL     1       1.353   3.423  -4.785  0.00  0.00    +0.015 A 
ATOM     17  C   UNL     1       1.328   3.926  -6.081  0.00  0.00    +0.018 A 
ATOM     18  C   UNL     1       1.337   3.012  -7.104  0.00  0.00    +0.041 A 
ATOM     19  C   UNL     1       1.357   1.685  -6.810  0.00  0.00    +0.164 A 
ATOM     20  S   UNL     1       1.373   1.663  -5.077  0.00  0.00    -0.065 S 
BRANCH  19  21
ATOM     21  N   UNL     1       1.363   0.536  -7.744  0.00  0.00    +0.063 N 
ATOM     22  O   UNL     1       1.349   0.729  -8.947  0.00  0.00    -0.126 OA
ATOM     23  O   UNL     1       1.382  -0.602  -7.310  0.00  0.00    -0.126 OA
ENDBRANCH  19  21
ENDBRANCH  15  16
ENDBRANCH  12  14
BRANCH   1  24
ATOM     24  C   UNL     1       1.417   1.994  -0.001  0.00  0.00    +0.097 C 
BRANCH  24  25
ATOM     25  C   UNL     1      -0.018   1.465   0.010  0.00  0.00    -0.060 C 
BRANCH  25  28
ATOM     26  C   UNL     1      -1.339  -0.550   0.250  0.00  0.00    -0.097 C 
ATOM     27  C   UNL     1       0.554  -0.516  -1.259  0.00  0.00    -0.097 C 
ATOM     28  N   UNL     1       0.019  -0.013   0.023  0.00  0.00    +0.377 N 
ATOM     29  H   UNL     1       0.633  -0.324   0.785  0.00  0.00    -0.083 HD
ENDBRANCH  25  28
ENDBRANCH  24  25
ENDBRANCH   1  24
TORSDOF 6
