REMARK  Name = ZINC33052389
REMARK  7 active torsions:
REMARK  status: ('A' for Active; 'I' for Inactive)
REMARK    1  A    between atoms: C_1  and  C_2
REMARK    2  A    between atoms: C_6  and  C_8
REMARK    3  A    between atoms: C_17  and  C_26
REMARK    4  A    between atoms: N_19  and  C_20
REMARK    5  A    between atoms: N_31  and  C_32
REMARK    6  A    between atoms: C_32  and  C_33
REMARK    7  A    between atoms: C_33  and  C_34
REMARK                            x       y       z     vdW  Elec       q    Type
REMARK                         _______ _______ _______ _____ _____    ______ ____
ROOT
ATOM      1  C   UNL     1      -0.406  10.019  -3.813  0.00  0.00    +0.155 C 
ATOM      2  C   UNL     1       0.468  11.110  -3.267  0.00  0.00    +0.050 A 
ATOM      3  C   UNL     1       1.685  11.501  -3.675  0.00  0.00    +0.025 A 
ATOM      4  C   UNL     1       2.063  12.607  -2.882  0.00  0.00    +0.020 A 
ATOM      5  C   UNL     1       1.062  12.838  -2.002  0.00  0.00    +0.093 A 
ATOM      6  N   UNL     1       0.103  11.906  -2.210  0.00  0.00    -0.303 N 
ATOM      7  C   UNL     1      -1.079  11.644  -1.508  0.00  0.00    +0.146 A 
ATOM      8  C   UNL     1      -1.427  10.363  -1.186  0.00  0.00    +0.035 A 
ATOM      9  C   UNL     1      -2.668  10.411  -0.558  0.00  0.00    +0.067 A 
ATOM     10  N   UNL     1      -3.042  11.666  -0.476  0.00  0.00    -0.169 NA
ATOM     11  N   UNL     1      -2.042  12.467  -1.054  0.00  0.00    -0.215 N 
ATOM     12  C   UNL     1      -3.449   9.224  -0.057  0.00  0.00    +0.068 C 
ATOM     13  C   UNL     1      -0.549   9.179  -1.447  0.00  0.00    +0.151 C 
ATOM     14  N   UNL     1      -0.471   8.861  -2.892  0.00  0.00    -0.269 N 
ATOM     15  C   UNL     1      -0.466   7.591  -3.343  0.00  0.00    +0.303 C 
ATOM     16  O   UNL     1      -0.406   7.370  -4.537  0.00  0.00    -0.253 OA
ATOM     17  N   UNL     1      -0.527   6.566  -2.470  0.00  0.00    -0.299 N 
ATOM     18  H   UNL     1      -0.581   6.766  -1.390  0.00  0.00    +0.150 HD
ENDROOT
BRANCH   1  24
ATOM     19  C   UNL     1      -5.369   9.414  -3.609  0.00  0.00    +0.044 C 
ATOM     20  C   UNL     1      -4.171  10.271  -3.924  0.00  0.00    -0.050 A 
ATOM     21  C   UNL     1      -4.347  11.556  -4.405  0.00  0.00    +0.003 A 
ATOM     22  C   UNL     1      -3.248  12.342  -4.694  0.00  0.00    +0.001 A 
ATOM     23  C   UNL     1      -1.972  11.845  -4.502  0.00  0.00    +0.006 A 
ATOM     24  C   UNL     1      -1.796  10.561  -4.022  0.00  0.00    -0.021 A 
ATOM     25  C   UNL     1      -2.896   9.772  -3.737  0.00  0.00    +0.009 A 
ENDBRANCH   1  24
BRANCH  11  26
ATOM     26  C   UNL     1      -2.047  13.866  -1.142  0.00  0.00    +0.068 A 
ATOM     27  C   UNL     1      -2.491  14.629  -0.070  0.00  0.00    +0.028 A 
ATOM     28  C   UNL     1      -2.491  16.007  -0.158  0.00  0.00    +0.002 A 
ATOM     29  C   UNL     1      -2.058  16.627  -1.316  0.00  0.00    +0.000 A 
ATOM     30  C   UNL     1      -1.620  15.870  -2.387  0.00  0.00    +0.002 A 
ATOM     31  C   UNL     1      -1.614  14.492  -2.303  0.00  0.00    +0.028 A 
ENDBRANCH  11  26
BRANCH  17  32
ATOM     32  C   UNL     1      -0.521   5.185  -2.960  0.00  0.00    +0.110 C 
BRANCH  32  33
ATOM     33  C   UNL     1      -0.598   4.222  -1.773  0.00  0.00    +0.054 C 
BRANCH  33  34
ATOM     34  C   UNL     1      -0.592   2.802  -2.277  0.00  0.00    -0.046 A 
ATOM     35  C   UNL     1       0.606   2.133  -2.445  0.00  0.00    +0.004 A 
ATOM     36  C   UNL     1       0.612   0.831  -2.908  0.00  0.00    +0.000 A 
ATOM     37  C   UNL     1      -0.581   0.197  -3.202  0.00  0.00    +0.000 A 
ATOM     38  C   UNL     1      -1.779   0.867  -3.038  0.00  0.00    +0.000 A 
ATOM     39  C   UNL     1      -1.784   2.168  -2.571  0.00  0.00    +0.004 A 
ENDBRANCH  33  34
ENDBRANCH  32  33
ENDBRANCH  17  32
TORSDOF 5
