REMARK  Name = ZINC02299523
REMARK  7 active torsions:
REMARK  status: ('A' for Active; 'I' for Inactive)
REMARK    1  A    between atoms: C_1  and  C_2
REMARK    2  A    between atoms: C_7  and  C_8
REMARK    3  A    between atoms: C_17  and  C_32
REMARK    4  A    between atoms: C_18  and  C_19
REMARK    5  A    between atoms: N_20  and  C_21
REMARK    6  A    between atoms: C_21  and  C_22
REMARK    7  A    between atoms: C_22  and  C_23
REMARK                            x       y       z     vdW  Elec       q    Type
REMARK                         _______ _______ _______ _____ _____    ______ ____
ROOT
ATOM      1  C   UNL     1       0.349  -0.309   2.252  0.00  0.00    +0.088 C 
ATOM      2  C   UNL     1      -0.817  -0.517   3.181  0.00  0.00    +0.007 A 
ATOM      3  C   UNL     1      -2.073  -0.075   2.808  0.00  0.00    +0.008 A 
ATOM      4  C   UNL     1      -3.153  -0.259   3.650  0.00  0.00    +0.001 A 
ATOM      5  C   UNL     1      -2.981  -0.886   4.871  0.00  0.00    +0.004 A 
ATOM      6  C   UNL     1      -1.729  -1.329   5.248  0.00  0.00    +0.046 A 
ATOM      7  C   UNL     1      -0.641  -1.146   4.403  0.00  0.00    +0.133 A 
ATOM      8  O   UNL     1       0.582  -1.587   4.789  0.00  0.00    -0.455 OA
ATOM      9  C   UNL     1       1.688  -1.097   4.199  0.00  0.00    +0.141 C 
ATOM     10  C   UNL     1       1.642  -0.483   2.998  0.00  0.00    +0.023 C 
ENDROOT
BRANCH   1  17
ATOM     11  C   UNL     1      -0.150   0.572  -0.454  0.00  0.00    +0.044 C 
ATOM     12  C   UNL     1       0.042  -0.894  -0.162  0.00  0.00    -0.046 A 
ATOM     13  C   UNL     1      -0.015  -1.817  -1.190  0.00  0.00    +0.003 A 
ATOM     14  C   UNL     1       0.161  -3.161  -0.923  0.00  0.00    +0.000 A 
ATOM     15  C   UNL     1       0.395  -3.583   0.373  0.00  0.00    +0.000 A 
ATOM     16  C   UNL     1       0.453  -2.661   1.400  0.00  0.00    +0.005 A 
ATOM     17  C   UNL     1       0.281  -1.316   1.132  0.00  0.00    -0.032 A 
ENDBRANCH   1  17
BRANCH   9  18
ATOM     18  C   UNL     1       2.988  -1.237   4.884  0.00  0.00    +0.018 A 
ATOM     19  C   UNL     1       3.779  -0.112   5.125  0.00  0.00    +0.011 A 
ATOM     20  C   UNL     1       4.992  -0.250   5.767  0.00  0.00    +0.001 A 
ATOM     21  C   UNL     1       5.426  -1.500   6.170  0.00  0.00    +0.000 A 
ATOM     22  C   UNL     1       4.648  -2.620   5.934  0.00  0.00    +0.001 A 
ATOM     23  C   UNL     1       3.429  -2.495   5.300  0.00  0.00    +0.011 A 
ENDBRANCH   9  18
BRANCH  10  24
ATOM     24  C   UNL     1       2.839   0.009   2.432  0.00  0.00    +0.086 C 
ATOM     25  N   UNL     1       2.801   0.699   1.329  0.00  0.00    -0.390 N 
ATOM     26  H   UNL     1       1.948   0.944   0.939  0.00  0.00    +0.159 HD
BRANCH  25  27
ATOM     27  C   UNL     1       4.049   1.106   0.677  0.00  0.00    +0.117 C 
BRANCH  27  28
ATOM     28  C   UNL     1       4.167   0.407  -0.678  0.00  0.00    +0.058 C 
BRANCH  28  29
ATOM     29  C   UNL     1       5.503   0.732  -1.296  0.00  0.00    -0.021 A 
ATOM     30  C   UNL     1       6.770   0.040  -1.047  0.00  0.00    +0.003 A 
ATOM     31  C   UNL     1       7.144  -1.040  -0.244  0.00  0.00    +0.010 A 
ATOM     32  C   UNL     1       8.445  -1.458  -0.234  0.00  0.00    +0.001 A 
ATOM     33  C   UNL     1       9.398  -0.818  -1.014  0.00  0.00    +0.002 A 
ATOM     34  C   UNL     1       9.050   0.249  -1.813  0.00  0.00    +0.026 A 
ATOM     35  C   UNL     1       7.732   0.692  -1.840  0.00  0.00    +0.047 A 
ATOM     36  N   UNL     1       7.084   1.702  -2.515  0.00  0.00    -0.360 N 
ATOM     37  C   UNL     1       5.757   1.707  -2.183  0.00  0.00    +0.087 A 
ATOM     38  H   UNL     1       7.506   2.316  -3.136  0.00  0.00    +0.165 HD
ENDBRANCH  28  29
ENDBRANCH  27  28
ENDBRANCH  25  27
ENDBRANCH  10  24
TORSDOF 6
