REMARK  Name = ZINC47309399
REMARK  6 active torsions:
REMARK  status: ('A' for Active; 'I' for Inactive)
REMARK    1  A    between atoms: C_4  and  S_7
REMARK    2  A    between atoms: S_7  and  C_8
REMARK    3  A    between atoms: C_8  and  C_9
REMARK    4  A    between atoms: C_16  and  N_29
REMARK    5  A    between atoms: C_17  and  C_27
REMARK    6  A    between atoms: C_18  and  C_20
REMARK                            x       y       z     vdW  Elec       q    Type
REMARK                         _______ _______ _______ _____ _____    ______ ____
ROOT
ATOM      1  C   UNL     1       4.468  -3.040  -0.189  0.00  0.00    +0.054 A 
ATOM      2  C   UNL     1       5.143  -3.734  -1.118  0.00  0.00    +0.046 A 
ATOM      3  C   UNL     1       6.195  -4.422  -0.474  0.00  0.00    +0.244 A 
ATOM      4  N   UNL     1       6.141  -4.143   0.796  0.00  0.00    -0.135 NA
ATOM      5  N   UNL     1       5.063  -3.268   1.005  0.00  0.00    -0.277 N 
ATOM      6  H   UNL     1       4.791  -2.893   1.858  0.00  0.00    +0.189 HD
ATOM      7  O   UNL     1       7.064  -5.214  -1.158  0.00  0.00    -0.422 OA
ATOM      8  C   UNL     1       7.065  -5.117  -2.502  0.00  0.00    +0.200 C 
ATOM      9  C   UNL     1       6.110  -4.497  -3.226  0.00  0.00    +0.094 C 
ATOM     10  C   UNL     1       4.907  -3.834  -2.603  0.00  0.00    +0.075 C 
ENDROOT
BRANCH  10  11
ATOM     11  C   UNL     1       3.657  -4.674  -2.873  0.00  0.00    +0.006 C 
ATOM     12  C   UNL     1       3.348  -4.672  -4.375  0.00  0.00    +0.009 C 
ATOM     13  C   UNL     1       2.002  -5.365  -4.594  0.00  0.00    +0.027 C 
ATOM     14  C   UNL     1       1.974  -6.679  -3.869  0.00  0.00    -0.031 C 
ATOM     15  C   UNL     1       2.798  -7.005  -2.926  0.00  0.00    -0.031 C 
ATOM     16  C   UNL     1       3.901  -6.117  -2.426  0.00  0.00    +0.031 C 
ENDBRANCH  10  11
BRANCH   8  17
ATOM     17  N   UNL     1       8.112  -5.689  -3.182  0.00  0.00    -0.328 N 
ATOM     18  H   UNL     1       8.817  -6.143  -2.695  0.00  0.00    +0.145 HD
ATOM     19  H   UNL     1       8.146  -5.638  -4.150  0.00  0.00    +0.145 HD
ENDBRANCH   8  17
BRANCH   9  20
ATOM     20  C   UNL     1       6.245  -4.468  -4.651  0.00  0.00    +0.100 C 
ATOM     21  N   UNL     1       6.351  -4.444  -5.782  0.00  0.00    -0.191 NA
ENDBRANCH   9  20
BRANCH   1  22
ATOM     22  C   UNL     1       3.269  -2.161  -0.432  0.00  0.00    +0.129 C 
BRANCH  22  23
ATOM     23  S   UNL     1       3.811  -0.443  -0.638  0.00  0.00    -0.119 S 
BRANCH  23  27
ATOM     24  C   UNL     1      -0.037   1.842  -1.339  0.00  0.00    +0.000 A 
ATOM     25  C   UNL     1       1.172   2.514  -1.327  0.00  0.00    +0.001 A 
ATOM     26  C   UNL     1       2.347   1.821  -1.113  0.00  0.00    +0.015 A 
ATOM     27  C   UNL     1       2.314   0.447  -0.911  0.00  0.00    +0.008 A 
ATOM     28  C   UNL     1       1.097  -0.225  -0.924  0.00  0.00    +0.015 A 
ATOM     29  C   UNL     1      -0.074   0.475  -1.139  0.00  0.00    +0.001 A 
ENDBRANCH  23  27
ENDBRANCH  22  23
ENDBRANCH   1  22
TORSDOF 6
