REMARK  Name = ZINC12659322
REMARK  15 active torsions:
REMARK  status: ('A' for Active; 'I' for Inactive)
REMARK    1  A    between atoms: C_1  and  C_2
REMARK    2  A    between atoms: N_6  and  O_7
REMARK    3  A    between atoms: O_7  and  C_8
REMARK    4  A    between atoms: C_8  and  C_9
REMARK    5  A    between atoms: N_11  and  C_12
REMARK    6  A    between atoms: C_12  and  C_14
REMARK    7  A    between atoms: C_12  and  C_19
REMARK    8  A    between atoms: C_14  and  C_15
REMARK    9  A    between atoms: C_15  and  C_16
REMARK   10  A    between atoms: C_16  and  C_17
REMARK   11  A    between atoms: C_19  and  O_21
REMARK   12  A    between atoms: O_21  and  C_22
REMARK   13  A    between atoms: C_33  and  C_42
REMARK   14  A    between atoms: C_38  and  C_39
REMARK   15  A    between atoms: C_38  and  O_41
REMARK                            x       y       z     vdW  Elec       q    Type
REMARK                         _______ _______ _______ _____ _____    ______ ____
ROOT
ATOM      1  C   UNL     1      -4.049  -2.180   3.336  0.00  0.00    +0.016 C 
ATOM      2  C   UNL     1      -3.237  -0.887   3.169  0.00  0.00    -0.007 C 
ATOM      3  C   UNL     1      -3.819   0.032   4.216  0.00  0.00    +0.017 C 
ATOM      4  C   UNL     1      -3.813   1.495   3.782  0.00  0.00    +0.059 C 
ATOM      5  C   UNL     1      -4.511   1.600   2.439  0.00  0.00    +0.080 C 
ATOM      6  N   UNL     1      -5.395   2.519   2.207  0.00  0.00    -0.089 NA
ATOM      7  C   UNL     1      -4.112   0.627   1.404  0.00  0.00    +0.026 C 
ATOM      8  C   UNL     1      -3.473  -0.479   1.757  0.00  0.00    -0.062 C 
ATOM      9  C   UNL     1      -2.933  -1.391   0.670  0.00  0.00    +0.031 C 
ATOM     10  C   UNL     1      -1.442  -1.571   0.922  0.00  0.00    +0.008 C 
ATOM     11  C   UNL     1      -1.120  -2.065   2.325  0.00  0.00    -0.003 C 
ATOM     12  C   UNL     1      -1.820  -1.308   3.436  0.00  0.00    +0.002 C 
ATOM     13  C   UNL     1      -0.941  -0.187   3.978  0.00  0.00    +0.005 C 
ATOM     14  C   UNL     1       0.244  -0.785   4.754  0.00  0.00    +0.011 C 
ATOM     15  C   UNL     1       0.764  -1.997   4.015  0.00  0.00    +0.011 C 
ATOM     16  C   UNL     1       0.385  -1.911   2.523  0.00  0.00    +0.002 C 
ATOM     17  C   UNL     1       1.220  -3.046   1.909  0.00  0.00    +0.008 C 
ATOM     18  C   UNL     1       2.552  -2.994   2.700  0.00  0.00    +0.049 C 
ATOM     19  C   UNL     1       2.298  -2.092   3.933  0.00  0.00    +0.132 C 
ATOM     20  C   UNL     1       0.249  -3.286   4.658  0.00  0.00    +0.015 C 
ENDROOT
BRANCH  19  21
ATOM     21  C   UNL     1       2.832  -2.721   5.149  0.00  0.00    -0.070 C 
ATOM     22  C   UNL     1       3.258  -3.224   6.120  0.00  0.00    +0.007 C 
ENDBRANCH  19  21
BRANCH  19  23
ATOM     23  O   UNL     1       2.870  -0.803   3.733  0.00  0.00    -0.376 OA
ATOM     24  H   UNL     1       3.830  -0.812   3.614  0.00  0.00    +0.211 HD
ENDBRANCH  19  23
BRANCH   6  25
ATOM     25  O   UNL     1      -6.006   2.609   0.933  0.00  0.00    -0.384 OA
BRANCH  25  26
ATOM     26  C   UNL     1      -6.959   3.667   0.818  0.00  0.00    +0.358 C 
BRANCH  26  27
ATOM     27  C   UNL     1      -7.543   3.669  -0.572  0.00  0.00    +0.254 C 
ATOM     28  O   UNL     1      -7.178   2.845  -1.383  0.00  0.00    -0.272 OA
ATOM     29  N   UNL     1      -8.470   4.586  -0.912  0.00  0.00    -0.299 N 
ATOM     30  H   UNL     1      -8.762   5.245  -0.262  0.00  0.00    +0.150 HD
BRANCH  29  31
ATOM     31  C   UNL     1      -9.037   4.588  -2.262  0.00  0.00    +0.182 C 
BRANCH  31  32
ATOM     32  C   UNL     1      -8.136   5.368  -3.185  0.00  0.00    +0.327 C 
ATOM     33  O   UNL     1      -7.124   5.871  -2.757  0.00  0.00    -0.249 OA
BRANCH  32  34
ATOM     34  O   UNL     1      -8.458   5.505  -4.481  0.00  0.00    -0.467 OA
ATOM     35  C   UNL     1      -7.544   6.269  -5.310  0.00  0.00    +0.280 C 
ENDBRANCH  32  34
ENDBRANCH  31  32
BRANCH  31  36
ATOM     36  C   UNL     1     -10.422   5.237  -2.233  0.00  0.00    +0.034 C 
BRANCH  36  37
ATOM     37  C   UNL     1     -11.371   4.376  -1.397  0.00  0.00    +0.010 C 
BRANCH  37  38
ATOM     38  C   UNL     1     -12.757   5.025  -1.367  0.00  0.00    +0.068 C 
BRANCH  38  39
ATOM     39  C   UNL     1     -13.691   4.177  -0.543  0.00  0.00    +0.063 C 
ATOM     40  N   UNL     1     -14.995   4.562  -0.374  0.00  0.00    -0.348 N 
ATOM     41  H   UNL     1     -13.787   2.474   0.552  0.00  0.00    +0.157 HD
ATOM     42  H   UNL     1     -15.317   5.380  -0.784  0.00  0.00    +0.143 HD
ATOM     43  H   UNL     1     -15.597   4.016   0.156  0.00  0.00    +0.143 HD
ATOM     44  N   UNL     1     -13.194   3.081  -0.014  0.00  0.00    -0.391 N 
ATOM     45  H   UNL     1     -12.209   2.836  -0.171  0.00  0.00    +0.157 HD
ENDBRANCH  38  39
ENDBRANCH  37  38
ENDBRANCH  36  37
ENDBRANCH  31  36
ENDBRANCH  29  31
ENDBRANCH  26  27
ENDBRANCH  25  26
ENDBRANCH   6  25
TORSDOF 12
