REMARK  Name = ZINC40267000
REMARK  5 active torsions:
REMARK  status: ('A' for Active; 'I' for Inactive)
REMARK    1  A    between atoms: C_1  and  O_2
REMARK    2  A    between atoms: O_2  and  C_3
REMARK    3  A    between atoms: C_3  and  C_5
REMARK    4  A    between atoms: C_10  and  N_11
REMARK    5  A    between atoms: C_23  and  C_25
REMARK                            x       y       z     vdW  Elec       q    Type
REMARK                         _______ _______ _______ _____ _____    ______ ____
ROOT
ATOM      1  N   UNL     1      -3.690  -1.528   0.109  0.00  0.00    -0.269 N 
ATOM      2  C   UNL     1      -4.805  -2.241   0.367  0.00  0.00    +0.307 C 
ATOM      3  O   UNL     1      -4.724  -3.429   0.610  0.00  0.00    -0.252 OA
ATOM      4  N   UNL     1      -6.009  -1.635   0.357  0.00  0.00    -0.272 N 
ATOM      5  C   UNL     1      -6.120  -0.181   0.172  0.00  0.00    +0.116 C 
ATOM      6  C   UNL     1      -6.858   0.105  -1.142  0.00  0.00    +0.076 C 
ATOM      7  C   UNL     1      -8.067  -0.793  -1.227  0.00  0.00    +0.066 A 
ATOM      8  C   UNL     1      -8.239  -1.912  -0.490  0.00  0.00    +0.064 A 
ATOM      9  N   UNL     1      -9.436  -2.450  -0.847  0.00  0.00    -0.346 N 
ATOM     10  H   UNL     1      -9.834  -3.260  -0.491  0.00  0.00    +0.167 HD
ATOM     11  C   UNL     1      -9.966  -1.641  -1.794  0.00  0.00    +0.197 A 
ATOM     12  N   UNL     1      -9.139  -0.653  -2.013  0.00  0.00    -0.240 NA
ATOM     13  C   UNL     1      -7.249  -2.415   0.525  0.00  0.00    +0.159 C 
ATOM     14  H   UNL     1      -3.747  -0.568  -0.018  0.00  0.00    +0.156 HD
ENDROOT
BRANCH  13  15
ATOM     15  C   UNL     1      -7.797  -2.214   1.914  0.00  0.00    +0.017 A 
ATOM     16  C   UNL     1      -8.873  -1.370   2.117  0.00  0.00    +0.009 A 
ATOM     17  C   UNL     1      -9.378  -1.185   3.390  0.00  0.00    +0.003 A 
ATOM     18  C   UNL     1      -8.807  -1.843   4.464  0.00  0.00    +0.041 A 
ATOM     19  C   UNL     1      -7.730  -2.689   4.264  0.00  0.00    +0.159 A 
ATOM     20  C   UNL     1      -7.228  -2.879   2.986  0.00  0.00    +0.164 A 
ATOM     21  F   UNL     1      -6.180  -3.708   2.787  0.00  0.00    -0.202 F 
ATOM     22  F   UNL     1      -7.172  -3.332   5.313  0.00  0.00    -0.202 F 
ENDBRANCH  13  15
BRANCH   1  28
ATOM     23  C   UNL     1      -1.442  -1.644  -0.788  0.00  0.00    +0.083 A 
ATOM     24  C   UNL     1      -0.207  -2.295  -0.859  0.00  0.00    +0.055 A 
ATOM     25  C   UNL     1       0.005  -3.450  -0.134  0.00  0.00    +0.124 A 
ATOM     26  C   UNL     1      -1.004  -3.969   0.665  0.00  0.00    +0.040 A 
ATOM     27  C   UNL     1      -2.228  -3.337   0.744  0.00  0.00    +0.027 A 
ATOM     28  C   UNL     1      -2.457  -2.171   0.026  0.00  0.00    +0.049 A 
ATOM     29  F   UNL     1       1.199  -4.078  -0.203  0.00  0.00    -0.205 F 
BRANCH  23  30
ATOM     30  C   UNL     1      -1.675  -0.410  -1.558  0.00  0.00    +0.341 C 
ATOM     31  O   UNL     1      -2.781   0.093  -1.580  0.00  0.00    -0.245 OA
BRANCH  30  33
ATOM     32  C   UNL     1      -0.959   1.356  -2.963  0.00  0.00    +0.280 C 
ATOM     33  O   UNL     1      -0.661   0.161  -2.238  0.00  0.00    -0.464 OA
ENDBRANCH  30  33
ENDBRANCH  23  30
ENDBRANCH   1  28
TORSDOF 4
