REMARK  Name = ZINC34906320
REMARK  11 active torsions:
REMARK  status: ('A' for Active; 'I' for Inactive)
REMARK    1  A    between atoms: C_1  and  C_2
REMARK    2  A    between atoms: C_2  and  C_3
REMARK    3  A    between atoms: C_2  and  C_4
REMARK    4  A    between atoms: C_7  and  O_10
REMARK    5  A    between atoms: O_10  and  C_11
REMARK    6  A    between atoms: C_11  and  C_12
REMARK    7  A    between atoms: C_14  and  C_17
REMARK    8  A    between atoms: N_19  and  C_20
REMARK    9  A    between atoms: C_26  and  N_28
REMARK   10  A    between atoms: N_31  and  C_32
REMARK   11  A    between atoms: C_35  and  C_38
REMARK                            x       y       z     vdW  Elec       q    Type
REMARK                         _______ _______ _______ _____ _____    ______ ____
ROOT
ATOM      1  C   UNL     1       4.152  -2.404   9.976  0.00  0.00    +0.263 C 
ATOM      2  O   UNL     1       4.925  -2.910  10.767  0.00  0.00    -0.269 OA
ATOM      3  N   UNL     1       3.510  -1.263  10.298  0.00  0.00    -0.305 N 
ATOM      4  H   UNL     1       2.894  -0.859   9.668  0.00  0.00    +0.149 HD
ENDROOT
BRANCH   3   5
ATOM      5  C   UNL     1       3.743  -0.634  11.601  0.00  0.00    +0.093 C 
ATOM      6  C   UNL     1       2.827  -1.272  12.646  0.00  0.00    +0.024 C 
ATOM      7  C   UNL     1       1.366  -1.071  12.236  0.00  0.00    +0.002 C 
ATOM      8  C   UNL     1       1.066   0.427  12.140  0.00  0.00    +0.002 C 
ATOM      9  C   UNL     1       1.982   1.065  11.095  0.00  0.00    +0.024 C 
ATOM     10  C   UNL     1       3.442   0.863  11.505  0.00  0.00    +0.095 C 
BRANCH  10  11
ATOM     11  N   UNL     1       4.319   1.474  10.503  0.00  0.00    -0.295 N 
ATOM     12  C   UNL     1       4.615   2.787  10.577  0.00  0.00    +0.304 C 
ATOM     13  O   UNL     1       4.153   3.464  11.475  0.00  0.00    -0.253 OA
ATOM     14  N   UNL     1       5.422   3.349   9.656  0.00  0.00    -0.269 N 
ATOM     15  H   UNL     1       4.688   0.934   9.787  0.00  0.00    +0.151 HD
ATOM     16  H   UNL     1       5.844   2.797   8.979  0.00  0.00    +0.156 HD
BRANCH  14  17
ATOM     17  C   UNL     1       5.651   4.726   9.676  0.00  0.00    +0.035 A 
ATOM     18  C   UNL     1       5.727   5.399  10.891  0.00  0.00    +0.024 A 
ATOM     19  C   UNL     1       5.953   6.757  10.914  0.00  0.00    +0.020 A 
ATOM     20  C   UNL     1       6.106   7.459   9.715  0.00  0.00    +0.052 A 
ATOM     21  C   UNL     1       6.030   6.779   8.496  0.00  0.00    +0.020 A 
ATOM     22  C   UNL     1       5.809   5.420   8.481  0.00  0.00    +0.024 A 
BRANCH  20  23
ATOM     23  C   UNL     1       6.341   8.872   9.736  0.00  0.00    +0.099 C 
ATOM     24  N   UNL     1       6.527   9.992   9.752  0.00  0.00    -0.191 NA
ENDBRANCH  20  23
ENDBRANCH  14  17
ENDBRANCH  10  11
ENDBRANCH   3   5
BRANCH   1  27
ATOM     25  C   UNL     1       2.924  -3.132   6.630  0.00  0.00    +0.116 A 
ATOM     26  N   UNL     1       3.078  -2.513   7.769  0.00  0.00    -0.236 NA
ATOM     27  C   UNL     1       3.918  -3.036   8.667  0.00  0.00    +0.133 A 
ATOM     28  C   UNL     1       4.548  -4.195   8.299  0.00  0.00    +0.080 A 
ATOM     29  S   UNL     1       3.931  -4.468   6.761  0.00  0.00    -0.076 S 
BRANCH  25  30
ATOM     30  C   UNL     1       2.042  -2.742   5.472  0.00  0.00    +0.291 C 
BRANCH  30  31
ATOM     31  O   UNL     1       2.776  -1.906   4.575  0.00  0.00    -0.485 OA
BRANCH  31  35
ATOM     32  C   UNL     1       0.791  -0.563   1.217  0.00  0.00    -0.045 A 
ATOM     33  C   UNL     1       2.107  -0.200   1.432  0.00  0.00    +0.007 A 
ATOM     34  C   UNL     1       2.775  -0.648   2.555  0.00  0.00    +0.046 A 
ATOM     35  C   UNL     1       2.122  -1.464   3.469  0.00  0.00    +0.121 A 
ATOM     36  C   UNL     1       0.801  -1.826   3.252  0.00  0.00    +0.046 A 
ATOM     37  C   UNL     1       0.137  -1.371   2.129  0.00  0.00    +0.007 A 
BRANCH  32  39
ATOM     38  C   UNL     1       0.038   1.457  -0.008  0.00  0.00    +0.012 C 
ATOM     39  C   UNL     1       0.066  -0.073  -0.009  0.00  0.00    +0.013 C 
ATOM     40  C   UNL     1       0.790  -0.569  -1.262  0.00  0.00    +0.012 C 
ENDBRANCH  32  39
ENDBRANCH  31  35
ENDBRANCH  30  31
ENDBRANCH  25  30
ENDBRANCH   1  27
TORSDOF 9
