REMARK  Name = ZINC32104846
REMARK  2 active torsions:
REMARK  status: ('A' for Active; 'I' for Inactive)
REMARK    1  A    between atoms: C_6  and  C_7
REMARK    2  A    between atoms: C_7  and  N_8
REMARK                            x       y       z     vdW  Elec       q    Type
REMARK                         _______ _______ _______ _____ _____    ______ ____
ROOT
ATOM      1  N   UNL     1      -1.726  -1.017  -1.368  0.00  0.00    -0.246 N 
ATOM      2  C   UNL     1      -2.509  -0.215  -2.102  0.00  0.00    +0.128 A 
ATOM      3  C   UNL     1      -2.664  -0.798  -3.334  0.00  0.00    +0.032 A 
ATOM      4  C   UNL     1      -1.959  -1.992  -3.332  0.00  0.00    +0.141 A 
ATOM      5  N   UNL     1      -1.390  -2.129  -2.157  0.00  0.00    -0.177 NA
ATOM      6  C   UNL     1      -3.473  -0.154  -4.425  0.00  0.00    +0.111 C 
ATOM      7  C   UNL     1      -4.557   0.721  -3.800  0.00  0.00    +0.122 C 
ATOM      8  C   UNL     1      -4.013   1.517  -2.646  0.00  0.00    +0.220 C 
ATOM      9  O   UNL     1      -4.408   2.652  -2.477  0.00  0.00    -0.275 OA
ATOM     10  N   UNL     1      -3.100   1.009  -1.791  0.00  0.00    -0.270 N 
ATOM     11  C   UNL     1      -2.604   0.639  -5.348  0.00  0.00    -0.005 A 
ATOM     12  C   UNL     1      -1.787   1.727  -5.126  0.00  0.00    +0.026 A 
ATOM     13  C   UNL     1      -1.101   2.236  -6.225  0.00  0.00    +0.041 A 
ATOM     14  C   UNL     1      -1.235   1.673  -7.479  0.00  0.00    +0.022 A 
ATOM     15  C   UNL     1      -2.055   0.579  -7.709  0.00  0.00    +0.025 A 
ATOM     16  C   UNL     1      -2.748   0.059  -6.615  0.00  0.00    +0.038 A 
ATOM     17  N   UNL     1      -3.623  -1.012  -6.557  0.00  0.00    -0.284 N 
ATOM     18  C   UNL     1      -4.098  -1.210  -5.309  0.00  0.00    +0.233 C 
ATOM     19  O   UNL     1      -4.877  -2.072  -4.962  0.00  0.00    -0.274 OA
ATOM     20 CL   UNL     1      -0.056   3.606  -6.015  0.00  0.00    -0.084 Cl
ATOM     21  H   UNL     1      -2.862   1.485  -0.980  0.00  0.00    +0.156 HD
ATOM     22  H   UNL     1      -3.865  -1.556  -7.322  0.00  0.00    +0.155 HD
ENDROOT
BRANCH   1  23
ATOM     23  C   UNL     1      -1.293  -0.775   0.011  0.00  0.00    +0.180 C 
BRANCH  23  29
ATOM     24  C   UNL     1      -0.017   1.378   0.010  0.00  0.00    +0.007 A 
ATOM     25  C   UNL     1       1.171   2.086   0.002  0.00  0.00    +0.020 A 
ATOM     26  C   UNL     1       2.378   1.410  -0.013  0.00  0.00    +0.041 A 
ATOM     27  C   UNL     1       2.396   0.027  -0.021  0.00  0.00    +0.020 A 
ATOM     28  C   UNL     1       1.208  -0.679  -0.013  0.00  0.00    +0.007 A 
ATOM     29  C   UNL     1       0.002  -0.004   0.002  0.00  0.00    -0.026 A 
ATOM     30 CL   UNL     1       3.870   2.298  -0.023  0.00  0.00    -0.084 Cl
ENDBRANCH  23  29
ENDBRANCH   1  23
TORSDOF 2
