REMARK  Name = ZINC39710387
REMARK  10 active torsions:
REMARK  status: ('A' for Active; 'I' for Inactive)
REMARK    1  A    between atoms: C_1  and  C_2
REMARK    2  A    between atoms: C_2  and  C_3
REMARK    3  A    between atoms: C_10  and  C_15
REMARK    4  A    between atoms: C_15  and  C_17
REMARK    5  A    between atoms: C_15  and  N_27
REMARK    6  A    between atoms: N_22  and  C_23
REMARK    7  A    between atoms: C_23  and  C_24
REMARK    8  A    between atoms: C_23  and  C_25
REMARK    9  A    between atoms: C_23  and  C_26
REMARK   10  A    between atoms: C_33  and  C_35
REMARK                            x       y       z     vdW  Elec       q    Type
REMARK                         _______ _______ _______ _____ _____    ______ ____
ROOT
ATOM      1  C   UNL     1       5.154  -1.097  -3.988  0.00  0.00    -0.009 C 
ENDROOT
BRANCH   1   9
ATOM      2  C   UNL     1       0.515  -0.833  -0.457  0.00  0.00    -0.047 A 
ATOM      3  C   UNL     1      -0.333  -1.309  -1.457  0.00  0.00    +0.005 A 
ATOM      4  C   UNL     1       0.129  -1.849  -2.615  0.00  0.00    +0.024 A 
ATOM      5  C   UNL     1       1.512  -1.952  -2.853  0.00  0.00    +0.040 A 
ATOM      6  N   UNL     1       1.954  -2.484  -3.993  0.00  0.00    -0.285 N 
ATOM      7  C   UNL     1       3.239  -2.611  -4.280  0.00  0.00    +0.223 C 
ATOM      8  O   UNL     1       3.582  -3.105  -5.337  0.00  0.00    -0.275 OA
ATOM      9  C   UNL     1       4.279  -2.139  -3.289  0.00  0.00    +0.088 C 
ATOM     10  C   UNL     1       3.781  -1.533  -1.991  0.00  0.00    -0.006 C 
ATOM     11  C   UNL     1       2.432  -1.458  -1.814  0.00  0.00    -0.007 A 
ATOM     12  C   UNL     1       1.866  -0.882  -0.593  0.00  0.00    +0.013 A 
ATOM     13  H   UNL     1       1.303  -2.793  -4.642  0.00  0.00    +0.155 HD
BRANCH   2  15
ATOM     14  C   UNL     1      -0.295   1.256   0.606  0.00  0.00    +0.009 C 
ATOM     15  C   UNL     1      -0.079  -0.247   0.797  0.00  0.00    +0.032 C 
ENDBRANCH   2  15
ENDBRANCH   1   9
BRANCH   1  16
ATOM     16  N   UNL     1       5.816  -1.711  -5.146  0.00  0.00    +0.387 N 
ATOM     17  C   UNL     1       6.464  -2.962  -4.732  0.00  0.00    -0.059 C 
ATOM     18  C   UNL     1       7.057  -3.660  -5.960  0.00  0.00    +0.089 C 
ATOM     19  N   UNL     1       7.947  -2.715  -6.650  0.00  0.00    -0.299 N 
ATOM     20  C   UNL     1       7.429  -1.373  -6.960  0.00  0.00    +0.089 C 
ATOM     21  C   UNL     1       6.819  -0.782  -5.684  0.00  0.00    -0.059 C 
ATOM     22  C   UNL     1       9.203  -3.067  -6.989  0.00  0.00    +0.282 C 
ATOM     23  O   UNL     1       9.581  -4.212  -6.819  0.00  0.00    -0.267 OA
ATOM     24  H   UNL     1       5.129  -1.911  -5.858  0.00  0.00    -0.081 HD
BRANCH  22  25
ATOM     25  C   UNL     1      10.115  -2.071  -7.562  0.00  0.00    +0.189 A 
ATOM     26  C   UNL     1      11.361  -2.319  -8.063  0.00  0.00    +0.054 A 
ATOM     27  C   UNL     1      11.871  -1.087  -8.503  0.00  0.00    +0.042 A 
ATOM     28  C   UNL     1      10.926  -0.154  -8.255  0.00  0.00    +0.196 A 
ATOM     29  O   UNL     1       9.867  -0.752  -7.692  0.00  0.00    -0.458 OA
ENDBRANCH  22  25
ENDBRANCH   1  16
BRANCH   1  30
ATOM     30  C   UNL     1       4.282   0.069  -4.457  0.00  0.00    +0.205 C 
ATOM     31  N   UNL     1       3.473  -0.330  -5.617  0.00  0.00    -0.152 NA
ATOM     32  N   UNL     1       3.774   0.381  -6.577  0.00  0.00    -0.070 NA
ATOM     33  N   UNL     1       4.762   1.317  -6.271  0.00  0.00    -0.179 N 
ATOM     34  N   UNL     1       5.126   1.177  -4.955  0.00  0.00    -0.183 NA
ATOM     35  H   UNL     1       5.134   1.964  -6.891  0.00  0.00    +0.191 HD
BRANCH  34  36
ATOM     36  C   UNL     1       4.871   2.412  -4.202  0.00  0.00    +0.035 C 
ATOM     37  C   UNL     1       5.121   2.163  -2.713  0.00  0.00    +0.029 C 
ATOM     38  C   UNL     1       5.807   3.515  -4.699  0.00  0.00    +0.029 C 
ATOM     39  C   UNL     1       3.418   2.845  -4.409  0.00  0.00    +0.029 C 
ENDBRANCH  34  36
ENDBRANCH   1  30
TORSDOF 6
