REMARK  Name = ZINC63228980
REMARK  10 active torsions:
REMARK  status: ('A' for Active; 'I' for Inactive)
REMARK    1  A    between atoms: C_1  and  C_2
REMARK    2  A    between atoms: C_2  and  C_3
REMARK    3  A    between atoms: C_3  and  C_5
REMARK    4  A    between atoms: C_3  and  C_6
REMARK    5  A    between atoms: N_15  and  C_16
REMARK    6  A    between atoms: C_16  and  C_17
REMARK    7  A    between atoms: C_23  and  C_25
REMARK    8  A    between atoms: C_25  and  C_26
REMARK    9  A    between atoms: C_26  and  C_27
REMARK   10  A    between atoms: C_27  and  C_28
REMARK                            x       y       z     vdW  Elec       q    Type
REMARK                         _______ _______ _______ _____ _____    ______ ____
ROOT
ATOM      1  C   UNL     1      -1.948  -2.515   1.008  0.00  0.00    -0.043 A 
ATOM      2  C   UNL     1      -1.232  -3.410   1.789  0.00  0.00    +0.006 A 
ATOM      3  C   UNL     1      -1.100  -4.726   1.433  0.00  0.00    +0.029 A 
ATOM      4  C   UNL     1      -1.695  -5.217   0.247  0.00  0.00    +0.080 A 
ATOM      5  C   UNL     1      -2.417  -4.277  -0.523  0.00  0.00    +0.041 A 
ATOM      6  C   UNL     1      -2.549  -2.962  -0.155  0.00  0.00    +0.021 A 
ATOM      7  S   UNL     1      -2.989  -5.265  -1.885  0.00  0.00    -0.052 S 
ATOM      8  C   UNL     1      -2.259  -6.811  -1.363  0.00  0.00    +0.168 A 
ATOM      9  N   UNL     1      -1.662  -6.474  -0.244  0.00  0.00    -0.224 NA
ATOM     10  N   UNL     1      -2.309  -8.049  -1.984  0.00  0.00    -0.246 N 
ATOM     11  C   UNL     1      -2.980  -8.194  -3.143  0.00  0.00    +0.222 C 
ATOM     12  O   UNL     1      -3.461  -7.226  -3.692  0.00  0.00    -0.275 OA
ENDROOT
BRANCH   1  13
ATOM     13  C   UNL     1      -2.077  -1.073   1.425  0.00  0.00    +0.016 C 
ATOM     14  C   UNL     1      -2.757  -0.996   2.793  0.00  0.00    +0.012 C 
BRANCH  13  16
ATOM     15  C   UNL     1      -0.822   1.053   1.812  0.00  0.00    +0.004 C 
ATOM     16  C   UNL     1      -0.686  -0.441   1.511  0.00  0.00    +0.004 C 
ENDBRANCH  13  16
ENDBRANCH   1  13
BRANCH  10  17
ATOM     17  C   UNL     1      -1.633  -9.199  -1.379  0.00  0.00    +0.150 C 
BRANCH  17  18
ATOM     18  C   UNL     1      -2.532  -9.823  -0.344  0.00  0.00    -0.030 A 
ATOM     19  C   UNL     1      -2.576  -9.305   0.937  0.00  0.00    +0.005 A 
ATOM     20  C   UNL     1      -3.401  -9.877   1.887  0.00  0.00    +0.000 A 
ATOM     21  C   UNL     1      -4.183 -10.968   1.556  0.00  0.00    +0.000 A 
ATOM     22  C   UNL     1      -4.140 -11.486   0.275  0.00  0.00    +0.000 A 
ATOM     23  C   UNL     1      -3.318 -10.911  -0.676  0.00  0.00    +0.005 A 
ENDBRANCH  17  18
ENDBRANCH  10  17
BRANCH  11  24
ATOM     24  C   UNL     1      -3.133  -9.562  -3.758  0.00  0.00    +0.097 C 
BRANCH  24  25
ATOM     25  C   UNL     1      -4.016  -9.465  -5.004  0.00  0.00    +0.014 C 
BRANCH  25  26
ATOM     26  C   UNL     1      -4.171 -10.853  -5.629  0.00  0.00    +0.033 C 
BRANCH  26  27
ATOM     27  C   UNL     1      -5.040 -10.757  -6.856  0.00  0.00    -0.042 C 
ATOM     28  C   UNL     1      -4.627 -10.629  -8.137  0.00  0.00    -0.001 A 
ATOM     29  C   UNL     1      -3.296 -10.543  -8.749  0.00  0.00    +0.010 A 
ATOM     30  C   UNL     1      -3.197 -10.415 -10.092  0.00  0.00    +0.001 A 
ATOM     31  C   UNL     1      -4.333 -10.363 -10.912  0.00  0.00    +0.002 A 
ATOM     32  C   UNL     1      -5.589 -10.436 -10.424  0.00  0.00    +0.026 A 
ATOM     33  C   UNL     1      -5.810 -10.572  -9.026  0.00  0.00    +0.043 A 
ATOM     34  N   UNL     1      -6.912 -10.661  -8.321  0.00  0.00    -0.380 N 
ATOM     35  C   UNL     1      -6.552 -10.791  -6.904  0.00  0.00    +0.144 C 
ATOM     36  H   UNL     1      -7.814 -10.648  -8.676  0.00  0.00    +0.160 HD
ENDBRANCH  26  27
ENDBRANCH  25  26
ENDBRANCH  24  25
ENDBRANCH  11  24
TORSDOF 8
