REMARK  Name = ZINC32689159
REMARK  9 active torsions:
REMARK  status: ('A' for Active; 'I' for Inactive)
REMARK    1  A    between atoms: C_1  and  N_2
REMARK    2  A    between atoms: N_2  and  C_3
REMARK    3  A    between atoms: C_5  and  C_10
REMARK    4  A    between atoms: C_10  and  N_11
REMARK    5  A    between atoms: C_12  and  C_14
REMARK    6  A    between atoms: C_14  and  S_15
REMARK    7  A    between atoms: S_15  and  C_16
REMARK    8  A    between atoms: C_19  and  C_27
REMARK    9  A    between atoms: N_20  and  C_21
REMARK                            x       y       z     vdW  Elec       q    Type
REMARK                         _______ _______ _______ _____ _____    ______ ____
ROOT
ATOM      1  S   UNL     1      -3.469  -4.501   3.669  0.00  0.00    -0.076 S 
ENDROOT
BRANCH   1   2
ATOM      2  C   UNL     1      -5.189  -4.476   4.053  0.00  0.00    +0.197 A 
ATOM      3  N   UNL     1      -6.139  -3.914   3.339  0.00  0.00    -0.122 NA
ATOM      4  N   UNL     1      -7.279  -4.083   3.908  0.00  0.00    -0.128 NA
ATOM      5  C   UNL     1      -7.129  -4.764   5.020  0.00  0.00    +0.169 A 
ATOM      6  N   UNL     1      -5.785  -5.042   5.146  0.00  0.00    -0.270 N 
BRANCH   6   7
ATOM      7  C   UNL     1      -5.160  -5.754   6.179  0.00  0.00    +0.051 A 
ATOM      8  C   UNL     1      -5.432  -7.103   6.358  0.00  0.00    +0.026 A 
ATOM      9  C   UNL     1      -4.815  -7.802   7.377  0.00  0.00    +0.002 A 
ATOM     10  C   UNL     1      -3.926  -7.158   8.218  0.00  0.00    +0.000 A 
ATOM     11  C   UNL     1      -3.653  -5.814   8.043  0.00  0.00    +0.002 A 
ATOM     12  C   UNL     1      -4.263  -5.112   7.022  0.00  0.00    +0.026 A 
ENDBRANCH   6   7
BRANCH   5  13
ATOM     13  C   UNL     1      -8.200  -5.161   5.958  0.00  0.00    +0.020 A 
ATOM     14  C   UNL     1      -7.879  -5.596   7.245  0.00  0.00    +0.011 A 
ATOM     15  C   UNL     1      -8.883  -5.965   8.116  0.00  0.00    +0.001 A 
ATOM     16  C   UNL     1     -10.207  -5.904   7.716  0.00  0.00    +0.000 A 
ATOM     17  C   UNL     1     -10.532  -5.474   6.442  0.00  0.00    +0.001 A 
ATOM     18  C   UNL     1      -9.537  -5.096   5.564  0.00  0.00    +0.011 A 
ENDBRANCH   5  13
ENDBRANCH   1   2
BRANCH   1  19
ATOM     19  C   UNL     1      -3.354  -3.584   2.109  0.00  0.00    +0.173 C 
BRANCH  19  21
ATOM     20  N   UNL     1      -1.587  -2.894   0.520  0.00  0.00    -0.310 N 
ATOM     21  C   UNL     1      -1.915  -3.530   1.663  0.00  0.00    +0.224 C 
ATOM     22  O   UNL     1      -1.053  -4.059   2.332  0.00  0.00    -0.275 OA
ATOM     23  H   UNL     1      -2.277  -2.471  -0.015  0.00  0.00    +0.149 HD
BRANCH  20  24
ATOM     24  C   UNL     1      -0.189  -2.842   0.087  0.00  0.00    +0.143 C 
BRANCH  24  29
ATOM     25  C   UNL     1      -1.567   0.417   0.462  0.00  0.00    +0.130 C 
ATOM     26  N   UNL     1      -0.246   0.001  -0.013  0.00  0.00    -0.323 N 
ATOM     27  C   UNL     1       0.949   0.311   0.777  0.00  0.00    +0.130 C 
ATOM     28  C   UNL     1      -0.125  -0.689  -1.214  0.00  0.00    +0.103 A 
ATOM     29  C   UNL     1      -0.093  -2.080  -1.210  0.00  0.00    +0.008 A 
ATOM     30  C   UNL     1       0.027  -2.753  -2.412  0.00  0.00    +0.010 A 
ATOM     31  C   UNL     1       0.113  -2.010  -3.582  0.00  0.00    +0.018 A 
ATOM     32  C   UNL     1       0.075  -0.632  -3.513  0.00  0.00    +0.084 A 
ATOM     33  N   UNL     1      -0.046  -0.016  -2.352  0.00  0.00    -0.349 N 
ATOM     34  H   UNL     1      -0.073   0.953  -2.331  0.00  0.00    +0.167 HD
ENDBRANCH  24  29
ENDBRANCH  20  24
ENDBRANCH  19  21
ENDBRANCH   1  19
TORSDOF 7
