REMARK  Name = ZINC63614877
REMARK  5 active torsions:
REMARK  status: ('A' for Active; 'I' for Inactive)
REMARK    1  A    between atoms: C_1  and  C_2
REMARK    2  A    between atoms: C_5  and  C_9
REMARK    3  A    between atoms: C_7  and  C_8
REMARK    4  A    between atoms: N_16  and  C_17
REMARK    5  A    between atoms: C_17  and  C_18
REMARK                            x       y       z     vdW  Elec       q    Type
REMARK                         _______ _______ _______ _____ _____    ______ ____
ROOT
ATOM      1  C   UNL     1       0.059  -4.275  -0.021  0.00  0.00    +0.108 C 
ATOM      2  C   UNL     1      -1.361  -4.817  -0.287  0.00  0.00    +0.029 C 
ATOM      3  C   UNL     1      -1.100  -6.042  -1.203  0.00  0.00    +0.021 C 
ATOM      4  C   UNL     1       0.102  -5.548  -2.047  0.00  0.00    +0.110 C 
ATOM      5  N   UNL     1       0.921  -4.758  -1.110  0.00  0.00    -0.279 N 
ATOM      6  C   UNL     1       2.242  -4.518  -1.232  0.00  0.00    +0.303 C 
ATOM      7  O   UNL     1       2.818  -3.850  -0.396  0.00  0.00    -0.253 OA
ATOM      8  N   UNL     1       2.924  -5.019  -2.281  0.00  0.00    -0.295 N 
ATOM      9  H   UNL     1       2.465  -5.552  -2.948  0.00  0.00    +0.151 HD
ENDROOT
BRANCH   1  14
ATOM     10  C   UNL     1      -0.018   1.503   0.010  0.00  0.00    +0.044 C 
ATOM     11  C   UNL     1       0.002  -0.004   0.002  0.00  0.00    -0.048 A 
ATOM     12  C   UNL     1       0.006  -0.689  -1.199  0.00  0.00    +0.004 A 
ATOM     13  C   UNL     1       0.025  -2.071  -1.207  0.00  0.00    +0.006 A 
ATOM     14  C   UNL     1       0.040  -2.768  -0.013  0.00  0.00    -0.027 A 
ATOM     15  C   UNL     1       0.037  -2.084   1.188  0.00  0.00    +0.009 A 
ATOM     16  C   UNL     1       0.023  -0.702   1.195  0.00  0.00    -0.047 A 
ATOM     17  C   UNL     1       0.025   0.045   2.504  0.00  0.00    +0.044 C 
ENDBRANCH   1  14
BRANCH   8  18
ATOM     18  C   UNL     1       4.360  -4.758  -2.413  0.00  0.00    +0.142 C 
BRANCH  18  19
ATOM     19  C   UNL     1       4.878  -5.425  -3.661  0.00  0.00    -0.014 A 
ATOM     20  C   UNL     1       5.353  -6.729  -3.615  0.00  0.00    +0.010 A 
ATOM     21  C   UNL     1       5.820  -7.303  -4.783  0.00  0.00    +0.042 A 
ATOM     22  C   UNL     1       5.799  -6.560  -5.958  0.00  0.00    +0.099 A 
ATOM     23  N   UNL     1       5.339  -5.318  -5.962  0.00  0.00    -0.349 N 
ATOM     24  C   UNL     1       4.881  -4.747  -4.864  0.00  0.00    +0.089 A 
ATOM     25  N   UNL     1       6.266  -7.125  -7.139  0.00  0.00    -0.317 N 
ATOM     26  C   UNL     1       6.798  -8.487  -7.286  0.00  0.00    +0.106 C 
ATOM     27  C   UNL     1       7.215  -8.661  -8.761  0.00  0.00    +0.020 C 
ATOM     28  C   UNL     1       7.420  -7.198  -9.238  0.00  0.00    +0.020 C 
ATOM     29  C   UNL     1       6.304  -6.458  -8.454  0.00  0.00    +0.106 C 
ATOM     30  H   UNL     1       5.334  -4.818  -6.793  0.00  0.00    +0.167 HD
ENDBRANCH  18  19
ENDBRANCH   8  18
TORSDOF 3
