REMARK  Name = ZINC12850170
REMARK  8 active torsions:
REMARK  status: ('A' for Active; 'I' for Inactive)
REMARK    1  A    between atoms: C_1  and  C_2
REMARK    2  A    between atoms: C_2  and  C_4
REMARK    3  A    between atoms: C_2  and  S_20
REMARK    4  A    between atoms: N_9  and  C_10
REMARK    5  A    between atoms: S_20  and  C_21
REMARK    6  A    between atoms: N_26  and  C_27
REMARK    7  A    between atoms: C_27  and  C_28
REMARK    8  A    between atoms: C_27  and  C_29
REMARK                            x       y       z     vdW  Elec       q    Type
REMARK                         _______ _______ _______ _____ _____    ______ ____
ROOT
ATOM      1  C   UNL     1       0.731  -0.503   1.223  0.00  0.00    +0.233 C 
ATOM      2  O   UNL     1       1.911  -0.775   1.156  0.00  0.00    -0.274 OA
ATOM      3  N   UNL     1       0.071  -0.647   2.389  0.00  0.00    -0.239 N 
ATOM      4  C   UNL     1       0.723  -1.094   3.481  0.00  0.00    +0.306 C 
ATOM      5  O   UNL     1       1.906  -1.367   3.414  0.00  0.00    -0.252 OA
ATOM      6  N   UNL     1       0.064  -1.238   4.648  0.00  0.00    -0.294 N 
ATOM      7  H   UNL     1      -0.872  -0.430   2.443  0.00  0.00    +0.159 HD
ATOM      8  H   UNL     1      -0.880  -1.020   4.702  0.00  0.00    +0.151 HD
ENDROOT
BRANCH   6   9
ATOM      9  C   UNL     1       0.772  -1.723   5.835  0.00  0.00    +0.037 C 
ATOM     10  C   UNL     1       1.917  -0.765   6.173  0.00  0.00    +0.029 C 
ATOM     11  C   UNL     1       2.657  -1.272   7.412  0.00  0.00    -0.008 C 
ATOM     12  C   UNL     1       1.686  -1.343   8.592  0.00  0.00    +0.007 C 
ATOM     13  C   UNL     1       0.541  -2.301   8.255  0.00  0.00    -0.008 C 
ATOM     14  C   UNL     1      -0.199  -1.794   7.015  0.00  0.00    +0.029 C 
ATOM     15  C   UNL     1       1.108  -3.695   7.976  0.00  0.00    +0.007 C 
ATOM     16  C   UNL     1       2.079  -3.624   6.796  0.00  0.00    -0.008 C 
ATOM     17  C   UNL     1       3.224  -2.666   7.134  0.00  0.00    +0.007 C 
ATOM     18  C   UNL     1       1.339  -3.117   5.556  0.00  0.00    +0.029 C 
ENDBRANCH   6   9
BRANCH   1  20
ATOM     19  C   UNL     1      -0.019   1.526   0.010  0.00  0.00    +0.029 C 
ATOM     20  C   UNL     1       0.002  -0.004   0.002  0.00  0.00    +0.136 C 
BRANCH  20  21
ATOM     21  S   UNL     1       0.851  -0.589  -1.490  0.00  0.00    -0.084 S 
BRANCH  21  22
ATOM     22  C   UNL     1      -0.189  -0.057  -2.809  0.00  0.00    +0.161 A 
ATOM     23  N   UNL     1      -1.322   0.617  -2.760  0.00  0.00    -0.133 NA
ATOM     24  N   UNL     1      -1.981   0.934  -3.926  0.00  0.00    -0.125 NA
ATOM     25  C   UNL     1      -1.477   0.562  -5.086  0.00  0.00    +0.183 A 
ATOM     26  S   UNL     1       0.012  -0.278  -4.570  0.00  0.00    -0.025 S 
ATOM     27  N   UNL     1      -1.970   0.773  -6.369  0.00  0.00    -0.320 N 
ATOM     28  H   UNL     1      -1.483   0.437  -7.137  0.00  0.00    +0.148 HD
BRANCH  27  29
ATOM     29  C   UNL     1      -3.225   1.505  -6.560  0.00  0.00    +0.066 C 
ATOM     30  C   UNL     1      -2.941   3.008  -6.580  0.00  0.00    +0.027 C 
ATOM     31  C   UNL     1      -3.861   1.088  -7.888  0.00  0.00    +0.027 C 
ENDBRANCH  27  29
ENDBRANCH  21  22
ENDBRANCH  20  21
ENDBRANCH   1  20
TORSDOF 5
