REMARK  Name = ZINC00969959
REMARK  10 active torsions:
REMARK  status: ('A' for Active; 'I' for Inactive)
REMARK    1  A    between atoms: C_1  and  C_2
REMARK    2  A    between atoms: C_3  and  C_29
REMARK    3  A    between atoms: C_4  and  C_20
REMARK    4  A    between atoms: C_10  and  C_15
REMARK    5  A    between atoms: C_24  and  N_26
REMARK    6  A    between atoms: C_29  and  O_31
REMARK    7  A    between atoms: O_31  and  C_32
REMARK    8  A    between atoms: C_32  and  C_33
REMARK    9  A    between atoms: C_33  and  C_34
REMARK   10  A    between atoms: C_33  and  C_35
REMARK                            x       y       z     vdW  Elec       q    Type
REMARK                         _______ _______ _______ _____ _____    ______ ____
ROOT
ATOM      1  C   UNL     1      -2.698   6.761  -2.430  0.00  0.00    +0.061 C 
ATOM      2  C   UNL     1      -2.030   6.286  -1.166  0.00  0.00    +0.016 C 
ATOM      3  C   UNL     1      -0.764   5.836  -1.208  0.00  0.00    +0.065 C 
ATOM      4  C   UNL     1      -0.070   5.347   0.030  0.00  0.00    +0.092 C 
ATOM      5  C   UNL     1      -0.778   5.827   1.272  0.00  0.00    +0.024 C 
ATOM      6  C   UNL     1      -2.047   6.282   1.211  0.00  0.00    +0.016 C 
ATOM      7  N   UNL     1      -2.716   6.316   0.017  0.00  0.00    -0.321 N 
ATOM      8  C   UNL     1      -2.760   6.766   2.449  0.00  0.00    +0.060 C 
ATOM      9  C   UNL     1      -2.241   6.006   3.672  0.00  0.00    +0.039 C 
ATOM     10  C   UNL     1      -0.728   6.227   3.776  0.00  0.00    +0.088 C 
ATOM     11  C   UNL     1      -0.080   5.784   2.492  0.00  0.00    +0.162 C 
ATOM     12  O   UNL     1       1.067   5.383   2.510  0.00  0.00    -0.292 OA
ATOM     13  H   UNL     1      -3.814   6.369   0.015  0.00  0.00    +0.152 HD
ENDROOT
BRANCH   4  14
ATOM     14  C   UNL     1      -0.050   3.840   0.022  0.00  0.00    -0.033 A 
ATOM     15  C   UNL     1      -1.238   3.133   0.030  0.00  0.00    +0.005 A 
ATOM     16  C   UNL     1      -1.219   1.751   0.017  0.00  0.00    +0.003 A 
ATOM     17  C   UNL     1      -0.013   1.076   0.008  0.00  0.00    +0.033 A 
ATOM     18  C   UNL     1       1.175   1.783   0.000  0.00  0.00    +0.126 A 
ATOM     19  C   UNL     1       1.156   3.166   0.008  0.00  0.00    +0.037 A 
BRANCH  18  20
ATOM     20  N   UNL     1       2.467   1.060  -0.016  0.00  0.00    +0.056 N 
ATOM     21  O   UNL     1       2.483  -0.157  -0.023  0.00  0.00    -0.126 OA
ATOM     22  O   UNL     1       3.513   1.684  -0.022  0.00  0.00    -0.126 OA
ENDBRANCH  18  20
ENDBRANCH   4  14
BRANCH   9  23
ATOM     23  C   UNL     1      -2.916   6.525   4.915  0.00  0.00    -0.006 A 
ATOM     24  C   UNL     1      -3.672   5.856   5.819  0.00  0.00    +0.011 A 
ATOM     25  C   UNL     1      -4.195   6.546   6.897  0.00  0.00    +0.008 A 
ATOM     26  C   UNL     1      -3.936   7.871   7.018  0.00  0.00    +0.045 A 
ATOM     27  S   UNL     1      -2.918   8.181   5.584  0.00  0.00    -0.101 S 
ENDBRANCH   9  23
BRANCH   3  28
ATOM     28  C   UNL     1      -0.073   5.823  -2.442  0.00  0.00    +0.338 C 
ATOM     29  O   UNL     1      -0.625   6.218  -3.452  0.00  0.00    -0.245 OA
BRANCH  28  30
ATOM     30  O   UNL     1       1.198   5.374  -2.498  0.00  0.00    -0.461 OA
BRANCH  30  31
ATOM     31  C   UNL     1       1.835   5.389  -3.777  0.00  0.00    +0.235 C 
BRANCH  31  32
ATOM     32  C   UNL     1       3.260   4.847  -3.644  0.00  0.00    +0.020 C 
ATOM     33  C   UNL     1       3.899   4.747  -5.030  0.00  0.00    +0.010 C 
ATOM     34  C   UNL     1       4.085   5.793  -2.769  0.00  0.00    +0.010 C 
ENDBRANCH  31  32
ENDBRANCH  30  31
ENDBRANCH  28  30
ENDBRANCH   3  28
TORSDOF 7
