REMARK  Name = ZINC14973428
REMARK  11 active torsions:
REMARK  status: ('A' for Active; 'I' for Inactive)
REMARK    1  A    between atoms: C_1  and  C_2
REMARK    2  A    between atoms: C_2  and  C_3
REMARK    3  A    between atoms: C_9  and  C_10
REMARK    4  A    between atoms: C_9  and  N_61
REMARK    5  A    between atoms: C_14  and  N_23
REMARK    6  A    between atoms: C_15  and  C_19
REMARK    7  A    between atoms: C_19  and  O_21
REMARK    8  A    between atoms: O_21  and  C_22
REMARK    9  A    between atoms: C_24  and  C_26
REMARK   10  A    between atoms: C_28  and  C_32
REMARK   11  A    between atoms: N_30  and  C_31
REMARK                            x       y       z     vdW  Elec       q    Type
REMARK                         _______ _______ _______ _____ _____    ______ ____
ROOT
ATOM      1  C   UNL     1      -5.193   1.146   0.049  0.00  0.00    +0.026 A 
ATOM      2  C   UNL     1      -5.581   0.075   0.841  0.00  0.00    +0.022 A 
ATOM      3  C   UNL     1      -6.495  -0.840   0.374  0.00  0.00    +0.014 A 
ATOM      4  C   UNL     1      -7.024  -0.677  -0.931  0.00  0.00    +0.030 A 
ATOM      5  C   UNL     1      -7.988  -1.512  -1.630  0.00  0.00    +0.064 A 
ATOM      6  C   UNL     1      -8.359  -1.153  -2.908  0.00  0.00    +0.120 A 
ATOM      7  S   UNL     1      -7.416   0.329  -3.210  0.00  0.00    -0.060 S 
ATOM      8  C   UNL     1      -6.560   0.442  -1.658  0.00  0.00    +0.111 A 
ATOM      9  N   UNL     1      -5.687   1.294  -1.164  0.00  0.00    -0.246 NA
ENDROOT
BRANCH   5  10
ATOM     10  N   UNL     1      -8.521  -2.644  -1.025  0.00  0.00    -0.279 N 
ATOM     11  C   UNL     1      -7.712  -3.505  -0.376  0.00  0.00    +0.266 C 
ATOM     12  O   UNL     1      -6.532  -3.246  -0.240  0.00  0.00    -0.268 OA
ATOM     13  H   UNL     1      -9.475  -2.815  -1.071  0.00  0.00    +0.155 HD
BRANCH  11  14
ATOM     14  C   UNL     1      -8.258  -4.758   0.169  0.00  0.00    +0.124 A 
ATOM     15  C   UNL     1      -7.541  -5.804   0.724  0.00  0.00    +0.057 A 
ATOM     16  C   UNL     1      -8.498  -6.755   1.090  0.00  0.00    +0.061 A 
ATOM     17  N   UNL     1      -9.675  -6.284   0.766  0.00  0.00    -0.176 NA
ATOM     18  N   UNL     1      -9.574  -5.120   0.233  0.00  0.00    -0.262 N 
ATOM     19  C   UNL     1     -10.697  -4.307  -0.239  0.00  0.00    +0.173 C 
ATOM     20  C   UNL     1      -8.222  -8.085   1.742  0.00  0.00    +0.067 C 
ENDBRANCH  11  14
ENDBRANCH   5  10
BRANCH   6  21
ATOM     21  C   UNL     1      -9.271  -1.806  -3.774  0.00  0.00    +0.348 C 
ATOM     22  O   UNL     1      -9.764  -2.869  -3.448  0.00  0.00    -0.244 OA
BRANCH  21  23
ATOM     23  O   UNL     1      -9.591  -1.249  -4.960  0.00  0.00    -0.464 OA
ATOM     24  C   UNL     1     -10.517  -1.962  -5.783  0.00  0.00    +0.280 C 
ENDBRANCH  21  23
ENDBRANCH   6  21
BRANCH   1  25
ATOM     25  C   UNL     1      -4.194   2.144   0.577  0.00  0.00    -0.022 C 
BRANCH  25  31
ATOM     26  C   UNL     1      -1.858   2.776   0.543  0.00  0.00    -0.068 C 
ATOM     27  C   UNL     1      -0.451   2.285   0.193  0.00  0.00    -0.015 C 
ATOM     28  C   UNL     1      -0.362   2.042  -1.316  0.00  0.00    -0.003 C 
ATOM     29  C   UNL     1      -1.433   1.027  -1.726  0.00  0.00    -0.019 C 
ATOM     30  C   UNL     1      -2.811   1.554  -1.320  0.00  0.00    -0.078 C 
ATOM     31  N   UNL     1      -2.839   1.744   0.146  0.00  0.00    +0.385 N 
ATOM     32  H   UNL     1      -2.593   0.857   0.601  0.00  0.00    -0.081 HD
BRANCH  26  34
ATOM     33  C   UNL     1      -0.971   4.092   2.473  0.00  0.00    +0.002 C 
ATOM     34  C   UNL     1      -1.957   3.001   2.054  0.00  0.00    -0.019 C 
ENDBRANCH  26  34
ENDBRANCH  25  31
ENDBRANCH   1  25
TORSDOF 7
