REMARK  Name = ZINC08721350
REMARK  6 active torsions:
REMARK  status: ('A' for Active; 'I' for Inactive)
REMARK    1  A    between atoms: C_4  and  N_7
REMARK    2  A    between atoms: C_8  and  C_30
REMARK    3  A    between atoms: C_11  and  S_12
REMARK    4  A    between atoms: S_12  and  C_13
REMARK    5  A    between atoms: C_13  and  C_14
REMARK    6  A    between atoms: C_30  and  N_60
REMARK                            x       y       z     vdW  Elec       q    Type
REMARK                         _______ _______ _______ _____ _____    ______ ____
ROOT
ATOM      1  N   UNL     1      -5.633   9.242   1.919  0.00  0.00    -0.276 N 
ATOM      2  C   UNL     1      -6.920   9.395   1.475  0.00  0.00    +0.122 A 
ATOM      3  N   UNL     1      -7.210   8.344   0.761  0.00  0.00    -0.135 NA
ATOM      4  N   UNL     1      -6.204   7.546   0.718  0.00  0.00    -0.122 NA
ATOM      5  C   UNL     1      -5.209   8.043   1.415  0.00  0.00    +0.197 A 
ENDROOT
BRANCH   1   9
ATOM      6  C   UNL     1      -3.461  11.884   4.304  0.00  0.00    +0.000 A 
ATOM      7  C   UNL     1      -3.057  11.635   3.005  0.00  0.00    +0.002 A 
ATOM      8  C   UNL     1      -3.775  10.760   2.212  0.00  0.00    +0.026 A 
ATOM      9  C   UNL     1      -4.902  10.130   2.721  0.00  0.00    +0.050 A 
ATOM     10  C   UNL     1      -5.308  10.386   4.024  0.00  0.00    +0.026 A 
ATOM     11  C   UNL     1      -4.584  11.258   4.813  0.00  0.00    +0.002 A 
ENDBRANCH   1   9
BRANCH   5  12
ATOM     12  S   UNL     1      -3.625   7.308   1.652  0.00  0.00    -0.076 S 
BRANCH  12  13
ATOM     13  C   UNL     1      -3.840   5.783   0.701  0.00  0.00    +0.174 C 
BRANCH  13  14
ATOM     14  C   UNL     1      -2.574   4.970   0.762  0.00  0.00    +0.234 C 
ATOM     15  O   UNL     1      -1.531   5.494   1.095  0.00  0.00    -0.274 OA
ATOM     16  N   UNL     1      -2.598   3.659   0.447  0.00  0.00    -0.237 N 
ATOM     17  C   UNL     1      -1.396   2.942   0.424  0.00  0.00    +0.055 A 
ATOM     18  C   UNL     1      -0.235   3.537  -0.044  0.00  0.00    +0.025 A 
ATOM     19  C   UNL     1       0.949   2.822  -0.066  0.00  0.00    +0.002 A 
ATOM     20  C   UNL     1       0.985   1.513   0.377  0.00  0.00    +0.001 A 
ATOM     21  C   UNL     1      -0.169   0.908   0.847  0.00  0.00    +0.017 A 
ATOM     22  C   UNL     1      -1.355   1.617   0.867  0.00  0.00    +0.035 A 
ATOM     23  S   UNL     1      -2.841   0.876   1.469  0.00  0.00    -0.086 S 
ATOM     24  C   UNL     1      -4.086   1.745   0.567  0.00  0.00    +0.035 A 
ATOM     25  C   UNL     1      -3.826   3.053   0.152  0.00  0.00    +0.055 A 
ATOM     26  C   UNL     1      -4.795   3.746  -0.558  0.00  0.00    +0.025 A 
ATOM     27  C   UNL     1      -6.005   3.141  -0.847  0.00  0.00    +0.002 A 
ATOM     28  C   UNL     1      -6.257   1.846  -0.434  0.00  0.00    +0.001 A 
ATOM     29  C   UNL     1      -5.297   1.145   0.275  0.00  0.00    +0.017 A 
ENDBRANCH  13  14
ENDBRANCH  12  13
ENDBRANCH   5  12
BRANCH   2  30
ATOM     30  C   UNL     1      -7.830  10.561   1.759  0.00  0.00    -0.001 C 
BRANCH  30  35
ATOM     31  C   UNL     1      -7.817  10.991  -0.637  0.00  0.00    -0.078 C 
ATOM     32  C   UNL     1      -8.133  12.220  -1.526  0.00  0.00    -0.020 C 
ATOM     33  C   UNL     1      -9.024  13.090  -0.609  0.00  0.00    -0.020 C 
ATOM     34  C   UNL     1      -8.697  12.629   0.824  0.00  0.00    -0.078 C 
ATOM     35  N   UNL     1      -7.668  11.597   0.695  0.00  0.00    +0.384 N 
ATOM     36  H   UNL     1      -6.737  12.023   0.779  0.00  0.00    -0.081 HD
ENDBRANCH  30  35
ENDBRANCH   2  30
TORSDOF 6
