REMARK  Name = ZINC00084328
REMARK  4 active torsions:
REMARK  status: ('A' for Active; 'I' for Inactive)
REMARK    1  A    between atoms: C_4  and  N_11
REMARK    2  A    between atoms: C_5  and  C_7
REMARK    3  A    between atoms: C_12  and  C_14
REMARK    4  A    between atoms: C_14  and  C_15
REMARK                            x       y       z     vdW  Elec       q    Type
REMARK                         _______ _______ _______ _____ _____    ______ ____
ROOT
ATOM      1  N   UNL     1       1.671   5.181   3.780  0.00  0.00    -0.285 N 
ATOM      2  C   UNL     1       1.340   5.019   2.484  0.00  0.00    +0.219 C 
ATOM      3  O   UNL     1       1.994   5.561   1.619  0.00  0.00    -0.275 OA
ATOM      4  H   UNL     1       1.103   4.815   4.476  0.00  0.00    +0.155 HD
ENDROOT
BRANCH   1   8
ATOM      5  C   UNL     1       5.136   7.258   4.801  0.00  0.00    +0.001 A 
ATOM      6  C   UNL     1       5.037   6.646   3.564  0.00  0.00    +0.002 A 
ATOM      7  C   UNL     1       3.890   5.957   3.223  0.00  0.00    +0.024 A 
ATOM      8  C   UNL     1       2.835   5.879   4.123  0.00  0.00    +0.045 A 
ATOM      9  C   UNL     1       2.935   6.499   5.361  0.00  0.00    +0.076 A 
ATOM     10  C   UNL     1       4.087   7.183   5.699  0.00  0.00    +0.014 A 
BRANCH   9  11
ATOM     11  C   UNL     1       1.790   6.423   6.338  0.00  0.00    +0.419 C 
ATOM     12  F   UNL     1       2.125   7.119   7.505  0.00  0.00    -0.166 F 
ATOM     13  F   UNL     1       0.649   6.995   5.765  0.00  0.00    -0.166 F 
ATOM     14  F   UNL     1       1.533   5.084   6.651  0.00  0.00    -0.166 F 
ENDBRANCH   9  11
ENDBRANCH   1   8
BRANCH   2  15
ATOM     15  C   UNL     1       0.157   4.164   2.110  0.00  0.00    +0.127 C 
BRANCH  15  16
ATOM     16  C   UNL     1       0.001   4.146   0.588  0.00  0.00    +0.166 C 
ATOM     17  C   UNL     1      -1.246   3.384   0.215  0.00  0.00    +0.238 C 
ATOM     18  O   UNL     1      -2.298   3.976   0.096  0.00  0.00    -0.273 OA
ATOM     19  N   UNL     1      -1.204   2.055   0.013  0.00  0.00    -0.282 N 
ATOM     20  C   UNL     1       0.015   1.367   0.010  0.00  0.00    +0.055 A 
ATOM     21  C   UNL     1       0.045  -0.018   0.002  0.00  0.00    +0.025 A 
ATOM     22  C   UNL     1       1.259  -0.681  -0.003  0.00  0.00    +0.002 A 
ATOM     23  C   UNL     1       2.444   0.030  -0.002  0.00  0.00    +0.002 A 
ATOM     24  C   UNL     1       2.424   1.414   0.002  0.00  0.00    +0.025 A 
ATOM     25  C   UNL     1       1.213   2.083   0.002  0.00  0.00    +0.049 A 
ATOM     26  N   UNL     1       1.165   3.485  -0.018  0.00  0.00    -0.331 N 
ATOM     27  H   UNL     1      -2.029   1.567  -0.132  0.00  0.00    +0.155 HD
ATOM     28  H   UNL     1       1.880   4.003  -0.420  0.00  0.00    +0.147 HD
ENDBRANCH  15  16
ENDBRANCH   2  15
TORSDOF 4
