REMARK  Name = ZINC02873399
REMARK  9 active torsions:
REMARK  status: ('A' for Active; 'I' for Inactive)
REMARK    1  A    between atoms: C_1  and  C_2
REMARK    2  A    between atoms: C_2  and  C_3
REMARK    3  A    between atoms: N_14  and  C_30
REMARK    4  A    between atoms: C_15  and  S_17
REMARK    5  A    between atoms: S_17  and  C_18
REMARK    6  A    between atoms: C_18  and  C_19
REMARK    7  A    between atoms: N_21  and  C_22
REMARK    8  A    between atoms: C_22  and  C_23
REMARK    9  A    between atoms: C_23  and  C_24
REMARK                            x       y       z     vdW  Elec       q    Type
REMARK                         _______ _______ _______ _____ _____    ______ ____
ROOT
ATOM      1  C   UNL     1      -2.655 -12.357   1.747  0.00  0.00    -0.006 C 
ATOM      2  C   UNL     1      -2.104 -12.545   3.163  0.00  0.00    +0.008 C 
ATOM      3  C   UNL     1      -1.967 -11.186   3.851  0.00  0.00    +0.037 C 
ATOM      4  C   UNL     1      -1.161 -10.256   2.948  0.00  0.00    -0.023 A 
ATOM      5  C   UNL     1      -1.015 -10.527   1.635  0.00  0.00    -0.004 A 
ATOM      6  S   UNL     1      -0.020  -9.204   1.000  0.00  0.00    -0.073 S 
ATOM      7  C   UNL     1       0.197  -8.288   2.505  0.00  0.00    +0.117 A 
ATOM      8  C   UNL     1      -0.513  -9.044   3.452  0.00  0.00    +0.076 A 
ATOM      9  C   UNL     1      -0.512  -8.531   4.788  0.00  0.00    +0.268 A 
ATOM     10  O   UNL     1      -1.102  -9.120   5.677  0.00  0.00    -0.267 OA
ATOM     11  N   UNL     1       0.150  -7.389   5.049  0.00  0.00    -0.255 N 
ATOM     12  C   UNL     1       0.817  -6.715   4.064  0.00  0.00    +0.178 A 
ATOM     13  N   UNL     1       0.827  -7.164   2.825  0.00  0.00    -0.215 NA
ATOM     14  C   UNL     1      -1.574 -11.695   0.881  0.00  0.00    +0.046 C 
ENDROOT
BRANCH  11  15
ATOM     15  C   UNL     1       0.156  -6.881   6.355  0.00  0.00    +0.052 A 
ATOM     16  C   UNL     1       1.151  -7.262   7.245  0.00  0.00    +0.026 A 
ATOM     17  C   UNL     1       1.156  -6.755   8.530  0.00  0.00    +0.002 A 
ATOM     18  C   UNL     1       0.166  -5.878   8.934  0.00  0.00    +0.000 A 
ATOM     19  C   UNL     1      -0.829  -5.501   8.050  0.00  0.00    +0.002 A 
ATOM     20  C   UNL     1      -0.837  -5.999   6.763  0.00  0.00    +0.026 A 
ENDBRANCH  11  15
BRANCH   1  22
ATOM     21  C   UNL     1      -3.692 -13.520  -0.207  0.00  0.00    +0.004 C 
ATOM     22  C   UNL     1      -3.027 -13.719   1.156  0.00  0.00    +0.000 C 
ENDBRANCH   1  22
BRANCH  12  23
ATOM     23  S   UNL     1       1.670  -5.223   4.455  0.00  0.00    -0.078 S 
BRANCH  23  24
ATOM     24  C   UNL     1       2.333  -4.803   2.824  0.00  0.00    +0.173 C 
BRANCH  24  25
ATOM     25  C   UNL     1       3.123  -3.523   2.917  0.00  0.00    +0.223 C 
ATOM     26  O   UNL     1       3.227  -2.951   3.982  0.00  0.00    -0.275 OA
ATOM     27  N   UNL     1       3.713  -3.014   1.818  0.00  0.00    -0.314 N 
ATOM     28  H   UNL     1       3.630  -3.472   0.967  0.00  0.00    +0.149 HD
BRANCH  27  29
ATOM     29  C   UNL     1       4.481  -1.770   1.909  0.00  0.00    +0.109 C 
BRANCH  29  30
ATOM     30  C   UNL     1       5.042  -1.415   0.530  0.00  0.00    +0.054 C 
BRANCH  30  31
ATOM     31  C   UNL     1       5.832  -0.135   0.623  0.00  0.00    -0.046 A 
ATOM     32  C   UNL     1       5.205   1.080   0.420  0.00  0.00    +0.004 A 
ATOM     33  C   UNL     1       5.929   2.254   0.510  0.00  0.00    +0.000 A 
ATOM     34  C   UNL     1       7.281   2.213   0.794  0.00  0.00    +0.000 A 
ATOM     35  C   UNL     1       7.909   0.997   0.992  0.00  0.00    +0.000 A 
ATOM     36  C   UNL     1       7.184  -0.177   0.906  0.00  0.00    +0.004 A 
ENDBRANCH  30  31
ENDBRANCH  29  30
ENDBRANCH  27  29
ENDBRANCH  24  25
ENDBRANCH  23  24
ENDBRANCH  12  23
TORSDOF 8
