REMARK  Name = ZINC14546925
REMARK  6 active torsions:
REMARK  status: ('A' for Active; 'I' for Inactive)
REMARK    1  A    between atoms: C_1  and  C_2
REMARK    2  A    between atoms: C_2  and  C_3
REMARK    3  A    between atoms: C_2  and  C_4
REMARK    4  A    between atoms: C_4  and  O_5
REMARK    5  A    between atoms: O_5  and  C_6
REMARK    6  A    between atoms: C_13  and  C_22
REMARK                            x       y       z     vdW  Elec       q    Type
REMARK                         _______ _______ _______ _____ _____    ______ ____
ROOT
ATOM      1  C   UNL     1      -3.805   2.479   3.883  0.00  0.00    +0.142 A 
ATOM      2  C   UNL     1      -4.994   3.036   3.457  0.00  0.00    +0.047 A 
ATOM      3  C   UNL     1      -5.293   3.089   2.108  0.00  0.00    +0.004 A 
ATOM      4  C   UNL     1      -4.398   2.575   1.189  0.00  0.00    +0.006 A 
ATOM      5  C   UNL     1      -3.197   2.023   1.609  0.00  0.00    -0.016 A 
ATOM      6  C   UNL     1      -2.887   1.960   2.962  0.00  0.00    +0.074 A 
ATOM      7  N   UNL     1      -1.698   1.428   3.465  0.00  0.00    -0.334 N 
ATOM      8  C   UNL     1      -0.784   0.814   2.489  0.00  0.00    +0.108 C 
ATOM      9  C   UNL     1      -0.821   1.675   1.243  0.00  0.00    +0.029 C 
ATOM     10  C   UNL     1      -2.243   1.438   0.642  0.00  0.00    +0.049 C 
ATOM     11  C   UNL     1      -2.107   1.935  -0.749  0.00  0.00    -0.023 C 
ATOM     12  C   UNL     1      -0.841   1.792  -1.127  0.00  0.00    -0.030 C 
ATOM     13  C   UNL     1      -0.016   1.210   0.024  0.00  0.00    +0.033 C 
ATOM     14  H   UNL     1      -1.215   2.102   4.039  0.00  0.00    +0.147 HD
ENDROOT
BRANCH   8  15
ATOM     15  C   UNL     1       0.616   0.777   3.046  0.00  0.00    +0.010 A 
ATOM     16  C   UNL     1       1.182   1.924   3.573  0.00  0.00    +0.047 A 
ATOM     17  C   UNL     1       2.465   1.888   4.089  0.00  0.00    +0.020 A 
ATOM     18  C   UNL     1       3.186   0.709   4.068  0.00  0.00    +0.003 A 
ATOM     19  C   UNL     1       2.623  -0.436   3.537  0.00  0.00    +0.020 A 
ATOM     20  C   UNL     1       1.338  -0.403   3.026  0.00  0.00    +0.047 A 
ATOM     21 CL   UNL     1       0.631  -1.842   2.359  0.00  0.00    -0.083 Cl
ATOM     22 CL   UNL     1       0.279   3.407   3.592  0.00  0.00    -0.083 Cl
ENDBRANCH   8  15
BRANCH   1  23
ATOM     23  O   UNL     1      -3.522   2.434   5.213  0.00  0.00    -0.490 OA
BRANCH  23  24
ATOM     24  C   UNL     1      -4.498   2.979   6.103  0.00  0.00    +0.232 C 
BRANCH  24  26
ATOM     25  C   UNL     1      -2.755   3.697   7.743  0.00  0.00    +0.010 C 
ATOM     26  C   UNL     1      -4.007   2.840   7.545  0.00  0.00    +0.020 C 
ATOM     27  C   UNL     1      -5.103   3.308   8.504  0.00  0.00    +0.010 C 
ENDBRANCH  24  26
ENDBRANCH  23  24
ENDBRANCH   1  23
TORSDOF 4
