REMARK  Name = ZINC03211392
REMARK  8 active torsions:
REMARK  status: ('A' for Active; 'I' for Inactive)
REMARK    1  A    between atoms: C_1  and  C_2
REMARK    2  A    between atoms: C_5  and  N_8
REMARK    3  A    between atoms: C_9  and  C_11
REMARK    4  A    between atoms: C_11  and  N_12
REMARK    5  A    between atoms: N_20  and  N_21
REMARK    6  A    between atoms: C_22  and  C_23
REMARK    7  A    between atoms: C_26  and  O_29
REMARK    8  A    between atoms: O_29  and  C_30
REMARK                            x       y       z     vdW  Elec       q    Type
REMARK                         _______ _______ _______ _____ _____    ______ ____
ROOT
ATOM      1  N   UNL     1       3.726  -0.434  -0.035  0.00  0.00    -0.257 N 
ATOM      2  C   UNL     1       2.405   0.001  -0.012  0.00  0.00    +0.047 A 
ATOM      3  C   UNL     1       1.203  -0.698   0.005  0.00  0.00    +0.024 A 
ATOM      4  C   UNL     1       0.004  -0.013   0.026  0.00  0.00    +0.002 A 
ATOM      5  C   UNL     1      -0.018   1.372   0.032  0.00  0.00    +0.001 A 
ATOM      6  C   UNL     1       1.164   2.083   0.015  0.00  0.00    +0.012 A 
ATOM      7  C   UNL     1       2.379   1.403  -0.007  0.00  0.00    +0.029 A 
ATOM      8  C   UNL     1       3.788   1.847  -0.028  0.00  0.00    +0.157 C 
ATOM      9  N   UNL     1       4.239   3.087  -0.032  0.00  0.00    -0.144 NA
ATOM     10  C   UNL     1       4.582   0.602  -0.045  0.00  0.00    +0.272 C 
ATOM     11  O   UNL     1       5.796   0.527  -0.065  0.00  0.00    -0.268 OA
ENDROOT
BRANCH   9  12
ATOM     12  N   UNL     1       5.509   3.311  -0.052  0.00  0.00    -0.156 NA
ATOM     13  C   UNL     1       5.959   4.549  -0.056  0.00  0.00    +0.142 C 
BRANCH  13  14
ATOM     14  C   UNL     1       7.401   4.803  -0.078  0.00  0.00    -0.005 A 
ATOM     15  C   UNL     1       8.305   3.731  -0.089  0.00  0.00    +0.013 A 
ATOM     16  C   UNL     1       9.649   3.975  -0.115  0.00  0.00    +0.046 A 
ATOM     17  C   UNL     1      10.121   5.284  -0.119  0.00  0.00    +0.120 A 
ATOM     18  C   UNL     1       9.229   6.352  -0.102  0.00  0.00    +0.046 A 
ATOM     19  C   UNL     1       7.883   6.121  -0.082  0.00  0.00    +0.013 A 
BRANCH  17  20
ATOM     20  O   UNL     1      11.457   5.520  -0.139  0.00  0.00    -0.495 OA
ATOM     21  C   UNL     1      12.317   4.379  -0.156  0.00  0.00    +0.277 C 
ENDBRANCH  17  20
ENDBRANCH  13  14
ENDBRANCH   9  12
BRANCH   1  22
ATOM     22  C   UNL     1       4.132  -1.841  -0.046  0.00  0.00    +0.210 C 
BRANCH  22  24
ATOM     23  N   UNL     1       4.612  -3.591  -1.726  0.00  0.00    -0.284 N 
ATOM     24  C   UNL     1       4.249  -2.319  -1.470  0.00  0.00    +0.235 C 
ATOM     25  O   UNL     1       4.015  -1.559  -2.386  0.00  0.00    -0.274 OA
ATOM     26  H   UNL     1       4.864  -4.180  -0.998  0.00  0.00    +0.155 HD
BRANCH  23  31
ATOM     27  C   UNL     1       4.671  -5.504  -7.067  0.00  0.00    +0.044 C 
ATOM     28  C   UNL     1       4.656  -4.996  -5.648  0.00  0.00    -0.050 A 
ATOM     29  C   UNL     1       5.005  -3.685  -5.381  0.00  0.00    +0.005 A 
ATOM     30  C   UNL     1       4.992  -3.216  -4.082  0.00  0.00    +0.023 A 
ATOM     31  C   UNL     1       4.627  -4.063  -3.044  0.00  0.00    +0.033 A 
ATOM     32  C   UNL     1       4.282  -5.381  -3.315  0.00  0.00    +0.023 A 
ATOM     33  C   UNL     1       4.293  -5.842  -4.617  0.00  0.00    +0.005 A 
ENDBRANCH  23  31
ENDBRANCH  22  24
ENDBRANCH   1  22
TORSDOF 6
