REMARK  Name = ZINC02504070
REMARK  8 active torsions:
REMARK  status: ('A' for Active; 'I' for Inactive)
REMARK    1  A    between atoms: C_3  and  C_16
REMARK    2  A    between atoms: C_6  and  C_7
REMARK    3  A    between atoms: C_7  and  O_8
REMARK    4  A    between atoms: O_8  and  C_9
REMARK    5  A    between atoms: C_12  and  N_15
REMARK    6  A    between atoms: C_16  and  O_17
REMARK    7  A    between atoms: O_17  and  C_18
REMARK    8  A    between atoms: C_21  and  N_24
REMARK                            x       y       z     vdW  Elec       q    Type
REMARK                         _______ _______ _______ _____ _____    ______ ____
ROOT
ATOM      1  C   UNL     1       2.268  -4.863   1.153  0.00  0.00    +0.007 A 
ATOM      2  C   UNL     1       2.101  -6.235   1.148  0.00  0.00    +0.007 A 
ATOM      3  C   UNL     1       2.007  -6.915  -0.052  0.00  0.00    -0.010 A 
ATOM      4  C   UNL     1       2.077  -6.223  -1.246  0.00  0.00    +0.007 A 
ATOM      5  C   UNL     1       2.240  -4.850  -1.241  0.00  0.00    +0.007 A 
ATOM      6  C   UNL     1       2.333  -4.170  -0.041  0.00  0.00    -0.010 A 
ENDROOT
BRANCH   6   7
ATOM      7  C   UNL     1       2.511  -2.674  -0.035  0.00  0.00    +0.264 C 
BRANCH   7   8
ATOM      8  O   UNL     1       1.230  -2.041  -0.020  0.00  0.00    -0.487 OA
BRANCH   8   9
ATOM      9  C   UNL     1       1.212  -0.682  -0.013  0.00  0.00    +0.121 A 
ATOM     10  C   UNL     1       0.002  -0.004   0.002  0.00  0.00    +0.047 A 
ATOM     11  C   UNL     1      -0.017   1.377   0.010  0.00  0.00    +0.026 A 
ATOM     12  C   UNL     1       1.177   2.087   0.002  0.00  0.00    +0.025 A 
ATOM     13  C   UNL     1       2.388   1.408  -0.012  0.00  0.00    +0.026 A 
ATOM     14  C   UNL     1       2.405   0.027  -0.020  0.00  0.00    +0.047 A 
BRANCH  12  15
ATOM     15  N   UNL     1       1.159   3.486   0.009  0.00  0.00    -0.358 N 
ATOM     16  H   UNL     1       0.312   3.960   0.020  0.00  0.00    +0.142 HD
ATOM     17  H   UNL     1       1.992   3.982   0.004  0.00  0.00    +0.142 HD
ENDBRANCH  12  15
ENDBRANCH   8   9
ENDBRANCH   7   8
ENDBRANCH   6   7
BRANCH   3  18
ATOM     18  C   UNL     1       1.828  -8.412  -0.057  0.00  0.00    +0.264 C 
BRANCH  18  19
ATOM     19  O   UNL     1       3.109  -9.044  -0.073  0.00  0.00    -0.487 OA
BRANCH  19  20
ATOM     20  C   UNL     1       3.126 -10.404  -0.081  0.00  0.00    +0.121 A 
ATOM     21  C   UNL     1       1.934 -11.113  -0.067  0.00  0.00    +0.047 A 
ATOM     22  C   UNL     1       1.950 -12.493  -0.080  0.00  0.00    +0.026 A 
ATOM     23  C   UNL     1       3.161 -13.173  -0.095  0.00  0.00    +0.025 A 
ATOM     24  C   UNL     1       4.354 -12.463  -0.103  0.00  0.00    +0.026 A 
ATOM     25  C   UNL     1       4.336 -11.082  -0.096  0.00  0.00    +0.047 A 
BRANCH  23  26
ATOM     26  N   UNL     1       3.178 -14.572  -0.103  0.00  0.00    -0.358 N 
ATOM     27  H   UNL     1       4.024 -15.047  -0.114  0.00  0.00    +0.142 HD
ATOM     28  H   UNL     1       2.345 -15.068  -0.097  0.00  0.00    +0.142 HD
ENDBRANCH  23  26
ENDBRANCH  19  20
ENDBRANCH  18  19
ENDBRANCH   3  18
TORSDOF 8
