REMARK  Name = ZINC39483300
REMARK  8 active torsions:
REMARK  status: ('A' for Active; 'I' for Inactive)
REMARK    1  A    between atoms: C_1  and  C_2
REMARK    2  A    between atoms: C_2  and  C_3
REMARK    3  A    between atoms: C_3  and  C_4
REMARK    4  A    between atoms: C_19  and  C_20
REMARK    5  A    between atoms: C_22  and  C_33
REMARK    6  A    between atoms: C_24  and  C_26
REMARK    7  A    between atoms: C_31  and  O_32
REMARK    8  A    between atoms: C_33  and  C_34
REMARK                            x       y       z     vdW  Elec       q    Type
REMARK                         _______ _______ _______ _____ _____    ______ ____
ROOT
ATOM      1  C   UNL     1      -4.460   0.074  -4.306  0.00  0.00    -0.024 A 
ATOM      2  C   UNL     1      -5.805  -0.223  -4.064  0.00  0.00    +0.012 A 
ATOM      3  C   UNL     1      -6.797   0.480  -4.718  0.00  0.00    -0.042 A 
ATOM      4  C   UNL     1      -6.468   1.480  -5.614  0.00  0.00    +0.012 A 
ATOM      5  C   UNL     1      -5.131   1.786  -5.864  0.00  0.00    -0.014 A 
ATOM      6  C   UNL     1      -4.124   1.087  -5.207  0.00  0.00    +0.016 A 
ENDROOT
BRANCH   1  22
ATOM      7  C   UNL     1       0.246  -1.742  -0.453  0.00  0.00    -0.021 A 
ATOM      8  C   UNL     1       1.238  -2.358   0.276  0.00  0.00    +0.006 A 
ATOM      9  C   UNL     1       1.306  -3.743   0.356  0.00  0.00    +0.001 A 
ATOM     10  C   UNL     1       0.376  -4.530  -0.287  0.00  0.00    +0.015 A 
ATOM     11  C   UNL     1      -0.641  -3.928  -1.024  0.00  0.00    +0.065 A 
ATOM     12  C   UNL     1      -0.710  -2.518  -1.116  0.00  0.00    +0.082 A 
ATOM     13  N   UNL     1      -1.683  -1.960  -1.857  0.00  0.00    -0.229 NA
ATOM     14  C   UNL     1      -2.602  -2.679  -2.469  0.00  0.00    +0.140 A 
ATOM     15  N   UNL     1      -2.658  -4.046  -2.365  0.00  0.00    -0.293 N 
ATOM     16  C   UNL     1      -1.667  -4.716  -1.719  0.00  0.00    +0.262 A 
ATOM     17  O   UNL     1      -1.639  -5.933  -1.705  0.00  0.00    -0.267 OA
ATOM     18  C   UNL     1      -3.770  -4.820  -2.902  0.00  0.00    +0.127 C 
ATOM     19  C   UNL     1      -4.467  -4.164  -4.072  0.00  0.00    +0.026 C 
ATOM     20  C   UNL     1      -4.793  -2.703  -3.817  0.00  0.00    +0.040 C 
ATOM     21  C   UNL     1      -3.585  -1.974  -3.304  0.00  0.00    -0.004 C 
ATOM     22  C   UNL     1      -3.401  -0.675  -3.609  0.00  0.00    +0.015 C 
BRANCH   7  23
ATOM     23  C   UNL     1       0.186  -0.238  -0.530  0.00  0.00    +0.037 C 
BRANCH  23  25
ATOM     24  C   UNL     1      -0.831   1.817   0.462  0.00  0.00    +0.004 C 
ATOM     25  C   UNL     1      -0.770   0.290   0.541  0.00  0.00    +0.001 C 
ENDBRANCH  23  25
ENDBRANCH   7  23
ENDBRANCH   1  22
BRANCH   5  26
ATOM     26  C   UNL     1      -4.782   2.859  -6.827  0.00  0.00    +0.024 A 
ATOM     27  C   UNL     1      -5.362   2.878  -8.094  0.00  0.00    +0.012 A 
ATOM     28  C   UNL     1      -5.035   3.879  -8.986  0.00  0.00    +0.001 A 
ATOM     29  C   UNL     1      -4.133   4.865  -8.627  0.00  0.00    +0.004 A 
ATOM     30  C   UNL     1      -3.552   4.856  -7.373  0.00  0.00    +0.046 A 
ATOM     31  C   UNL     1      -3.876   3.860  -6.465  0.00  0.00    +0.125 A 
BRANCH  31  32
ATOM     32  O   UNL     1      -3.310   3.853  -5.231  0.00  0.00    -0.506 OA
ATOM     33  H   UNL     1      -2.480   3.359  -5.181  0.00  0.00    +0.292 HD
ENDBRANCH  31  32
ENDBRANCH   5  26
BRANCH   3  34
ATOM     34  C   UNL     1      -8.244   0.156  -4.453  0.00  0.00    +0.070 C 
BRANCH  34  35
ATOM     35  C   UNL     1      -8.748   0.999  -3.311  0.00  0.00    -0.043 A 
ATOM     36  C   UNL     1      -8.642   0.538  -2.012  0.00  0.00    +0.004 A 
ATOM     37  C   UNL     1      -9.103   1.312  -0.964  0.00  0.00    +0.000 A 
ATOM     38  C   UNL     1      -9.671   2.547  -1.214  0.00  0.00    +0.000 A 
ATOM     39  C   UNL     1      -9.776   3.009  -2.513  0.00  0.00    +0.000 A 
ATOM     40  C   UNL     1      -9.310   2.237  -3.561  0.00  0.00    +0.004 A 
ENDBRANCH  34  35
ENDBRANCH   3  34
TORSDOF 7
