REMARK  Name = ZINC59678482
REMARK  7 active torsions:
REMARK  status: ('A' for Active; 'I' for Inactive)
REMARK    1  A    between atoms: C_1  and  C_2
REMARK    2  A    between atoms: C_3  and  C_27
REMARK    3  A    between atoms: C_4  and  N_26
REMARK    4  A    between atoms: C_9  and  C_10
REMARK    5  A    between atoms: C_13  and  N_15
REMARK    6  A    between atoms: C_21  and  C_25
REMARK    7  A    between atoms: C_22  and  C_23
REMARK                            x       y       z     vdW  Elec       q    Type
REMARK                         _______ _______ _______ _____ _____    ______ ____
ROOT
ATOM      1  C   UNL     1      -2.018   0.478   1.422  0.00  0.00    +0.046 C 
ATOM      2  C   UNL     1      -1.077  -0.531   0.816  0.00  0.00    -0.020 A 
ATOM      3  C   UNL     1      -1.345  -1.106  -0.429  0.00  0.00    +0.095 A 
ATOM      4  C   UNL     1      -0.440  -2.046  -0.961  0.00  0.00    +0.135 A 
ATOM      5  N   UNL     1       0.650  -2.389  -0.303  0.00  0.00    -0.230 NA
ATOM      6  C   UNL     1       0.944  -1.865   0.887  0.00  0.00    +0.092 A 
ATOM      7  C   UNL     1       0.085  -0.912   1.479  0.00  0.00    +0.013 A 
ATOM      8  C   UNL     1       0.686  -0.527   2.769  0.00  0.00    -0.008 C 
ATOM      9  C   UNL     1       0.158   0.390   3.681  0.00  0.00    +0.055 C 
ATOM     10  C   UNL     1       1.881  -1.246   2.918  0.00  0.00    -0.023 C 
ATOM     11  C   UNL     1       2.066  -2.066   1.814  0.00  0.00    +0.081 C 
ATOM     12  C   UNL     1       2.813  -1.152   4.099  0.00  0.00    +0.046 C 
ENDROOT
BRANCH   9  13
ATOM     13  C   UNL     1       0.619   0.408   4.997  0.00  0.00    +0.132 A 
ATOM     14  C   UNL     1       0.989   1.541   5.720  0.00  0.00    +0.066 A 
ATOM     15  C   UNL     1       1.382   1.102   6.979  0.00  0.00    +0.079 A 
ATOM     16  C   UNL     1       1.243  -0.273   6.992  0.00  0.00    +0.203 A 
ATOM     17  O   UNL     1       0.779  -0.671   5.798  0.00  0.00    -0.441 OA
ATOM     18 BR   UNL     1       1.992   2.183   8.405  0.00  0.00    -0.045 Br
BRANCH  16  19
ATOM     19  N   UNL     1       1.528  -1.097   8.056  0.00  0.00    -0.301 N 
ATOM     20  C   UNL     1       2.025  -0.660   9.369  0.00  0.00    +0.108 C 
ATOM     21  C   UNL     1       2.223  -1.926  10.229  0.00  0.00    +0.020 C 
ATOM     22  C   UNL     1       2.366  -3.048   9.166  0.00  0.00    +0.020 C 
ATOM     23  C   UNL     1       1.381  -2.563   8.071  0.00  0.00    +0.108 C 
ENDBRANCH  16  19
ENDBRANCH   9  13
BRANCH   4  24
ATOM     24  N   UNL     1      -0.700  -2.621  -2.195  0.00  0.00    -0.342 N 
ATOM     25  H   UNL     1      -1.500  -2.375  -2.686  0.00  0.00    +0.144 HD
ATOM     26  H   UNL     1      -0.082  -3.269  -2.568  0.00  0.00    +0.144 HD
ENDBRANCH   4  24
BRANCH  11  27
ATOM     27  C   UNL     1       3.174  -2.948   1.605  0.00  0.00    +0.102 C 
ATOM     28  N   UNL     1       4.053  -3.648   1.439  0.00  0.00    -0.191 NA
ENDBRANCH  11  27
BRANCH   3  29
ATOM     29  C   UNL     1      -2.526  -0.745  -1.156  0.00  0.00    +0.103 C 
ATOM     30  N   UNL     1      -3.462  -0.458  -1.732  0.00  0.00    -0.191 NA
ENDBRANCH   3  29
TORSDOF 5
