REMARK  Name = ZINC18372688
REMARK  7 active torsions:
REMARK  status: ('A' for Active; 'I' for Inactive)
REMARK    1  A    between atoms: C_3  and  C_31
REMARK    2  A    between atoms: C_6  and  C_7
REMARK    3  A    between atoms: C_7  and  O_8
REMARK    4  A    between atoms: O_8  and  C_9
REMARK    5  A    between atoms: C_9  and  C_11
REMARK    6  A    between atoms: C_14  and  O_30
REMARK    7  A    between atoms: C_18  and  C_20
REMARK                            x       y       z     vdW  Elec       q    Type
REMARK                         _______ _______ _______ _____ _____    ______ ____
ROOT
ATOM      1  C   UNL     1       4.365   5.626  -0.222  0.00  0.00    +0.187 C 
ATOM      2  C   UNL     1       4.133   7.148  -0.333  0.00  0.00    +0.066 C 
ATOM      3  C   UNL     1       2.667   7.243  -0.830  0.00  0.00    +0.134 C 
ATOM      4  C   UNL     1       2.013   6.044  -0.099  0.00  0.00    +0.140 C 
ATOM      5  N   UNL     1       3.045   4.992  -0.102  0.00  0.00    -0.285 N 
ATOM      6  C   UNL     1       2.816   3.667  -0.005  0.00  0.00    +0.223 C 
ATOM      7  O   UNL     1       3.748   2.895   0.079  0.00  0.00    -0.275 OA
ENDROOT
BRANCH   6   8
ATOM      8  C   UNL     1       1.402   3.145  -0.001  0.00  0.00    +0.048 C 
ATOM      9  C   UNL     1       1.415   1.640   0.274  0.00  0.00    +0.019 C 
ATOM     10  C   UNL     1      -0.020   1.110   0.278  0.00  0.00    -0.009 C 
ATOM     11  C   UNL     1      -0.665   1.374  -1.083  0.00  0.00    +0.007 C 
ATOM     12  C   UNL     1      -0.678   2.879  -1.359  0.00  0.00    -0.009 C 
ATOM     13  C   UNL     1       0.757   3.409  -1.363  0.00  0.00    +0.019 C 
ATOM     14  C   UNL     1      -1.481   3.590  -0.267  0.00  0.00    +0.007 C 
ATOM     15  C   UNL     1      -0.836   3.325   1.095  0.00  0.00    -0.009 C 
ATOM     16  C   UNL     1      -0.823   1.821   1.370  0.00  0.00    +0.007 C 
ATOM     17  C   UNL     1       0.599   3.856   1.090  0.00  0.00    +0.019 C 
ENDBRANCH   6   8
BRANCH   1  18
ATOM     18  C   UNL     1       5.194   5.319   0.999  0.00  0.00    +0.328 C 
ATOM     19  O   UNL     1       4.735   4.638   1.885  0.00  0.00    -0.249 OA
BRANCH  18  20
ATOM     20  O   UNL     1       6.443   5.802   1.101  0.00  0.00    -0.459 OA
BRANCH  20  21
ATOM     21  C   UNL     1       7.183   5.466   2.304  0.00  0.00    +0.267 C 
BRANCH  21  27
ATOM     22  C   UNL     1       9.605   5.388   1.682  0.00  0.00    +0.008 A 
ATOM     23  C   UNL     1      10.861   5.956   1.617  0.00  0.00    +0.019 A 
ATOM     24  C   UNL     1      11.071   7.238   2.128  0.00  0.00    +0.052 A 
ATOM     25  C   UNL     1      10.005   7.939   2.697  0.00  0.00    +0.019 A 
ATOM     26  C   UNL     1       8.754   7.361   2.750  0.00  0.00    +0.008 A 
ATOM     27  C   UNL     1       8.553   6.090   2.242  0.00  0.00    -0.010 A 
BRANCH  24  28
ATOM     28  C   UNL     1      12.372   7.832   2.069  0.00  0.00    +0.099 C 
ATOM     29  N   UNL     1      13.405   8.303   2.021  0.00  0.00    -0.191 NA
ENDBRANCH  24  28
ENDBRANCH  21  27
ENDBRANCH  20  21
ENDBRANCH  18  20
ENDBRANCH   1  18
BRANCH   3  30
ATOM     30  O   UNL     1       2.595   7.080  -2.248  0.00  0.00    -0.390 OA
ATOM     31  H   UNL     1       1.693   7.035  -2.593  0.00  0.00    +0.210 HD
ENDBRANCH   3  30
TORSDOF 7
