REMARK  Name = ZINC49464258
REMARK  6 active torsions:
REMARK  status: ('A' for Active; 'I' for Inactive)
REMARK    1  A    between atoms: C_1  and  C_2
REMARK    2  A    between atoms: C_2  and  O_3
REMARK    3  A    between atoms: O_3  and  C_4
REMARK    4  A    between atoms: C_7  and  S_11
REMARK    5  A    between atoms: S_11  and  N_14
REMARK    6  A    between atoms: N_14  and  C_15
REMARK                            x       y       z     vdW  Elec       q    Type
REMARK                         _______ _______ _______ _____ _____    ______ ____
ROOT
ATOM      1  C   UNL     1      -3.271  -6.315   2.326  0.00  0.00    +0.049 A 
ATOM      2  C   UNL     1      -3.809  -5.050   2.113  0.00  0.00    +0.028 A 
ATOM      3  C   UNL     1      -4.910  -4.633   2.834  0.00  0.00    +0.048 A 
ATOM      4  C   UNL     1      -5.484  -5.476   3.771  0.00  0.00    +0.133 A 
ATOM      5  C   UNL     1      -4.955  -6.755   3.991  0.00  0.00    +0.080 A 
ATOM      6  C   UNL     1      -3.840  -7.168   3.255  0.00  0.00    +0.041 A 
ATOM      7  C   UNL     1      -5.568  -7.661   4.972  0.00  0.00    +0.250 C 
ATOM      8  O   UNL     1      -4.893  -8.098   5.884  0.00  0.00    -0.270 OA
ATOM      9  N   UNL     1      -6.865  -8.017   4.879  0.00  0.00    -0.294 N 
ATOM     10  C   UNL     1      -7.462  -8.827   5.941  0.00  0.00    +0.108 C 
ATOM     11  C   UNL     1      -8.258  -9.980   5.331  0.00  0.00    +0.019 C 
ATOM     12  C   UNL     1      -9.256  -9.422   4.314  0.00  0.00    +0.003 C 
ATOM     13  C   UNL     1      -8.503  -8.731   3.182  0.00  0.00    +0.023 C 
ATOM     14  C   UNL     1      -7.646  -7.592   3.720  0.00  0.00    +0.080 C 
ATOM     15  C   UNL     1      -8.547  -6.417   4.113  0.00  0.00    +0.063 C 
ATOM     16  C   UNL     1      -7.827  -5.100   3.823  0.00  0.00    +0.231 C 
ATOM     17  O   UNL     1      -6.565  -5.072   4.492  0.00  0.00    -0.491 OA
ENDROOT
BRANCH   1  18
ATOM     18  N   UNL     1      -2.153  -6.729   1.593  0.00  0.00    -0.216 N 
ATOM     19  H   UNL     1      -1.281  -6.764   2.017  0.00  0.00    +0.174 HD
BRANCH  18  20
ATOM     20  S   UNL     1      -2.318  -7.158   0.002  0.00  0.00    +0.072 S 
ATOM     21  O   UNL     1      -1.027  -7.541  -0.452  0.00  0.00    -0.150 OA
ATOM     22  O   UNL     1      -3.070  -6.126  -0.621  0.00  0.00    -0.150 OA
BRANCH  20  26
ATOM     23  C   UNL     1      -4.891 -10.884  -0.119  0.00  0.00    +0.156 A 
ATOM     24  C   UNL     1      -5.468  -9.636  -0.294  0.00  0.00    +0.050 A 
ATOM     25  C   UNL     1      -4.680  -8.501  -0.256  0.00  0.00    +0.032 A 
ATOM     26  C   UNL     1      -3.318  -8.608  -0.045  0.00  0.00    +0.111 A 
ATOM     27  C   UNL     1      -2.739  -9.852   0.129  0.00  0.00    +0.071 A 
ATOM     28  C   UNL     1      -3.523 -10.991   0.099  0.00  0.00    +0.167 A 
ATOM     29  F   UNL     1      -2.959 -12.206   0.274  0.00  0.00    -0.202 F 
BRANCH  23  30
ATOM     30  O   UNL     1      -5.664 -12.002  -0.156  0.00  0.00    -0.489 OA
BRANCH  30  32
ATOM     31  C   UNL     1      -7.762 -13.178  -0.393  0.00  0.00    +0.048 C 
ATOM     32  C   UNL     1      -7.062 -11.817  -0.385  0.00  0.00    +0.226 C 
ENDBRANCH  30  32
ENDBRANCH  23  30
ENDBRANCH  20  26
ENDBRANCH  18  20
ENDBRANCH   1  18
TORSDOF 5
