REMARK  Name = ZINC08959876
REMARK  4 active torsions:
REMARK  status: ('A' for Active; 'I' for Inactive)
REMARK    1  A    between atoms: C_1  and  C_2
REMARK    2  A    between atoms: C_2  and  C_28
REMARK    3  A    between atoms: C_8  and  N_14
REMARK    4  A    between atoms: C_15  and  C_17
REMARK                            x       y       z     vdW  Elec       q    Type
REMARK                         _______ _______ _______ _____ _____    ______ ____
ROOT
ATOM      1  C   UNL     1       2.679   0.065  -0.288  0.00  0.00    +0.024 C 
ATOM      2  C   UNL     1       2.187   1.417  -0.808  0.00  0.00    +0.076 C 
ATOM      3  C   UNL     1       1.411   2.133   0.295  0.00  0.00    +0.244 C 
ATOM      4  O   UNL     1       0.112   1.564   0.440  0.00  0.00    -0.489 OA
ATOM      5  C   UNL     1       0.023   0.207   0.425  0.00  0.00    +0.142 A 
ATOM      6  C   UNL     1      -0.186  -0.494   1.600  0.00  0.00    +0.049 A 
ATOM      7  C   UNL     1      -0.270  -1.874   1.577  0.00  0.00    +0.027 A 
ATOM      8  C   UNL     1      -0.145  -2.561   0.377  0.00  0.00    +0.036 A 
ATOM      9  C   UNL     1       0.063  -1.862  -0.805  0.00  0.00    +0.050 A 
ATOM     10  C   UNL     1       0.145  -0.480  -0.782  0.00  0.00    +0.077 A 
ATOM     11  N   UNL     1       0.344   0.243  -1.966  0.00  0.00    -0.282 N 
ATOM     12  C   UNL     1       1.300   1.198  -2.006  0.00  0.00    +0.226 C 
ATOM     13  O   UNL     1       1.442   1.876  -3.002  0.00  0.00    -0.275 OA
ATOM     14  C   UNL     1       3.389   2.271  -1.216  0.00  0.00    +0.024 C 
ATOM     15  H   UNL     1      -0.198   0.059  -2.749  0.00  0.00    +0.155 HD
ENDROOT
BRANCH   8  16
ATOM     16  N   UNL     1      -0.229  -3.958   0.358  0.00  0.00    -0.281 N 
ATOM     17  C   UNL     1      -0.809  -4.585  -0.685  0.00  0.00    +0.255 C 
ATOM     18  O   UNL     1      -1.181  -3.943  -1.649  0.00  0.00    -0.270 OA
ATOM     19  H   UNL     1       0.130  -4.476   1.095  0.00  0.00    +0.155 HD
BRANCH  17  20
ATOM     20  C   UNL     1      -0.992  -6.045  -0.657  0.00  0.00    +0.122 A 
ATOM     21  C   UNL     1      -0.573  -6.787   0.433  0.00  0.00    +0.031 A 
ATOM     22  C   UNL     1      -0.769  -8.192   0.418  0.00  0.00    +0.018 A 
ATOM     23  C   UNL     1      -0.355  -8.974   1.507  0.00  0.00    +0.011 A 
ATOM     24  C   UNL     1      -0.546 -10.325   1.484  0.00  0.00    +0.001 A 
ATOM     25  C   UNL     1      -1.148 -10.933   0.391  0.00  0.00    +0.004 A 
ATOM     26  C   UNL     1      -1.562 -10.184  -0.690  0.00  0.00    +0.047 A 
ATOM     27  C   UNL     1      -1.378  -8.806  -0.691  0.00  0.00    +0.139 A 
ATOM     28  O   UNL     1      -1.783  -8.074  -1.752  0.00  0.00    -0.422 OA
ATOM     29  C   UNL     1      -1.627  -6.740  -1.783  0.00  0.00    +0.350 A 
ATOM     30  O   UNL     1      -2.007  -6.107  -2.750  0.00  0.00    -0.244 OA
ENDBRANCH  17  20
ENDBRANCH   8  16
TORSDOF 2
