REMARK  Name = ZINC39708900
REMARK  7 active torsions:
REMARK  status: ('A' for Active; 'I' for Inactive)
REMARK    1  A    between atoms: C_7  and  N_22
REMARK    2  A    between atoms: C_9  and  C_12
REMARK    3  A    between atoms: N_14  and  C_15
REMARK    4  A    between atoms: C_23  and  C_25
REMARK    5  A    between atoms: N_27  and  C_28
REMARK    6  A    between atoms: C_28  and  C_29
REMARK    7  A    between atoms: C_29  and  C_30
REMARK                            x       y       z     vdW  Elec       q    Type
REMARK                         _______ _______ _______ _____ _____    ______ ____
ROOT
ATOM      1  C   UNL     1       1.863   1.547  -1.538  0.00  0.00    +0.001 A 
ATOM      2  C   UNL     1       3.230   1.617  -1.343  0.00  0.00    +0.004 A 
ATOM      3  C   UNL     1       3.907   0.566  -0.762  0.00  0.00    +0.046 A 
ATOM      4  C   UNL     1       3.218  -0.578  -0.365  0.00  0.00    +0.127 A 
ATOM      5  C   UNL     1       1.847  -0.640  -0.572  0.00  0.00    +0.019 A 
ATOM      6  C   UNL     1       1.172   0.413  -1.149  0.00  0.00    +0.009 A 
ATOM      7  C   UNL     1       1.383  -1.994  -0.071  0.00  0.00    +0.157 C 
ATOM      8  C   UNL     1       2.718  -2.766   0.049  0.00  0.00    +0.283 C 
ATOM      9  O   UNL     1       3.679  -1.712   0.230  0.00  0.00    -0.477 OA
ENDROOT
BRANCH   8  10
ATOM     10  C   UNL     1       3.001  -3.541  -1.212  0.00  0.00    +0.260 C 
ATOM     11  O   UNL     1       3.946  -3.239  -1.910  0.00  0.00    -0.271 OA
ATOM     12  N   UNL     1       2.205  -4.571  -1.563  0.00  0.00    -0.280 N 
ATOM     13  H   UNL     1       1.413  -4.771  -1.041  0.00  0.00    +0.155 HD
BRANCH  12  14
ATOM     14  C   UNL     1       2.522  -5.350  -2.683  0.00  0.00    +0.069 A 
ATOM     15  C   UNL     1       3.169  -4.777  -3.769  0.00  0.00    +0.026 A 
ATOM     16  C   UNL     1       3.480  -5.548  -4.872  0.00  0.00    +0.002 A 
ATOM     17  C   UNL     1       3.148  -6.891  -4.896  0.00  0.00    +0.003 A 
ATOM     18  C   UNL     1       2.503  -7.466  -3.817  0.00  0.00    +0.040 A 
ATOM     19  C   UNL     1       2.194  -6.701  -2.707  0.00  0.00    +0.144 A 
ATOM     20  F   UNL     1       1.568  -7.264  -1.650  0.00  0.00    -0.204 F 
ENDBRANCH  12  14
ENDBRANCH   8  10
BRANCH   7  21
ATOM     21  N   UNL     1       0.492  -2.635  -1.041  0.00  0.00    -0.297 N 
ATOM     22  C   UNL     1      -0.722  -3.076  -0.654  0.00  0.00    +0.300 C 
ATOM     23  O   UNL     1      -1.076  -2.942   0.498  0.00  0.00    -0.265 OA
ATOM     24  H   UNL     1       0.775  -2.742  -1.963  0.00  0.00    +0.150 HD
BRANCH  22  25
ATOM     25  C   UNL     1      -1.630  -3.729  -1.645  0.00  0.00    +0.299 C 
ATOM     26  O   UNL     1      -1.276  -3.863  -2.797  0.00  0.00    -0.265 OA
ATOM     27  N   UNL     1      -2.844  -4.170  -1.257  0.00  0.00    -0.307 N 
ATOM     28  H   UNL     1      -3.127  -4.063  -0.336  0.00  0.00    +0.149 HD
BRANCH  27  29
ATOM     29  C   UNL     1      -3.734  -4.811  -2.228  0.00  0.00    +0.109 C 
BRANCH  29  30
ATOM     30  C   UNL     1      -5.038  -5.214  -1.536  0.00  0.00    +0.056 C 
BRANCH  30  31
ATOM     31  C   UNL     1      -5.954  -5.873  -2.534  0.00  0.00    -0.021 A 
ATOM     32  C   UNL     1      -5.949  -7.286  -2.921  0.00  0.00    +0.003 A 
ATOM     33  C   UNL     1      -5.185  -8.392  -2.545  0.00  0.00    +0.010 A 
ATOM     34  C   UNL     1      -5.437  -9.613  -3.106  0.00  0.00    +0.001 A 
ATOM     35  C   UNL     1      -6.446  -9.761  -4.047  0.00  0.00    +0.002 A 
ATOM     36  C   UNL     1      -7.213  -8.683  -4.432  0.00  0.00    +0.026 A 
ATOM     37  C   UNL     1      -6.974  -7.431  -3.874  0.00  0.00    +0.047 A 
ATOM     38  N   UNL     1      -7.549  -6.192  -4.044  0.00  0.00    -0.360 N 
ATOM     39  C   UNL     1      -6.933  -5.278  -3.234  0.00  0.00    +0.087 A 
ATOM     40  H   UNL     1      -8.285  -5.997  -4.645  0.00  0.00    +0.165 HD
ENDBRANCH  30  31
ENDBRANCH  29  30
ENDBRANCH  27  29
ENDBRANCH  22  25
ENDBRANCH   7  21
TORSDOF 7
