REMARK  Name = ZINC52569919
REMARK  10 active torsions:
REMARK  status: ('A' for Active; 'I' for Inactive)
REMARK    1  A    between atoms: C_1  and  C_2
REMARK    2  A    between atoms: C_3  and  O_24
REMARK    3  A    between atoms: C_5  and  C_13
REMARK    4  A    between atoms: C_6  and  C_8
REMARK    5  A    between atoms: C_19  and  C_23
REMARK    6  A    between atoms: O_24  and  C_25
REMARK    7  A    between atoms: C_25  and  C_26
REMARK    8  A    between atoms: C_26  and  C_28
REMARK    9  A    between atoms: C_26  and  N_38
REMARK   10  A    between atoms: C_28  and  C_29
REMARK                            x       y       z     vdW  Elec       q    Type
REMARK                         _______ _______ _______ _____ _____    ______ ____
ROOT
ATOM      1  C   UNL     1      -0.587   1.438   0.004  0.00  0.00    +0.069 C 
ATOM      2  C   UNL     1      -0.266  -0.035  -0.001  0.00  0.00    +0.080 A 
ATOM      3  C   UNL     1      -0.025  -0.677  -1.208  0.00  0.00    +0.142 A 
ATOM      4  C   UNL     1       0.271  -2.035  -1.212  0.00  0.00    +0.059 A 
ATOM      5  C   UNL     1       0.314  -2.707   0.011  0.00  0.00    +0.031 A 
ATOM      6  C   UNL     1       0.058  -1.987   1.190  0.00  0.00    +0.084 A 
ATOM      7  N   UNL     1      -0.214  -0.691   1.141  0.00  0.00    -0.247 NA
ENDROOT
BRANCH   5   8
ATOM      8  C   UNL     1       0.624  -4.155   0.064  0.00  0.00    +0.092 A 
ATOM      9  C   UNL     1      -0.050  -5.044  -0.784  0.00  0.00    +0.141 A 
ATOM     10  N   UNL     1       0.218  -6.332  -0.746  0.00  0.00    -0.233 NA
ATOM     11  C   UNL     1       1.131  -6.796   0.100  0.00  0.00    +0.175 A 
ATOM     12  C   UNL     1       1.813  -5.907   0.957  0.00  0.00    +0.131 A 
ATOM     13  N   UNL     1       1.540  -4.603   0.909  0.00  0.00    -0.240 NA
ATOM     14  C   UNL     1       2.709  -6.687   1.728  0.00  0.00    +0.087 A 
ATOM     15  N   UNL     1       2.585  -7.933   1.375  0.00  0.00    -0.175 NA
ATOM     16  N   UNL     1       1.618  -8.047   0.369  0.00  0.00    -0.259 N 
ATOM     17  H   UNL     1       1.341  -8.871  -0.063  0.00  0.00    +0.191 HD
ATOM     18  C   UNL     1       3.649  -6.161   2.782  0.00  0.00    +0.070 C 
ENDBRANCH   5   8
BRANCH   6  19
ATOM     19  C   UNL     1       0.098  -2.681   2.498  0.00  0.00    +0.039 A 
ATOM     20  C   UNL     1       0.700  -2.190   3.743  0.00  0.00    +0.051 A 
ATOM     21  C   UNL     1       0.494  -3.151   4.659  0.00  0.00    +0.195 A 
ATOM     22  O   UNL     1      -0.169  -4.167   4.085  0.00  0.00    -0.470 OA
ATOM     23  C   UNL     1      -0.420  -3.903   2.795  0.00  0.00    +0.204 A 
ENDBRANCH   6  19
BRANCH   3  24
ATOM     24  O   UNL     1      -0.077   0.016  -2.377  0.00  0.00    -0.492 OA
BRANCH  24  25
ATOM     25  C   UNL     1       0.183  -0.714  -3.577  0.00  0.00    +0.213 C 
BRANCH  25  26
ATOM     26  C   UNL     1       0.079   0.226  -4.779  0.00  0.00    -0.033 C 
BRANCH  26  27
ATOM     27  N   UNL     1       1.141   1.238  -4.702  0.00  0.00    +0.382 N 
ATOM     28  H   UNL     1       2.041   0.782  -4.709  0.00  0.00    -0.089 HD
ATOM     29  H   UNL     1       1.073   1.859  -5.495  0.00  0.00    -0.089 HD
ATOM     30  H   UNL     1       1.039   1.769  -3.850  0.00  0.00    -0.089 HD
ENDBRANCH  26  27
BRANCH  26  31
ATOM     31  C   UNL     1       0.234  -0.578  -6.071  0.00  0.00    +0.020 C 
BRANCH  31  32
ATOM     32  C   UNL     1       0.009   0.326  -7.256  0.00  0.00    -0.043 C 
ATOM     33  C   UNL     1       0.955   0.971  -7.977  0.00  0.00    -0.001 A 
ATOM     34  C   UNL     1       2.418   1.023  -7.877  0.00  0.00    +0.010 A 
ATOM     35  C   UNL     1       3.110   1.775  -8.762  0.00  0.00    +0.001 A 
ATOM     36  C   UNL     1       2.466   2.505  -9.771  0.00  0.00    +0.002 A 
ATOM     37  C   UNL     1       1.125   2.507  -9.927  0.00  0.00    +0.026 A 
ATOM     38  C   UNL     1       0.298   1.750  -9.051  0.00  0.00    +0.043 A 
ATOM     39  N   UNL     1      -1.002   1.593  -8.996  0.00  0.00    -0.380 N 
ATOM     40  C   UNL     1      -1.317   0.690  -7.883  0.00  0.00    +0.144 C 
ATOM     41  H   UNL     1      -1.647   2.002  -9.594  0.00  0.00    +0.160 HD
ENDBRANCH  31  32
ENDBRANCH  26  31
ENDBRANCH  25  26
ENDBRANCH  24  25
ENDBRANCH   3  24
TORSDOF 8
