REMARK  Name = ZINC58435832
REMARK  5 active torsions:
REMARK  status: ('A' for Active; 'I' for Inactive)
REMARK    1  A    between atoms: C_1  and  N_2
REMARK    2  A    between atoms: N_2  and  C_3
REMARK    3  A    between atoms: N_6  and  C_7
REMARK    4  A    between atoms: C_12  and  N_13
REMARK    5  A    between atoms: C_14  and  C_16
REMARK                            x       y       z     vdW  Elec       q    Type
REMARK                         _______ _______ _______ _____ _____    ______ ____
ROOT
ATOM      1  C   UNL     1      -2.372  -2.718   0.089  0.00  0.00    +0.056 A 
ATOM      2  C   UNL     1      -3.562  -2.007   0.080  0.00  0.00    +0.025 A 
ATOM      3  C   UNL     1      -4.768  -2.676   0.172  0.00  0.00    +0.002 A 
ATOM      4  C   UNL     1      -4.792  -4.055   0.273  0.00  0.00    +0.002 A 
ATOM      5  C   UNL     1      -3.611  -4.772   0.283  0.00  0.00    +0.025 A 
ATOM      6  C   UNL     1      -2.396  -4.109   0.185  0.00  0.00    +0.055 A 
ENDROOT
BRANCH   1  12
ATOM      7  C   UNL     1       0.121   1.192  -1.208  0.00  0.00    +0.133 C 
ATOM      8  N   UNL     1       0.060  -0.128  -0.576  0.00  0.00    -0.291 N 
ATOM      9  C   UNL     1       1.252  -0.688   0.066  0.00  0.00    +0.133 C 
ATOM     10  C   UNL     1      -1.092  -0.827  -0.586  0.00  0.00    +0.306 C 
ATOM     11  O   UNL     1      -2.081  -0.362  -1.119  0.00  0.00    -0.252 OA
ATOM     12  N   UNL     1      -1.148  -2.042  -0.004  0.00  0.00    -0.268 N 
ATOM     13  H   UNL     1      -0.341  -2.447   0.350  0.00  0.00    +0.156 HD
ENDBRANCH   1  12
BRANCH   6  14
ATOM     14  N   UNL     1      -1.198  -4.834   0.189  0.00  0.00    -0.280 N 
ATOM     15  C   UNL     1      -1.149  -6.050   0.766  0.00  0.00    +0.255 C 
ATOM     16  O   UNL     1      -2.114  -6.476   1.373  0.00  0.00    -0.269 OA
ATOM     17  H   UNL     1      -0.404  -4.460  -0.225  0.00  0.00    +0.155 HD
BRANCH  15  18
ATOM     18  C   UNL     1       0.072  -6.863   0.664  0.00  0.00    +0.075 A 
ATOM     19  C   UNL     1       0.309  -8.103   1.169  0.00  0.00    +0.029 A 
ATOM     20  C   UNL     1       1.556  -8.719   0.961  0.00  0.00    -0.010 A 
ATOM     21  C   UNL     1       1.990  -9.995   1.404  0.00  0.00    +0.009 A 
ATOM     22  C   UNL     1       3.238 -10.444   1.113  0.00  0.00    +0.001 A 
ATOM     23  C   UNL     1       4.134  -9.678   0.377  0.00  0.00    +0.001 A 
ATOM     24  C   UNL     1       3.753  -8.431  -0.074  0.00  0.00    +0.015 A 
ATOM     25  C   UNL     1       2.488  -7.962   0.213  0.00  0.00    +0.020 A 
ATOM     26  S   UNL     1       1.604  -6.469  -0.161  0.00  0.00    -0.084 S 
ENDBRANCH  15  18
ENDBRANCH   6  14
TORSDOF 3
