REMARK  Name = ZINC63258820
REMARK  6 active torsions:
REMARK  status: ('A' for Active; 'I' for Inactive)
REMARK    1  A    between atoms: C_4  and  C_7
REMARK    2  A    between atoms: C_10  and  C_13
REMARK    3  A    between atoms: C_13  and  S_14
REMARK    4  A    between atoms: S_14  and  C_15
REMARK    5  A    between atoms: C_18  and  C_27
REMARK    6  A    between atoms: N_19  and  C_20
REMARK                            x       y       z     vdW  Elec       q    Type
REMARK                         _______ _______ _______ _____ _____    ______ ____
ROOT
ATOM      1  C   UNL     1       2.910  -5.928  -2.885  0.00  0.00    +0.197 A 
ATOM      2  N   UNL     1       3.406  -7.004  -2.293  0.00  0.00    -0.122 NA
ATOM      3  N   UNL     1       3.169  -8.050  -3.002  0.00  0.00    -0.128 NA
ATOM      4  C   UNL     1       2.504  -7.709  -4.096  0.00  0.00    +0.168 A 
ATOM      5  N   UNL     1       2.317  -6.337  -4.043  0.00  0.00    -0.270 N 
ENDROOT
BRANCH   4   6
ATOM      6  C   UNL     1       2.067  -8.573  -5.112  0.00  0.00    +0.025 C 
ATOM      7  C   UNL     1       2.237  -9.956  -5.173  0.00  0.00    +0.006 A 
ATOM      8  C   UNL     1       2.856 -10.880  -4.304  0.00  0.00    +0.010 A 
ATOM      9  C   UNL     1       2.873 -12.199  -4.625  0.00  0.00    +0.001 A 
ATOM     10  C   UNL     1       2.289 -12.673  -5.802  0.00  0.00    +0.002 A 
ATOM     11  C   UNL     1       1.677 -11.843  -6.682  0.00  0.00    +0.026 A 
ATOM     12  C   UNL     1       1.620 -10.451  -6.415  0.00  0.00    +0.043 A 
ATOM     13  N   UNL     1       1.093  -9.453  -7.097  0.00  0.00    -0.380 N 
ATOM     14  C   UNL     1       1.307  -8.200  -6.365  0.00  0.00    +0.152 C 
ATOM     15  H   UNL     1       0.633  -9.535  -7.947  0.00  0.00    +0.160 HD
ENDBRANCH   4   6
BRANCH   5  16
ATOM     16  C   UNL     1       1.659  -5.535  -4.985  0.00  0.00    +0.051 A 
ATOM     17  C   UNL     1       0.295  -5.690  -5.199  0.00  0.00    +0.028 A 
ATOM     18  C   UNL     1      -0.351  -4.899  -6.128  0.00  0.00    +0.022 A 
ATOM     19  C   UNL     1       0.358  -3.953  -6.846  0.00  0.00    +0.041 A 
ATOM     20  C   UNL     1       1.717  -3.796  -6.635  0.00  0.00    +0.022 A 
ATOM     21  C   UNL     1       2.367  -4.581  -5.703  0.00  0.00    +0.028 A 
ATOM     22 CL   UNL     1      -0.458  -2.960  -8.014  0.00  0.00    -0.084 Cl
ENDBRANCH   5  16
BRANCH   1  23
ATOM     23  S   UNL     1       2.993  -4.274  -2.284  0.00  0.00    -0.080 S 
BRANCH  23  24
ATOM     24  C   UNL     1       3.902  -4.421  -0.721  0.00  0.00    +0.128 C 
BRANCH  24  27
ATOM     25  C   UNL     1       3.711  -0.707  -0.038  0.00  0.00    +0.193 C 
ATOM     26  N   UNL     1       3.568  -2.042  -0.655  0.00  0.00    -0.272 NA
ATOM     27  C   UNL     1       4.045  -3.059  -0.093  0.00  0.00    +0.035 C 
ATOM     28  C   UNL     1       4.771  -2.888   1.234  0.00  0.00    +0.122 C 
ATOM     29  S   UNL     1       4.238  -1.173   1.670  0.00  0.00    -0.124 S 
BRANCH  25  33
ATOM     30  C   UNL     1      -0.017   1.378   0.010  0.00  0.00    +0.000 A 
ATOM     31  C   UNL     1       1.171   2.086   0.002  0.00  0.00    +0.000 A 
ATOM     32  C   UNL     1       2.377   1.411  -0.013  0.00  0.00    +0.006 A 
ATOM     33  C   UNL     1       2.396   0.029  -0.020  0.00  0.00    -0.013 A 
ATOM     34  C   UNL     1       1.208  -0.679  -0.012  0.00  0.00    +0.006 A 
ATOM     35  C   UNL     1       0.002  -0.004   0.002  0.00  0.00    +0.000 A 
ENDBRANCH  25  33
ENDBRANCH  24  27
ENDBRANCH  23  24
ENDBRANCH   1  23
TORSDOF 6
