REMARK  Name = ZINC34932099
REMARK  7 active torsions:
REMARK  status: ('A' for Active; 'I' for Inactive)
REMARK    1  A    between atoms: C_1  and  C_2
REMARK    2  A    between atoms: C_12  and  C_26
REMARK    3  A    between atoms: C_14  and  C_19
REMARK    4  A    between atoms: C_19  and  C_21
REMARK    5  A    between atoms: C_29  and  O_32
REMARK    6  A    between atoms: O_32  and  C_33
REMARK    7  A    between atoms: C_33  and  C_34
REMARK                            x       y       z     vdW  Elec       q    Type
REMARK                         _______ _______ _______ _____ _____    ______ ____
ROOT
ATOM      1  C   UNL     1       0.245   1.548   0.127  0.00  0.00    +0.044 C 
ATOM      2  C   UNL     1       0.218   0.042   0.100  0.00  0.00    -0.049 A 
ATOM      3  C   UNL     1       0.187  -0.637  -1.110  0.00  0.00    +0.005 A 
ATOM      4  C   UNL     1       0.161  -2.006  -1.163  0.00  0.00    +0.029 A 
ATOM      5  C   UNL     1       0.167  -2.775   0.024  0.00  0.00    +0.080 A 
ATOM      6  C   UNL     1       0.199  -2.050   1.237  0.00  0.00    +0.041 A 
ATOM      7  C   UNL     1       0.230  -0.678   1.280  0.00  0.00    +0.020 A 
ATOM      8  S   UNL     1       0.197  -3.346   2.453  0.00  0.00    -0.052 S 
ATOM      9  C   UNL     1       0.154  -4.722   1.313  0.00  0.00    +0.169 A 
ATOM     10  N   UNL     1       0.145  -4.119   0.147  0.00  0.00    -0.224 NA
ATOM     11  N   UNL     1       0.135  -6.077   1.590  0.00  0.00    -0.232 N 
ATOM     12  C   UNL     1       0.106  -7.161   0.600  0.00  0.00    +0.152 C 
ATOM     13  C   UNL     1       0.094  -8.450   1.389  0.00  0.00    +0.080 C 
ATOM     14  C   UNL     1       0.116  -8.107   2.698  0.00  0.00    +0.250 C 
ATOM     15  C   UNL     1       0.147  -6.636   2.814  0.00  0.00    +0.293 C 
ATOM     16  O   UNL     1       0.176  -6.020   3.861  0.00  0.00    -0.266 OA
ATOM     17  O   UNL     1       0.114  -8.976   3.736  0.00  0.00    -0.282 OA
ENDROOT
BRANCH  12  18
ATOM     18  C   UNL     1      -1.138  -7.058  -0.245  0.00  0.00    -0.022 A 
ATOM     19  C   UNL     1      -2.362  -6.823   0.354  0.00  0.00    +0.009 A 
ATOM     20  C   UNL     1      -3.503  -6.728  -0.418  0.00  0.00    +0.046 A 
ATOM     21  C   UNL     1      -3.421  -6.868  -1.796  0.00  0.00    +0.121 A 
ATOM     22  C   UNL     1      -2.191  -7.103  -2.394  0.00  0.00    +0.046 A 
ATOM     23  C   UNL     1      -1.052  -7.192  -1.618  0.00  0.00    +0.009 A 
BRANCH  21  24
ATOM     24  O   UNL     1      -4.542  -6.776  -2.558  0.00  0.00    -0.488 OA
BRANCH  24  25
ATOM     25  C   UNL     1      -4.382  -6.931  -3.969  0.00  0.00    +0.256 C 
BRANCH  25  26
ATOM     26  C   UNL     1      -5.723  -6.798  -4.644  0.00  0.00    +0.006 C 
ATOM     27  C   UNL     1      -5.843  -6.067  -5.725  0.00  0.00    +0.007 C 
ENDBRANCH  25  26
ENDBRANCH  24  25
ENDBRANCH  21  24
ENDBRANCH  12  18
BRANCH  13  28
ATOM     28  C   UNL     1       0.065  -9.811   0.841  0.00  0.00    +0.230 C 
ATOM     29  O   UNL     1      -0.905 -10.523   1.029  0.00  0.00    -0.283 OA
BRANCH  28  30
ATOM     30  C   UNL     1       1.204 -10.314   0.067  0.00  0.00    +0.175 A 
ATOM     31  C   UNL     1       1.270 -11.527  -0.585  0.00  0.00    +0.053 A 
ATOM     32  C   UNL     1       2.535 -11.587  -1.188  0.00  0.00    +0.042 A 
ATOM     33  C   UNL     1       3.176 -10.434  -0.888  0.00  0.00    +0.196 A 
ATOM     34  O   UNL     1       2.372  -9.670  -0.139  0.00  0.00    -0.460 OA
ENDBRANCH  28  30
ENDBRANCH  13  28
TORSDOF 6
