REMARK  Name = ZINC21983773
REMARK  10 active torsions:
REMARK  status: ('A' for Active; 'I' for Inactive)
REMARK    1  A    between atoms: C_1  and  C_2
REMARK    2  A    between atoms: C_2  and  O_4
REMARK    3  A    between atoms: O_4  and  C_5
REMARK    4  A    between atoms: C_5  and  C_6
REMARK    5  A    between atoms: C_6  and  C_8
REMARK    6  A    between atoms: C_14  and  C_33
REMARK    7  A    between atoms: C_16  and  O_32
REMARK    8  A    between atoms: C_29  and  C_30
REMARK    9  A    between atoms: C_35  and  C_37
REMARK   10  A    between atoms: C_35  and  C_38
REMARK                            x       y       z     vdW  Elec       q    Type
REMARK                         _______ _______ _______ _____ _____    ______ ____
ROOT
ATOM      1  C   UNL     1       2.460   5.830   0.619  0.00  0.00    +0.165 C 
ATOM      2  C   UNL     1       1.216   5.773  -0.347  0.00  0.00    +0.162 C 
ATOM      3  C   UNL     1       0.887   4.302  -0.253  0.00  0.00    +0.039 C 
ATOM      4  C   UNL     1       2.299   3.672  -0.417  0.00  0.00    +0.007 C 
ATOM      5  C   UNL     1       3.311   4.685   0.102  0.00  0.00    +0.012 C 
ATOM      6  C   UNL     1       4.225   4.227   1.218  0.00  0.00    +0.044 C 
ATOM      7  C   UNL     1       4.476   2.699   1.211  0.00  0.00    +0.154 C 
ATOM      8  C   UNL     1       3.091   2.055   1.341  0.00  0.00    +0.153 C 
ATOM      9  C   UNL     1       2.362   2.255   0.025  0.00  0.00    +0.034 C 
ATOM     10  C   UNL     1       0.975   1.609   0.126  0.00  0.00    +0.011 C 
ATOM     11  C   UNL     1       1.169   0.091   0.102  0.00  0.00    +0.032 C 
ATOM     12  C   UNL     1       2.229  -0.325   1.079  0.00  0.00    -0.053 C 
ATOM     13  C   UNL     1       2.348  -1.639   1.379  0.00  0.00    +0.051 C 
ATOM     14  C   UNL     1       3.462  -1.965   2.312  0.00  0.00    +0.179 C 
ATOM     15  O   UNL     1       3.343  -2.768   3.219  0.00  0.00    -0.288 OA
ATOM     16  C   UNL     1       4.732  -1.232   2.051  0.00  0.00    +0.047 C 
ATOM     17  C   UNL     1       4.582   0.076   1.747  0.00  0.00    -0.009 C 
ATOM     18  C   UNL     1       3.180   0.613   1.743  0.00  0.00    +0.044 C 
ATOM     19  C   UNL     1       2.766   0.598   3.216  0.00  0.00    +0.023 C 
ATOM     20  F   UNL     1       2.366   2.748   2.317  0.00  0.00    -0.238 F 
ATOM     21  C   UNL     1       4.162   5.186  -1.067  0.00  0.00    +0.015 C 
ATOM     22  O   UNL     1       0.456   6.824   0.177  0.00  0.00    -0.343 OA
ATOM     23  C   UNL     1       1.442   7.808   0.602  0.00  0.00    +0.166 C 
ATOM     24  O   UNL     1       2.765   7.196   0.492  0.00  0.00    -0.332 OA
ATOM     25  C   UNL     1       1.178   8.213   2.053  0.00  0.00    +0.074 C 
ATOM     26  C   UNL     1       1.366   9.040  -0.302  0.00  0.00    +0.074 C 
ENDROOT
BRANCH   1  27
ATOM     27  C   UNL     1       1.998   5.535   2.023  0.00  0.00    +0.205 C 
ATOM     28  O   UNL     1       0.991   4.895   2.206  0.00  0.00    -0.291 OA
BRANCH  27  29
ATOM     29  C   UNL     1       2.795   6.039   3.199  0.00  0.00    +0.309 C 
BRANCH  29  30
ATOM     30  O   UNL     1       2.229   5.513   4.428  0.00  0.00    -0.457 OA
BRANCH  30  32
ATOM     31  C   UNL     1       2.295   5.361   6.892  0.00  0.00    +0.136 C 
ATOM     32  C   UNL     1       2.827   5.869   5.576  0.00  0.00    +0.304 C 
ATOM     33  O   UNL     1       3.791   6.597   5.555  0.00  0.00    -0.251 OA
ENDBRANCH  30  32
ENDBRANCH  29  30
ENDBRANCH  27  29
ENDBRANCH   1  27
BRANCH   7  34
ATOM     34  O   UNL     1       5.105   2.258   0.005  0.00  0.00    -0.389 OA
ATOM     35  H   UNL     1       5.342   1.193  -0.134  0.00  0.00    +0.210 HD
ENDBRANCH   7  34
TORSDOF 5
