REMARK  Name = ZINC02108068
REMARK  11 active torsions:
REMARK  status: ('A' for Active; 'I' for Inactive)
REMARK    1  A    between atoms: C_1  and  C_2
REMARK    2  A    between atoms: C_2  and  C_3
REMARK    3  A    between atoms: C_3  and  C_4
REMARK    4  A    between atoms: C_4  and  C_5
REMARK    5  A    between atoms: C_5  and  C_6
REMARK    6  A    between atoms: C_6  and  N_7
REMARK    7  A    between atoms: C_10  and  C_17
REMARK    8  A    between atoms: C_11  and  O_16
REMARK    9  A    between atoms: C_24  and  O_25
REMARK   10  A    between atoms: O_25  and  C_26
REMARK   11  A    between atoms: C_32  and  N_60
REMARK                            x       y       z     vdW  Elec       q    Type
REMARK                         _______ _______ _______ _____ _____    ______ ____
ROOT
ATOM      1  N   UNL     1      -2.096  -0.763  -3.141  0.00  0.00    -0.288 N 
ATOM      2  C   UNL     1      -2.222   0.287  -2.305  0.00  0.00    +0.260 A 
ATOM      3  O   UNL     1      -2.216   1.425  -2.743  0.00  0.00    -0.267 OA
ATOM      4  C   UNL     1      -2.360   0.061  -0.924  0.00  0.00    +0.067 A 
ATOM      5  C   UNL     1      -2.358  -1.221  -0.459  0.00  0.00    +0.199 A 
ATOM      6  N   UNL     1      -2.233  -2.260  -1.345  0.00  0.00    -0.306 N 
ATOM      7  H   UNL     1      -2.234  -3.174  -1.019  0.00  0.00    +0.171 HD
ATOM      8  C   UNL     1      -2.102  -2.021  -2.663  0.00  0.00    +0.163 A 
ATOM      9  S   UNL     1      -1.941  -3.336  -3.747  0.00  0.00    -0.013 S 
ENDROOT
BRANCH   4  10
ATOM     10  C   UNL     1      -2.502   1.220   0.030  0.00  0.00    +0.007 C 
ATOM     11  C   UNL     1      -1.233   2.031   0.019  0.00  0.00    -0.008 A 
ATOM     12  C   UNL     1      -1.251   3.410   0.027  0.00  0.00    -0.040 A 
ATOM     13  C   UNL     1      -0.059   4.119   0.023  0.00  0.00    +0.053 A 
ATOM     14  C   UNL     1       1.155   3.453   0.010  0.00  0.00    +0.170 A 
ATOM     15  C   UNL     1       1.178   2.062   0.002  0.00  0.00    +0.208 A 
ATOM     16  C   UNL     1      -0.016   1.356   0.009  0.00  0.00    +0.167 A 
ATOM     17  O   UNL     1       2.479   1.647  -0.012  0.00  0.00    -0.449 OA
ATOM     18  C   UNL     1       3.245   2.795  -0.424  0.00  0.00    +0.467 C 
ATOM     19  O   UNL     1       2.441   3.911   0.002  0.00  0.00    -0.452 OA
ATOM     20  C   UNL     1      -2.545   4.183   0.029  0.00  0.00    +0.017 C 
ATOM     21  C   UNL     1      -3.699   3.271   0.435  0.00  0.00    -0.073 C 
ATOM     22  C   UNL     1      -4.899   1.291  -0.281  0.00  0.00    -0.095 C 
ATOM     23  N   UNL     1      -3.637   2.053  -0.399  0.00  0.00    +0.386 N 
ATOM     24  H   UNL     1      -3.502   2.325  -1.380  0.00  0.00    -0.081 HD
BRANCH  16  25
ATOM     25  O   UNL     1       0.002  -0.004   0.002  0.00  0.00    -0.491 OA
ATOM     26  C   UNL     1       0.023  -0.660   1.272  0.00  0.00    +0.277 C 
ENDBRANCH  16  25
ENDBRANCH   4  10
BRANCH   5  27
ATOM     27  O   UNL     1      -2.483  -1.465   0.863  0.00  0.00    -0.493 OA
ATOM     28  H   UNL     1      -2.471  -2.404   1.092  0.00  0.00    +0.294 HD
ENDBRANCH   5  27
BRANCH   1  29
ATOM     29  C   UNL     1      -1.952  -0.533  -4.580  0.00  0.00    +0.127 C 
BRANCH  29  30
ATOM     30  C   UNL     1      -0.468  -0.402  -4.930  0.00  0.00    +0.022 C 
BRANCH  30  31
ATOM     31  C   UNL     1      -0.317  -0.162  -6.433  0.00  0.00    +0.002 C 
BRANCH  31  32
ATOM     32  C   UNL     1       1.167  -0.031  -6.782  0.00  0.00    -0.000 C 
BRANCH  32  34
ATOM     33  C   UNL     1       2.802   0.340  -8.635  0.00  0.00    +0.004 C 
ATOM     34  C   UNL     1       1.318   0.209  -8.286  0.00  0.00    -0.003 C 
ENDBRANCH  32  34
ENDBRANCH  31  32
ENDBRANCH  30  31
ENDBRANCH  29  30
ENDBRANCH   1  29
TORSDOF 8
