REMARK  Name = ZINC39469604
REMARK  7 active torsions:
REMARK  status: ('A' for Active; 'I' for Inactive)
REMARK    1  A    between atoms: C_1  and  O_2
REMARK    2  A    between atoms: O_2  and  C_3
REMARK    3  A    between atoms: C_15  and  C_16
REMARK    4  A    between atoms: C_16  and  C_17
REMARK    5  A    between atoms: P_25  and  S_28
REMARK    6  A    between atoms: S_28  and  O_31
REMARK    7  A    between atoms: O_31  and  C_32
REMARK                            x       y       z     vdW  Elec       q    Type
REMARK                         _______ _______ _______ _____ _____    ______ ____
ROOT
ATOM      1  C   UNL     1      -1.200  -0.637   0.010  0.00  0.00    +0.120 C 
ATOM      2  C   UNL     1      -2.335   0.069   0.019  0.00  0.00    +0.021 C 
ATOM      3  C   UNL     1      -3.655  -0.652   0.040  0.00  0.00    +0.008 C 
ATOM      4  C   UNL     1      -4.748   0.243   0.606  0.00  0.00    -0.046 C 
ATOM      5  N   UNL     1      -4.458   0.621   1.999  0.00  0.00    +0.398 N 
ATOM      6  C   UNL     1      -4.383  -0.573   2.844  0.00  0.00    -0.020 C 
ATOM      7  C   UNL     1      -3.273  -1.505   2.343  0.00  0.00    -0.003 C 
ATOM      8  C   UNL     1      -3.541  -1.906   0.912  0.00  0.00    +0.016 C 
ATOM      9  C   UNL     1      -2.364  -2.724   0.437  0.00  0.00    -0.016 C 
ATOM     10  C   UNL     1      -1.265  -2.112   0.003  0.00  0.00    -0.005 C 
ATOM     11  C   UNL     1      -4.043  -0.216   4.296  0.00  0.00    +0.158 C 
ATOM     12  O   UNL     1      -5.079   0.623   4.840  0.00  0.00    -0.301 OA
ATOM     13  P   UNL     1      -5.526   1.927   3.975  0.00  0.00    +0.431 P 
ATOM     14  O   UNL     1      -4.565   3.033   4.183  0.00  0.00    -0.246 OA
ATOM     15  N   UNL     1      -5.502   1.430   2.397  0.00  0.00    -0.271 NA
ATOM     16  H   UNL     1      -6.192   1.700   1.772  0.00  0.00    +0.113 HD
ATOM     17  H   UNL     1      -3.592   1.137   2.039  0.00  0.00    -0.055 HD
ENDROOT
BRANCH  13  18
ATOM     18  S   UNL     1      -7.480   2.539   4.524  0.00  0.00    +0.209 S 
ATOM     19  O   UNL     1      -7.732   3.756   3.835  0.00  0.00    -0.126 OA
ATOM     20  O   UNL     1      -8.316   1.398   4.388  0.00  0.00    -0.126 OA
BRANCH  18  21
ATOM     21  O   UNL     1      -7.445   2.878   6.008  0.00  0.00    -0.339 OA
BRANCH  21  22
ATOM     22  C   UNL     1      -6.839   4.061   6.290  0.00  0.00    +0.157 A 
ATOM     23  C   UNL     1      -5.474   4.102   6.534  0.00  0.00    +0.048 A 
ATOM     24  C   UNL     1      -4.861   5.306   6.821  0.00  0.00    +0.004 A 
ATOM     25  C   UNL     1      -5.606   6.470   6.866  0.00  0.00    +0.000 A 
ATOM     26  C   UNL     1      -6.967   6.431   6.624  0.00  0.00    +0.004 A 
ATOM     27  C   UNL     1      -7.584   5.231   6.330  0.00  0.00    +0.048 A 
ENDBRANCH  21  22
ENDBRANCH  18  21
ENDBRANCH  13  18
BRANCH   1  29
ATOM     28  C   UNL     1      -0.017   1.425   0.010  0.00  0.00    +0.277 C 
ATOM     29  O   UNL     1       0.002  -0.004   0.002  0.00  0.00    -0.495 OA
ENDBRANCH   1  29
BRANCH  10  30
ATOM     30  C   UNL     1      -0.091  -2.918  -0.489  0.00  0.00    +0.073 C 
BRANCH  30  31
ATOM     31  C   UNL     1      -0.167  -3.052  -1.988  0.00  0.00    -0.043 A 
ATOM     32  C   UNL     1      -0.845  -4.116  -2.554  0.00  0.00    +0.004 A 
ATOM     33  C   UNL     1      -0.914  -4.239  -3.929  0.00  0.00    +0.000 A 
ATOM     34  C   UNL     1      -0.306  -3.298  -4.739  0.00  0.00    +0.000 A 
ATOM     35  C   UNL     1       0.372  -2.234  -4.173  0.00  0.00    +0.000 A 
ATOM     36  C   UNL     1       0.437  -2.109  -2.798  0.00  0.00    +0.004 A 
ENDBRANCH  30  31
ENDBRANCH  10  30
TORSDOF 6
