REMARK  Name = ZINC12496844
REMARK  10 active torsions:
REMARK  status: ('A' for Active; 'I' for Inactive)
REMARK    1  A    between atoms: C_1  and  O_2
REMARK    2  A    between atoms: O_2  and  C_3
REMARK    3  A    between atoms: C_3  and  C_5
REMARK    4  A    between atoms: C_5  and  C_31
REMARK    5  A    between atoms: C_10  and  C_12
REMARK    6  A    between atoms: C_15  and  O_18
REMARK    7  A    between atoms: N_21  and  C_24
REMARK    8  A    between atoms: C_31  and  C_32
REMARK    9  A    between atoms: C_32  and  S_33
REMARK   10  A    between atoms: S_33  and  C_34
REMARK                            x       y       z     vdW  Elec       q    Type
REMARK                         _______ _______ _______ _____ _____    ______ ____
ROOT
ATOM      1  C   UNL     1       0.011   1.072   2.506  0.00  0.00    +0.044 C 
ATOM      2  C   UNL     1      -0.671   1.543   3.769  0.00  0.00    +0.086 C 
ATOM      3  C   UNL     1      -1.934   0.595   3.698  0.00  0.00    +0.077 C 
ATOM      4  C   UNL     1      -1.289  -0.724   3.476  0.00  0.00    -0.027 C 
ATOM      5  C   UNL     1      -2.724   1.163   4.786  0.00  0.00    +0.229 C 
ATOM      6  O   UNL     1      -3.440   0.572   5.567  0.00  0.00    -0.275 OA
ATOM      7  N   UNL     1      -2.481   2.512   4.731  0.00  0.00    -0.210 N 
ATOM      8  C   UNL     1      -1.398   2.820   3.950  0.00  0.00    +0.229 C 
ATOM      9  O   UNL     1      -1.099   3.906   3.502  0.00  0.00    -0.275 OA
ATOM     10  N   UNL     1      -0.105  -0.412   2.625  0.00  0.00    +0.395 N 
ATOM     11  H   UNL     1       0.744  -0.793   3.058  0.00  0.00    -0.083 HD
ATOM     12  H   UNL     1      -0.229  -0.826   1.693  0.00  0.00    -0.083 HD
ENDROOT
BRANCH   7  13
ATOM     13  C   UNL     1      -3.254   3.471   5.402  0.00  0.00    +0.044 A 
ATOM     14  C   UNL     1      -2.935   4.818   5.298  0.00  0.00    +0.027 A 
ATOM     15  C   UNL     1      -3.701   5.761   5.955  0.00  0.00    +0.040 A 
ATOM     16  C   UNL     1      -4.781   5.363   6.725  0.00  0.00    +0.124 A 
ATOM     17  C   UNL     1      -5.098   4.020   6.834  0.00  0.00    +0.040 A 
ATOM     18  C   UNL     1      -4.337   3.074   6.175  0.00  0.00    +0.027 A 
ATOM     19  F   UNL     1      -5.526   6.287   7.371  0.00  0.00    -0.205 F 
ENDBRANCH   7  13
BRANCH   4  20
ATOM     20  C   UNL     1      -0.854  -1.324   4.789  0.00  0.00    -0.060 A 
ATOM     21  C   UNL     1       0.323  -0.906   5.382  0.00  0.00    +0.005 A 
ATOM     22  C   UNL     1       0.721  -1.450   6.588  0.00  0.00    +0.045 A 
ATOM     23  C   UNL     1      -0.056  -2.425   7.198  0.00  0.00    +0.117 A 
ATOM     24  C   UNL     1      -1.233  -2.846   6.597  0.00  0.00    +0.045 A 
ATOM     25  C   UNL     1      -1.630  -2.296   5.394  0.00  0.00    +0.005 A 
BRANCH  23  26
ATOM     26  O   UNL     1       0.336  -2.966   8.381  0.00  0.00    -0.507 OA
ATOM     27  H   UNL     1       0.896  -3.749   8.290  0.00  0.00    +0.292 HD
ENDBRANCH  23  26
ENDBRANCH   4  20
BRANCH   1  28
ATOM     28  C   UNL     1       1.453   1.509   2.482  0.00  0.00    +0.297 C 
ATOM     29  O   UNL     1       1.792   2.508   3.073  0.00  0.00    -0.252 OA
BRANCH  28  31
ATOM     30  C   UNL     1       3.732   1.270   1.826  0.00  0.00    +0.280 C 
ATOM     31  O   UNL     1       2.362   0.789   1.806  0.00  0.00    -0.469 OA
ENDBRANCH  28  31
ENDBRANCH   1  28
BRANCH   1  32
ATOM     32  C   UNL     1      -0.729   1.579   1.267  0.00  0.00    +0.010 C 
BRANCH  32  33
ATOM     33  C   UNL     1       0.003   1.109   0.008  0.00  0.00    +0.068 C 
BRANCH  33  34
ATOM     34  S   UNL     1      -0.875   1.710  -1.462  0.00  0.00    -0.164 S 
ATOM     35  C   UNL     1       0.107   1.074  -2.849  0.00  0.00    +0.084 C 
ENDBRANCH  33  34
ENDBRANCH  32  33
ENDBRANCH   1  32
TORSDOF 8
