REMARK  Name = ZINC01773718
REMARK  7 active torsions:
REMARK  status: ('A' for Active; 'I' for Inactive)
REMARK    1  A    between atoms: C_1  and  O_2
REMARK    2  A    between atoms: O_2  and  C_3
REMARK    3  A    between atoms: C_6  and  C_18
REMARK    4  A    between atoms: C_8  and  C_9
REMARK    5  A    between atoms: C_9  and  O_10
REMARK    6  A    between atoms: O_10  and  C_11
REMARK    7  A    between atoms: N_29  and  C_30
REMARK                            x       y       z     vdW  Elec       q    Type
REMARK                         _______ _______ _______ _____ _____    ______ ____
ROOT
ATOM      1  C   UNL     1      -2.598   5.981   1.325  0.00  0.00    +0.198 C 
ATOM      2  N   UNL     1      -3.446   7.171   1.452  0.00  0.00    -0.321 N 
ATOM      3  C   UNL     1      -3.294   8.202   0.532  0.00  0.00    +0.041 A 
ATOM      4  C   UNL     1      -3.564   9.520   0.862  0.00  0.00    +0.024 A 
ATOM      5  C   UNL     1      -3.414  10.508  -0.091  0.00  0.00    +0.002 A 
ATOM      6  C   UNL     1      -2.995  10.192  -1.374  0.00  0.00    +0.001 A 
ATOM      7  C   UNL     1      -2.716   8.886  -1.718  0.00  0.00    +0.015 A 
ATOM      8  C   UNL     1      -2.856   7.880  -0.764  0.00  0.00    +0.058 A 
ATOM      9  C   UNL     1      -2.538   6.474  -1.073  0.00  0.00    +0.254 C 
ATOM     10  O   UNL     1      -2.309   6.134  -2.218  0.00  0.00    -0.270 OA
ATOM     11  N   UNL     1      -2.507   5.568  -0.076  0.00  0.00    -0.244 N 
ATOM     12  H   UNL     1      -4.101   7.237   2.164  0.00  0.00    +0.148 HD
ENDROOT
BRANCH  11  13
ATOM     13  C   UNL     1      -2.381   4.213  -0.384  0.00  0.00    +0.046 A 
ATOM     14  C   UNL     1      -1.177   3.711  -0.830  0.00  0.00    +0.024 A 
ATOM     15  C   UNL     1      -1.041   2.361  -1.140  0.00  0.00    +0.002 A 
ATOM     16  C   UNL     1      -2.086   1.499  -1.003  0.00  0.00    +0.008 A 
ATOM     17  C   UNL     1      -3.328   1.969  -0.542  0.00  0.00    -0.016 A 
ATOM     18  C   UNL     1      -3.480   3.342  -0.228  0.00  0.00    +0.004 A 
ATOM     19  C   UNL     1      -4.719   3.809   0.239  0.00  0.00    +0.010 A 
ATOM     20  C   UNL     1      -5.758   2.940   0.378  0.00  0.00    +0.001 A 
ATOM     21  C   UNL     1      -5.611   1.590   0.064  0.00  0.00    +0.001 A 
ATOM     22  C   UNL     1      -4.424   1.102  -0.391  0.00  0.00    +0.008 A 
ENDBRANCH  11  13
BRANCH   1  26
ATOM     23  C   UNL     1       1.316   6.871   2.793  0.00  0.00    +0.126 A 
ATOM     24  C   UNL     1       1.124   5.802   1.929  0.00  0.00    +0.046 A 
ATOM     25  C   UNL     1      -0.143   5.513   1.460  0.00  0.00    +0.010 A 
ATOM     26  C   UNL     1      -1.218   6.294   1.843  0.00  0.00    -0.008 A 
ATOM     27  C   UNL     1      -1.030   7.359   2.704  0.00  0.00    +0.017 A 
ATOM     28  C   UNL     1       0.235   7.649   3.180  0.00  0.00    +0.032 A 
BRANCH  23  30
ATOM     29  C   UNL     1       3.626   6.310   2.819  0.00  0.00    +0.277 C 
ATOM     30  O   UNL     1       2.560   7.154   3.260  0.00  0.00    -0.495 OA
ENDBRANCH  23  30
BRANCH  28  31
ATOM     31  C   UNL     1       0.439   8.810   4.119  0.00  0.00    +0.268 C 
BRANCH  31  32
ATOM     32  O   UNL     1      -0.815   9.451   4.364  0.00  0.00    -0.484 OA
BRANCH  32  33
ATOM     33  C   UNL     1      -0.806  10.525   5.197  0.00  0.00    +0.156 A 
ATOM     34  C   UNL     1       0.383  10.951   5.770  0.00  0.00    +0.048 A 
ATOM     35  C   UNL     1       0.390  12.046   6.613  0.00  0.00    +0.004 A 
ATOM     36  C   UNL     1      -0.788  12.712   6.894  0.00  0.00    +0.003 A 
ATOM     37  C   UNL     1      -1.977  12.288   6.329  0.00  0.00    +0.042 A 
ATOM     38  C   UNL     1      -1.989  11.195   5.481  0.00  0.00    +0.165 A 
ATOM     39  F   UNL     1      -3.150  10.781   4.929  0.00  0.00    -0.202 F 
ENDBRANCH  32  33
ENDBRANCH  31  32
ENDBRANCH  28  31
ENDBRANCH   1  26
TORSDOF 6
