REMARK  Name = ZINC38564165
REMARK  7 active torsions:
REMARK  status: ('A' for Active; 'I' for Inactive)
REMARK    1  A    between atoms: C_1  and  C_2
REMARK    2  A    between atoms: C_2  and  O_3
REMARK    3  A    between atoms: O_3  and  C_4
REMARK    4  A    between atoms: C_9  and  C_10
REMARK    5  A    between atoms: C_12  and  C_24
REMARK    6  A    between atoms: N_26  and  C_27
REMARK    7  A    between atoms: C_27  and  C_28
REMARK                            x       y       z     vdW  Elec       q    Type
REMARK                         _______ _______ _______ _____ _____    ______ ____
ROOT
ATOM      1  C   UNL     1       1.984  -1.436  -3.482  0.00  0.00    +0.079 C 
ATOM      2  N   UNL     1       1.811  -0.136  -3.389  0.00  0.00    -0.244 NA
ATOM      3  C   UNL     1       2.167   0.743  -4.337  0.00  0.00    +0.126 C 
ATOM      4  C   UNL     1       2.488   0.325  -5.630  0.00  0.00    +0.039 C 
ATOM      5  C   UNL     1       2.617  -1.043  -5.814  0.00  0.00    -0.008 C 
ATOM      6  C   UNL     1       2.597  -1.871  -6.905  0.00  0.00    +0.004 A 
ATOM      7  C   UNL     1       2.694  -1.612  -8.292  0.00  0.00    +0.010 A 
ATOM      8  C   UNL     1       2.585  -2.684  -9.128  0.00  0.00    +0.001 A 
ATOM      9  C   UNL     1       2.386  -3.990  -8.680  0.00  0.00    +0.002 A 
ATOM     10  C   UNL     1       2.304  -4.328  -7.364  0.00  0.00    +0.026 A 
ATOM     11  C   UNL     1       2.429  -3.270  -6.420  0.00  0.00    +0.044 A 
ATOM     12  N   UNL     1       2.450  -3.311  -5.110  0.00  0.00    -0.372 N 
ATOM     13  C   UNL     1       2.764  -1.984  -4.624  0.00  0.00    +0.160 C 
ATOM     14  H   UNL     1       2.287  -4.094  -4.561  0.00  0.00    +0.161 HD
ENDROOT
BRANCH   1  20
ATOM     15  C   UNL     1       2.272  -3.088  -1.641  0.00  0.00    +0.129 A 
ATOM     16  C   UNL     1       1.727  -3.929  -0.683  0.00  0.00    +0.046 A 
ATOM     17  C   UNL     1       0.356  -4.030  -0.548  0.00  0.00    +0.004 A 
ATOM     18  C   UNL     1      -0.487  -3.293  -1.366  0.00  0.00    +0.001 A 
ATOM     19  C   UNL     1       0.033  -2.451  -2.323  0.00  0.00    +0.013 A 
ATOM     20  C   UNL     1       1.422  -2.334  -2.469  0.00  0.00    +0.040 A 
BRANCH  15  21
ATOM     21  O   UNL     1       3.618  -2.989  -1.774  0.00  0.00    -0.492 OA
BRANCH  21  23
ATOM     22  C   UNL     1       5.898  -3.543  -1.195  0.00  0.00    +0.048 C 
ATOM     23  C   UNL     1       4.418  -3.786  -0.898  0.00  0.00    +0.226 C 
ENDBRANCH  21  23
ENDBRANCH  15  21
ENDBRANCH   1  20
BRANCH   3  24
ATOM     24  C   UNL     1       2.219   2.185  -4.006  0.00  0.00    +0.263 C 
ATOM     25  O   UNL     1       2.539   2.992  -4.857  0.00  0.00    -0.269 OA
ATOM     26  N   UNL     1       1.911   2.603  -2.763  0.00  0.00    -0.306 N 
ATOM     27  H   UNL     1       1.655   1.958  -2.084  0.00  0.00    +0.149 HD
BRANCH  26  28
ATOM     28  C   UNL     1       1.962   4.030  -2.435  0.00  0.00    +0.141 C 
BRANCH  28  29
ATOM     29  C   UNL     1       1.576   4.229  -0.992  0.00  0.00    -0.012 A 
ATOM     30  C   UNL     1       0.249   4.431  -0.642  0.00  0.00    +0.008 A 
ATOM     31  C   UNL     1      -0.059   4.609   0.698  0.00  0.00    +0.020 A 
ATOM     32  C   UNL     1       0.958   4.580   1.633  0.00  0.00    +0.111 A 
ATOM     33  N   UNL     1       2.209   4.386   1.263  0.00  0.00    -0.263 NA
ATOM     34  C   UNL     1       2.538   4.206  -0.001  0.00  0.00    +0.115 A 
ENDBRANCH  28  29
ENDBRANCH  26  28
ENDBRANCH   3  24
TORSDOF 6
