REMARK  Name = ZINC19529577
REMARK  10 active torsions:
REMARK  status: ('A' for Active; 'I' for Inactive)
REMARK    1  A    between atoms: C_1  and  C_2
REMARK    2  A    between atoms: C_2  and  O_3
REMARK    3  A    between atoms: O_3  and  C_4
REMARK    4  A    between atoms: C_4  and  C_6
REMARK    5  A    between atoms: C_6  and  C_29
REMARK    6  A    between atoms: C_11  and  C_14
REMARK    7  A    between atoms: C_17  and  N_20
REMARK    8  A    between atoms: N_20  and  C_21
REMARK    9  A    between atoms: N_20  and  C_22
REMARK   10  A    between atoms: N_25  and  C_28
REMARK                            x       y       z     vdW  Elec       q    Type
REMARK                         _______ _______ _______ _____ _____    ______ ____
ROOT
ATOM      1  C   UNL     1       1.556  -2.445   2.803  0.00  0.00    +0.070 C 
ATOM      2  C   UNL     1       0.943  -3.805   3.089  0.00  0.00    +0.090 C 
ATOM      3  C   UNL     1       1.111  -3.811   4.657  0.00  0.00    +0.077 C 
ATOM      4  C   UNL     1       0.579  -2.488   5.026  0.00  0.00    -0.026 C 
ATOM      5  N   UNL     1       1.215  -1.594   3.983  0.00  0.00    +0.398 N 
ATOM      6  C   UNL     1       0.918  -5.206   4.967  0.00  0.00    +0.224 C 
ATOM      7  O   UNL     1       0.401  -5.676   5.957  0.00  0.00    -0.275 OA
ATOM      8  N   UNL     1       1.445  -5.885   3.897  0.00  0.00    -0.245 N 
ATOM      9  C   UNL     1       1.689  -5.073   2.812  0.00  0.00    +0.225 C 
ATOM     10  O   UNL     1       2.366  -5.323   1.838  0.00  0.00    -0.275 OA
ATOM     11  C   UNL     1       1.713  -7.325   3.902  0.00  0.00    +0.141 C 
ATOM     12  H   UNL     1       2.052  -1.170   4.352  0.00  0.00    -0.083 HD
ATOM     13  H   UNL     1       0.559  -0.877   3.709  0.00  0.00    -0.083 HD
ENDROOT
BRANCH   4  14
ATOM     14  C   UNL     1      -0.925  -2.470   4.934  0.00  0.00    -0.060 A 
ATOM     15  C   UNL     1      -1.540  -2.324   3.704  0.00  0.00    +0.004 A 
ATOM     16  C   UNL     1      -2.918  -2.307   3.616  0.00  0.00    +0.023 A 
ATOM     17  C   UNL     1      -3.687  -2.438   4.766  0.00  0.00    +0.029 A 
ATOM     18  C   UNL     1      -3.066  -2.585   6.000  0.00  0.00    +0.023 A 
ATOM     19  C   UNL     1      -1.688  -2.606   6.079  0.00  0.00    +0.004 A 
BRANCH  17  20
ATOM     20  N   UNL     1      -5.081  -2.421   4.681  0.00  0.00    -0.336 N 
ATOM     21  C   UNL     1      -5.734  -2.387   3.370  0.00  0.00    +0.129 C 
ATOM     22  C   UNL     1      -5.889  -2.437   5.902  0.00  0.00    +0.129 C 
ENDBRANCH  17  20
ENDBRANCH   4  14
BRANCH   1  23
ATOM     23  C   UNL     1       3.052  -2.564   2.662  0.00  0.00    -0.047 A 
ATOM     24  C   UNL     1       3.609  -2.853   1.430  0.00  0.00    +0.003 A 
ATOM     25  C   UNL     1       4.981  -2.963   1.302  0.00  0.00    +0.000 A 
ATOM     26  C   UNL     1       5.796  -2.784   2.404  0.00  0.00    +0.000 A 
ATOM     27  C   UNL     1       5.238  -2.494   3.635  0.00  0.00    +0.000 A 
ATOM     28  C   UNL     1       3.866  -2.380   3.764  0.00  0.00    +0.003 A 
ENDBRANCH   1  23
BRANCH   1  29
ATOM     29  C   UNL     1       0.961  -1.859   1.548  0.00  0.00    +0.301 C 
ATOM     30  O   UNL     1       0.532  -2.588   0.685  0.00  0.00    -0.252 OA
BRANCH  29  31
ATOM     31  O   UNL     1       0.907  -0.527   1.390  0.00  0.00    -0.466 OA
BRANCH  31  33
ATOM     32  C   UNL     1       0.355   1.489   0.176  0.00  0.00    +0.048 C 
ATOM     33  C   UNL     1       0.330  -0.041   0.176  0.00  0.00    +0.228 C 
ENDBRANCH  31  33
ENDBRANCH  29  31
ENDBRANCH   1  29
TORSDOF 6
