REMARK  Name = ZINC15674162
REMARK  7 active torsions:
REMARK  status: ('A' for Active; 'I' for Inactive)
REMARK    1  A    between atoms: C_3  and  N_31
REMARK    2  A    between atoms: C_6  and  C_7
REMARK    3  A    between atoms: C_7  and  N_8
REMARK    4  A    between atoms: C_10  and  O_30
REMARK    5  A    between atoms: C_13  and  C_15
REMARK    6  A    between atoms: C_17  and  C_20
REMARK    7  A    between atoms: C_23  and  C_26
REMARK                            x       y       z     vdW  Elec       q    Type
REMARK                         _______ _______ _______ _____ _____    ______ ____
ROOT
ATOM      1  N   UNL     1      -1.726  -1.018  -1.372  0.00  0.00    -0.285 NA
ATOM      2  C   UNL     1      -2.147   0.240  -2.025  0.00  0.00    +0.116 C 
ATOM      3  C   UNL     1      -3.294  -0.174  -2.979  0.00  0.00    +0.130 C 
ATOM      4  C   UNL     1      -4.016  -1.266  -2.147  0.00  0.00    +0.061 C 
ATOM      5  C   UNL     1      -2.854  -1.968  -1.413  0.00  0.00    +0.149 C 
ENDROOT
BRANCH   5   6
ATOM      6  C   UNL     1      -2.450  -3.212  -2.162  0.00  0.00    +0.245 A 
ATOM      7  N   UNL     1      -2.695  -4.436  -1.791  0.00  0.00    -0.190 NA
ATOM      8  C   UNL     1      -2.193  -5.299  -2.693  0.00  0.00    +0.202 A 
ATOM      9  N   UNL     1      -1.621  -4.615  -3.653  0.00  0.00    -0.056 NA
ATOM     10  O   UNL     1      -1.784  -3.244  -3.323  0.00  0.00    -0.336 OA
BRANCH   8  11
ATOM     11  C   UNL     1      -2.275  -6.779  -2.614  0.00  0.00    +0.022 A 
ATOM     12  C   UNL     1      -2.919  -7.387  -1.538  0.00  0.00    +0.012 A 
ATOM     13  C   UNL     1      -2.991  -8.763  -1.470  0.00  0.00    +0.013 A 
ATOM     14  C   UNL     1      -2.426  -9.539  -2.466  0.00  0.00    +0.055 A 
ATOM     15  C   UNL     1      -1.786  -8.941  -3.536  0.00  0.00    +0.013 A 
ATOM     16  C   UNL     1      -1.713  -7.565  -3.618  0.00  0.00    +0.012 A 
BRANCH  14  17
ATOM     17  C   UNL     1      -2.508 -11.042  -2.385  0.00  0.00    +0.417 C 
ATOM     18  F   UNL     1      -3.672 -11.481  -3.026  0.00  0.00    -0.166 F 
ATOM     19  F   UNL     1      -1.390 -11.604  -3.010  0.00  0.00    -0.166 F 
ATOM     20  F   UNL     1      -2.538 -11.435  -1.042  0.00  0.00    -0.166 F 
ENDBRANCH  14  17
ENDBRANCH   8  11
ENDBRANCH   5   6
BRANCH   3  21
ATOM     21  O   UNL     1      -4.164   0.929  -3.242  0.00  0.00    -0.390 OA
ATOM     22  H   UNL     1      -3.732   1.677  -3.675  0.00  0.00    +0.210 HD
ENDBRANCH   3  21
BRANCH   1  23
ATOM     23  C   UNL     1      -1.293  -0.775   0.010  0.00  0.00    +0.120 C 
BRANCH  23  29
ATOM     24  C   UNL     1      -0.017   1.378   0.010  0.00  0.00    +0.007 A 
ATOM     25  C   UNL     1       1.171   2.086   0.002  0.00  0.00    +0.033 A 
ATOM     26  C   UNL     1       2.377   1.411  -0.013  0.00  0.00    +0.126 A 
ATOM     27  C   UNL     1       2.396   0.029  -0.020  0.00  0.00    +0.033 A 
ATOM     28  C   UNL     1       1.208  -0.679  -0.012  0.00  0.00    +0.007 A 
ATOM     29  C   UNL     1       0.002  -0.004   0.002  0.00  0.00    -0.033 A 
BRANCH  26  30
ATOM     30  N   UNL     1       3.649   2.168  -0.022  0.00  0.00    +0.056 N 
ATOM     31  O   UNL     1       3.633   3.377  -0.016  0.00  0.00    -0.126 OA
ATOM     32  O   UNL     1       4.704   1.578  -0.035  0.00  0.00    -0.126 OA
ENDBRANCH  26  30
ENDBRANCH  23  29
ENDBRANCH   1  23
TORSDOF 7
