REMARK  Name = ZINC20558210
REMARK  7 active torsions:
REMARK  status: ('A' for Active; 'I' for Inactive)
REMARK    1  A    between atoms: C_1  and  O_2
REMARK    2  A    between atoms: O_2  and  C_3
REMARK    3  A    between atoms: C_8  and  C_9
REMARK    4  A    between atoms: C_11  and  C_34
REMARK    5  A    between atoms: C_12  and  N_33
REMARK    6  A    between atoms: N_19  and  C_26
REMARK    7  A    between atoms: C_26  and  C_27
REMARK                            x       y       z     vdW  Elec       q    Type
REMARK                         _______ _______ _______ _____ _____    ______ ____
ROOT
ATOM      1  C   UNL     1       5.153   4.094   0.270  0.00  0.00    +0.121 C 
ATOM      2  C   UNL     1       6.274   3.091   0.245  0.00  0.00    +0.099 C 
ATOM      3  C   UNL     1       6.030   1.803  -0.106  0.00  0.00    +0.199 C 
ATOM      4  O   UNL     1       4.795   1.395  -0.439  0.00  0.00    -0.439 OA
ATOM      5  C   UNL     1       3.706   2.110  -0.049  0.00  0.00    +0.162 C 
ATOM      6  C   UNL     1       3.826   3.389   0.293  0.00  0.00    +0.141 C 
ATOM      7  S   UNL     1       2.378   4.279   0.787  0.00  0.00    +0.076 S 
ATOM      8  O   UNL     1       2.219   4.073   2.184  0.00  0.00    -0.150 OA
ATOM      9  O   UNL     1       2.466   5.572   0.204  0.00  0.00    -0.150 OA
ATOM     10  N   UNL     1       1.121   3.489   0.032  0.00  0.00    -0.198 N 
ATOM     11  C   UNL     1       1.175   2.091   0.002  0.00  0.00    +0.062 A 
ATOM     12  C   UNL     1       2.396   1.416  -0.022  0.00  0.00    +0.042 A 
ATOM     13  C   UNL     1       2.398   0.015  -0.028  0.00  0.00    +0.013 A 
ATOM     14  C   UNL     1       1.209  -0.681  -0.014  0.00  0.00    +0.001 A 
ATOM     15  C   UNL     1       0.002  -0.004   0.002  0.00  0.00    +0.002 A 
ATOM     16  C   UNL     1      -0.017   1.377   0.010  0.00  0.00    +0.025 A 
ENDROOT
BRANCH   1  22
ATOM     17  C   UNL     1       5.407   6.332  -0.832  0.00  0.00    +0.124 A 
ATOM     18  C   UNL     1       5.488   7.127  -1.966  0.00  0.00    +0.046 A 
ATOM     19  C   UNL     1       5.388   6.554  -3.219  0.00  0.00    +0.004 A 
ATOM     20  C   UNL     1       5.212   5.188  -3.343  0.00  0.00    +0.001 A 
ATOM     21  C   UNL     1       5.136   4.393  -2.215  0.00  0.00    +0.008 A 
ATOM     22  C   UNL     1       5.236   4.962  -0.960  0.00  0.00    +0.008 A 
BRANCH  17  24
ATOM     23  C   UNL     1       5.674   8.312   0.457  0.00  0.00    +0.277 C 
ATOM     24  O   UNL     1       5.499   6.895   0.401  0.00  0.00    -0.495 OA
ENDBRANCH  17  24
ENDBRANCH   1  22
BRANCH   3  25
ATOM     25  N   UNL     1       7.065   0.902  -0.120  0.00  0.00    -0.328 N 
ATOM     26  H   UNL     1       6.878  -0.145  -0.403  0.00  0.00    +0.145 HD
ATOM     27  H   UNL     1       8.080   1.226   0.151  0.00  0.00    +0.145 HD
ENDBRANCH   3  25
BRANCH   2  28
ATOM     28  C   UNL     1       7.602   3.497   0.593  0.00  0.00    +0.101 C 
ATOM     29  N   UNL     1       8.656   3.819   0.869  0.00  0.00    -0.191 NA
ENDBRANCH   2  28
BRANCH  10  30
ATOM     30  C   UNL     1       0.008   4.225  -0.574  0.00  0.00    +0.166 C 
BRANCH  30  31
ATOM     31  C   UNL     1       0.278   4.424  -2.043  0.00  0.00    -0.028 A 
ATOM     32  C   UNL     1       0.950   5.552  -2.476  0.00  0.00    +0.005 A 
ATOM     33  C   UNL     1       1.202   5.732  -3.823  0.00  0.00    +0.000 A 
ATOM     34  C   UNL     1       0.772   4.789  -4.739  0.00  0.00    +0.000 A 
ATOM     35  C   UNL     1       0.096   3.664  -4.306  0.00  0.00    +0.000 A 
ATOM     36  C   UNL     1      -0.151   3.481  -2.958  0.00  0.00    +0.005 A 
ENDBRANCH  30  31
ENDBRANCH  10  30
TORSDOF 6
