REMARK  Name = ZINC04916497
REMARK  9 active torsions:
REMARK  status: ('A' for Active; 'I' for Inactive)
REMARK    1  A    between atoms: C_1  and  C_2
REMARK    2  A    between atoms: C_2  and  C_44
REMARK    3  A    between atoms: C_6  and  C_23
REMARK    4  A    between atoms: C_9  and  N_14
REMARK    5  A    between atoms: C_23  and  O_24
REMARK    6  A    between atoms: O_24  and  C_25
REMARK    7  A    between atoms: C_25  and  C_26
REMARK    8  A    between atoms: C_25  and  C_32
REMARK    9  A    between atoms: C_25  and  C_38
REMARK                            x       y       z     vdW  Elec       q    Type
REMARK                         _______ _______ _______ _____ _____    ______ ____
ROOT
ATOM      1  C   UNL     1       3.049  -0.576   2.614  0.00  0.00    +0.196 C 
ENDROOT
BRANCH   1   6
ATOM      2  C   UNL     1      -1.567  -2.482   2.274  0.00  0.00    +0.074 C 
ATOM      3  C   UNL     1      -0.919  -1.300   1.550  0.00  0.00    +0.166 C 
ATOM      4  O   UNL     1       0.503  -1.282   1.798  0.00  0.00    -0.341 OA
ATOM      5  C   UNL     1       0.877   0.083   1.495  0.00  0.00    +0.186 C 
ATOM      6  C   UNL     1       1.984   0.516   2.486  0.00  0.00    +0.178 C 
ATOM      7  O   UNL     1       1.279   0.686   3.735  0.00  0.00    -0.346 OA
ATOM      8  C   UNL     1       0.038   1.339   3.416  0.00  0.00    +0.255 C 
ATOM      9  C   UNL     1      -0.353   0.898   1.993  0.00  0.00    +0.203 C 
ATOM     10  O   UNL     1      -1.423  -0.059   2.077  0.00  0.00    -0.339 OA
ATOM     11  C   UNL     1      -1.194  -1.386   0.048  0.00  0.00    +0.074 C 
BRANCH   8  12
ATOM     12  N   UNL     1      -1.001   0.936   4.367  0.00  0.00    -0.271 N 
ATOM     13  C   UNL     1      -0.687   0.092   5.397  0.00  0.00    +0.098 A 
ATOM     14  C   UNL     1      -1.645  -0.279   6.273  0.00  0.00    +0.088 A 
ATOM     15  C   UNL     1      -2.961   0.216   6.106  0.00  0.00    +0.254 A 
ATOM     16  O   UNL     1      -3.841  -0.105   6.884  0.00  0.00    -0.268 OA
ATOM     17  N   UNL     1      -3.230   1.046   5.078  0.00  0.00    -0.275 N 
ATOM     18  H   UNL     1      -4.157   1.397   4.951  0.00  0.00    +0.173 HD
ATOM     19  C   UNL     1      -2.255   1.404   4.222  0.00  0.00    +0.331 A 
ATOM     20  O   UNL     1      -2.511   2.157   3.303  0.00  0.00    -0.246 OA
ENDBRANCH   8  12
ENDBRANCH   1   6
BRANCH   1  21
ATOM     21  O   UNL     1       4.115  -0.106   3.441  0.00  0.00    -0.357 OA
BRANCH  21  22
ATOM     22  C   UNL     1       5.107  -1.095   3.727  0.00  0.00    +0.144 C 
BRANCH  22  23
ATOM     23  C   UNL     1       5.718  -1.581   2.439  0.00  0.00    -0.007 A 
ATOM     24  C   UNL     1       6.934  -1.077   2.017  0.00  0.00    +0.007 A 
ATOM     25  C   UNL     1       7.497  -1.527   0.837  0.00  0.00    +0.000 A 
ATOM     26  C   UNL     1       6.839  -2.474   0.074  0.00  0.00    +0.000 A 
ATOM     27  C   UNL     1       5.621  -2.974   0.493  0.00  0.00    +0.000 A 
ATOM     28  C   UNL     1       5.060  -2.528   1.676  0.00  0.00    +0.007 A 
ENDBRANCH  22  23
BRANCH  22  29
ATOM     29  C   UNL     1       6.180  -0.492   4.597  0.00  0.00    -0.007 A 
ATOM     30  C   UNL     1       7.193  -1.289   5.096  0.00  0.00    +0.007 A 
ATOM     31  C   UNL     1       8.181  -0.736   5.889  0.00  0.00    +0.000 A 
ATOM     32  C   UNL     1       8.150   0.613   6.191  0.00  0.00    +0.000 A 
ATOM     33  C   UNL     1       7.134   1.409   5.696  0.00  0.00    +0.000 A 
ATOM     34  C   UNL     1       6.149   0.856   4.899  0.00  0.00    +0.007 A 
ENDBRANCH  22  29
BRANCH  22  35
ATOM     35  C   UNL     1       4.468  -2.253   4.449  0.00  0.00    -0.007 A 
ATOM     36  C   UNL     1       4.977  -3.529   4.295  0.00  0.00    +0.007 A 
ATOM     37  C   UNL     1       4.394  -4.591   4.961  0.00  0.00    +0.000 A 
ATOM     38  C   UNL     1       3.295  -4.378   5.772  0.00  0.00    +0.000 A 
ATOM     39  C   UNL     1       2.782  -3.103   5.921  0.00  0.00    +0.000 A 
ATOM     40  C   UNL     1       3.368  -2.041   5.260  0.00  0.00    +0.007 A 
ENDBRANCH  22  35
ENDBRANCH  21  22
ENDBRANCH   1  21
TORSDOF 7
