REMARK  Name = ZINC61721667
REMARK  6 active torsions:
REMARK  status: ('A' for Active; 'I' for Inactive)
REMARK    1  A    between atoms: C_4  and  C_7
REMARK    2  A    between atoms: C_7  and  N_8
REMARK    3  A    between atoms: C_11  and  N_14
REMARK    4  A    between atoms: C_15  and  C_17
REMARK    5  A    between atoms: C_20  and  C_23
REMARK    6  A    between atoms: C_23  and  N_24
REMARK                            x       y       z     vdW  Elec       q    Type
REMARK                         _______ _______ _______ _____ _____    ______ ____
ROOT
ATOM      1  N   UNL     1       6.388  -1.099   4.912  0.00  0.00    -0.312 N 
ATOM      2  C   UNL     1       7.655  -1.400   5.256  0.00  0.00    +0.216 C 
ATOM      3  O   UNL     1       8.525  -1.421   4.411  0.00  0.00    -0.276 OA
ATOM      4  H   UNL     1       5.692  -1.082   5.588  0.00  0.00    +0.149 HD
ENDROOT
BRANCH   1   8
ATOM      5  N   UNL     1       4.153  -0.953   1.342  0.00  0.00    +0.382 N 
ATOM      6  C   UNL     1       4.424   0.329   2.003  0.00  0.00    -0.077 C 
ATOM      7  C   UNL     1       4.807   0.083   3.464  0.00  0.00    +0.003 C 
ATOM      8  C   UNL     1       6.060  -0.796   3.517  0.00  0.00    +0.069 C 
ATOM      9  C   UNL     1       5.790  -2.099   2.760  0.00  0.00    +0.003 C 
ATOM     10  C   UNL     1       5.371  -1.772   1.325  0.00  0.00    -0.077 C 
ATOM     11  H   UNL     1       3.427  -1.441   1.844  0.00  0.00    -0.081 HD
BRANCH   5  12
ATOM     12  C   UNL     1       3.711  -0.707  -0.038  0.00  0.00    -0.043 C 
BRANCH  12  16
ATOM     13  C   UNL     1      -0.017   1.378   0.010  0.00  0.00    +0.000 A 
ATOM     14  C   UNL     1       1.171   2.086   0.002  0.00  0.00    +0.000 A 
ATOM     15  C   UNL     1       2.377   1.411  -0.013  0.00  0.00    +0.002 A 
ATOM     16  C   UNL     1       2.396   0.029  -0.020  0.00  0.00    -0.064 A 
ATOM     17  C   UNL     1       1.208  -0.679  -0.012  0.00  0.00    +0.002 A 
ATOM     18  C   UNL     1       0.002  -0.004   0.002  0.00  0.00    +0.000 A 
ENDBRANCH  12  16
ENDBRANCH   5  12
ENDBRANCH   1   8
BRANCH   2  19
ATOM     19  C   UNL     1       7.993  -1.712   6.692  0.00  0.00    +0.075 C 
ATOM     20  C   UNL     1       7.648  -0.506   7.569  0.00  0.00    +0.013 C 
ATOM     21  C   UNL     1       7.990  -0.822   9.027  0.00  0.00    +0.006 C 
ATOM     22  C   UNL     1       9.485  -1.129   9.145  0.00  0.00    +0.009 C 
ATOM     23  C   UNL     1       9.829  -2.334   8.267  0.00  0.00    +0.006 C 
ATOM     24  C   UNL     1       9.487  -2.018   6.810  0.00  0.00    +0.013 C 
BRANCH  22  25
ATOM     25  C   UNL     1       9.827  -1.445  10.602  0.00  0.00    +0.129 C 
BRANCH  25  26
ATOM     26  N   UNL     1      11.275  -1.621  10.737  0.00  0.00    -0.298 N 
ATOM     27  C   UNL     1      11.822  -2.853  10.571  0.00  0.00    +0.202 A 
ATOM     28  N   UNL     1      13.094  -3.090  10.674  0.00  0.00    -0.237 NA
ATOM     29  C   UNL     1      13.980  -2.103  10.959  0.00  0.00    +0.078 A 
ATOM     30  C   UNL     1      15.349  -2.357  11.070  0.00  0.00    +0.028 A 
ATOM     31  C   UNL     1      16.212  -1.325  11.361  0.00  0.00    +0.002 A 
ATOM     32  C   UNL     1      15.740  -0.032  11.546  0.00  0.00    +0.001 A 
ATOM     33  C   UNL     1      14.394   0.243  11.441  0.00  0.00    +0.015 A 
ATOM     34  C   UNL     1      13.503  -0.787  11.148  0.00  0.00    +0.065 A 
ATOM     35  C   UNL     1      12.057  -0.553  11.019  0.00  0.00    +0.262 A 
ATOM     36  O   UNL     1      11.582   0.558  11.165  0.00  0.00    -0.267 OA
ENDBRANCH  25  26
ENDBRANCH  22  25
ENDBRANCH   2  19
TORSDOF 6
