REMARK  Name = ZINC38548692
REMARK  4 active torsions:
REMARK  status: ('A' for Active; 'I' for Inactive)
REMARK    1  A    between atoms: C_4  and  C_7
REMARK    2  A    between atoms: C_7  and  N_8
REMARK    3  A    between atoms: C_9  and  C_16
REMARK    4  A    between atoms: C_16  and  C_17
REMARK                            x       y       z     vdW  Elec       q    Type
REMARK                         _______ _______ _______ _____ _____    ______ ____
ROOT
ATOM      1  N   UNL     1       4.153  -0.953   1.342  0.00  0.00    +0.411 N 
ATOM      2  C   UNL     1       5.402  -1.743   1.341  0.00  0.00    +0.023 C 
ATOM      3  N   UNL     1       6.429  -0.909   2.006  0.00  0.00    -0.270 NA
ATOM      4  N   UNL     1       5.659   0.019   2.849  0.00  0.00    -0.261 NA
ATOM      5  C   UNL     1       4.472   0.330   2.010  0.00  0.00    +0.088 C 
ATOM      6  S   UNL     1       3.085   0.868   3.046  0.00  0.00    -0.092 SA
ATOM      7  H   UNL     1       7.049  -1.476   2.564  0.00  0.00    +0.139 HD
ATOM      8  H   UNL     1       5.384  -0.422   3.714  0.00  0.00    +0.140 HD
ATOM      9  H   UNL     1       3.434  -1.441   1.855  0.00  0.00    -0.075 HD
ENDROOT
BRANCH   1  10
ATOM     10  C   UNL     1       3.711  -0.707  -0.038  0.00  0.00    -0.037 C 
BRANCH  10  14
ATOM     11  C   UNL     1      -0.017   1.378   0.010  0.00  0.00    +0.000 A 
ATOM     12  C   UNL     1       1.171   2.086   0.002  0.00  0.00    +0.000 A 
ATOM     13  C   UNL     1       2.377   1.411  -0.013  0.00  0.00    +0.002 A 
ATOM     14  C   UNL     1       2.396   0.029  -0.020  0.00  0.00    -0.064 A 
ATOM     15  C   UNL     1       1.208  -0.679  -0.012  0.00  0.00    +0.002 A 
ATOM     16  C   UNL     1       0.002  -0.004   0.002  0.00  0.00    +0.000 A 
ENDBRANCH  10  14
ENDBRANCH   1  10
BRANCH   2  17
ATOM     17  C   UNL     1       5.199  -3.046   2.118  0.00  0.00    +0.038 C 
BRANCH  17  18
ATOM     18  C   UNL     1       6.479  -3.841   2.109  0.00  0.00    -0.023 A 
ATOM     19  C   UNL     1       7.604  -3.691   3.035  0.00  0.00    +0.003 A 
ATOM     20  C   UNL     1       7.859  -2.858   4.126  0.00  0.00    +0.010 A 
ATOM     21  C   UNL     1       9.040  -2.969   4.803  0.00  0.00    +0.001 A 
ATOM     22  C   UNL     1       9.990  -3.905   4.415  0.00  0.00    +0.002 A 
ATOM     23  C   UNL     1       9.759  -4.737   3.342  0.00  0.00    +0.026 A 
ATOM     24  C   UNL     1       8.563  -4.641   2.638  0.00  0.00    +0.047 A 
ATOM     25  N   UNL     1       8.046  -5.311   1.552  0.00  0.00    -0.360 N 
ATOM     26  C   UNL     1       6.802  -4.824   1.255  0.00  0.00    +0.087 A 
ATOM     27  H   UNL     1       8.495  -6.024   1.071  0.00  0.00    +0.165 HD
ENDBRANCH  17  18
ENDBRANCH   2  17
TORSDOF 4
