REMARK  Name = ZINC13777692
REMARK  8 active torsions:
REMARK  status: ('A' for Active; 'I' for Inactive)
REMARK    1  A    between atoms: C_1  and  C_2
REMARK    2  A    between atoms: C_2  and  C_27
REMARK    3  A    between atoms: N_13  and  N_14
REMARK    4  A    between atoms: C_15  and  C_16
REMARK    5  A    between atoms: C_19  and  O_24
REMARK    6  A    between atoms: C_20  and  O_22
REMARK    7  A    between atoms: O_22  and  C_23
REMARK    8  A    between atoms: O_24  and  C_25
REMARK                            x       y       z     vdW  Elec       q    Type
REMARK                         _______ _______ _______ _____ _____    ______ ____
ROOT
ATOM      1  C   UNL     1       6.020  -4.822  -1.407  0.00  0.00    +0.011 C 
ATOM      2  C   UNL     1       4.703  -4.085  -1.156  0.00  0.00    -0.024 C 
ATOM      3  C   UNL     1       3.683  -5.053  -0.562  0.00  0.00    +0.064 C 
ATOM      4  C   UNL     1       2.413  -4.341  -0.185  0.00  0.00    +0.071 A 
ATOM      5  C   UNL     1       2.400  -2.949   0.071  0.00  0.00    +0.026 A 
ATOM      6  C   UNL     1       1.215  -2.322   0.432  0.00  0.00    +0.083 A 
ATOM      7  C   UNL     1       0.044  -3.094   0.531  0.00  0.00    +0.265 A 
ATOM      8  O   UNL     1      -1.013  -2.572   0.850  0.00  0.00    -0.266 OA
ATOM      9  N   UNL     1       0.099  -4.415   0.270  0.00  0.00    -0.243 N 
ATOM     10  H   UNL     1      -0.708  -4.949   0.332  0.00  0.00    +0.192 HD
ATOM     11  N   UNL     1       1.303  -5.026  -0.088  0.00  0.00    -0.175 NA
ATOM     12  C   UNL     1       3.641  -2.166  -0.046  0.00  0.00    +0.073 C 
ATOM     13  N   UNL     1       3.621  -0.858  -0.039  0.00  0.00    -0.154 NA
ATOM     14  C   UNL     1       4.942  -2.929  -0.183  0.00  0.00    +0.064 C 
ATOM     15  C   UNL     1       4.169  -3.530  -2.478  0.00  0.00    +0.011 C 
ENDROOT
BRANCH  13  16
ATOM     16  N   UNL     1       2.494  -0.231  -0.075  0.00  0.00    -0.157 NA
ATOM     17  C   UNL     1       2.474   1.080  -0.068  0.00  0.00    +0.143 C 
BRANCH  17  18
ATOM     18  C   UNL     1       1.192   1.794  -0.109  0.00  0.00    -0.002 A 
ATOM     19  C   UNL     1      -0.010   1.077  -0.157  0.00  0.00    +0.013 A 
ATOM     20  C   UNL     1      -1.211   1.750  -0.203  0.00  0.00    +0.050 A 
ATOM     21  C   UNL     1      -1.234   3.139  -0.189  0.00  0.00    +0.162 A 
ATOM     22  C   UNL     1      -0.041   3.860  -0.141  0.00  0.00    +0.162 A 
ATOM     23  C   UNL     1       1.168   3.195  -0.102  0.00  0.00    +0.059 A 
BRANCH  22  24
ATOM     24  O   UNL     1      -0.069   5.220  -0.134  0.00  0.00    -0.491 OA
ATOM     25  C   UNL     1       1.190   5.894  -0.084  0.00  0.00    +0.277 C 
ENDBRANCH  22  24
BRANCH  21  26
ATOM     26  O   UNL     1      -2.422   3.796  -0.227  0.00  0.00    -0.491 OA
ATOM     27  C   UNL     1      -3.605   2.996  -0.275  0.00  0.00    +0.277 C 
ENDBRANCH  21  26
ENDBRANCH  17  18
ENDBRANCH  13  16
TORSDOF 4
