REMARK  Name = ZINC63679616
REMARK  10 active torsions:
REMARK  status: ('A' for Active; 'I' for Inactive)
REMARK    1  A    between atoms: C_1  and  O_2
REMARK    2  A    between atoms: O_2  and  C_3
REMARK    3  A    between atoms: C_6  and  S_9
REMARK    4  A    between atoms: S_9  and  N_12
REMARK    5  A    between atoms: C_17  and  C_19
REMARK    6  A    between atoms: C_19  and  N_20
REMARK    7  A    between atoms: C_21  and  C_23
REMARK    8  A    between atoms: N_25  and  C_26
REMARK    9  A    between atoms: C_26  and  C_27
REMARK   10  A    between atoms: C_27  and  C_28
REMARK                            x       y       z     vdW  Elec       q    Type
REMARK                         _______ _______ _______ _____ _____    ______ ____
ROOT
ATOM      1  N   UNL     1       2.458  -4.233  -2.369  0.00  0.00    -0.304 N 
ATOM      2  C   UNL     1       1.238  -4.673  -2.004  0.00  0.00    +0.299 C 
ATOM      3  O   UNL     1       0.868  -5.780  -2.336  0.00  0.00    -0.265 OA
ATOM      4  H   UNL     1       2.784  -3.380  -2.042  0.00  0.00    +0.149 HD
ENDROOT
BRANCH   2   5
ATOM      5  C   UNL     1       0.340  -3.798  -1.190  0.00  0.00    +0.299 C 
ATOM      6  O   UNL     1       0.670  -2.658  -0.938  0.00  0.00    -0.265 OA
ATOM      7  N   UNL     1      -0.835  -4.276  -0.736  0.00  0.00    -0.307 N 
ATOM      8  H   UNL     1      -1.099  -5.187  -0.937  0.00  0.00    +0.149 HD
BRANCH   7   9
ATOM      9  C   UNL     1      -1.715  -3.418   0.062  0.00  0.00    +0.109 C 
BRANCH   9  10
ATOM     10  C   UNL     1      -2.974  -4.197   0.448  0.00  0.00    +0.052 C 
BRANCH  10  11
ATOM     11  C   UNL     1      -3.879  -3.314   1.269  0.00  0.00    -0.040 C 
ATOM     12  C   UNL     1      -4.918  -2.574   0.820  0.00  0.00    -0.001 A 
ATOM     13  C   UNL     1      -5.494  -2.375  -0.515  0.00  0.00    +0.010 A 
ATOM     14  C   UNL     1      -6.559  -1.553  -0.655  0.00  0.00    +0.001 A 
ATOM     15  C   UNL     1      -7.124  -0.887   0.441  0.00  0.00    +0.002 A 
ATOM     16  C   UNL     1      -6.651  -1.019   1.698  0.00  0.00    +0.026 A 
ATOM     17  C   UNL     1      -5.534  -1.860   1.961  0.00  0.00    +0.043 A 
ATOM     18  N   UNL     1      -4.900  -2.147   3.072  0.00  0.00    -0.380 N 
ATOM     19  C   UNL     1      -3.813  -3.082   2.762  0.00  0.00    +0.144 C 
ATOM     20  H   UNL     1      -5.116  -1.803   3.953  0.00  0.00    +0.160 HD
ENDBRANCH  10  11
ENDBRANCH   9  10
ENDBRANCH   7   9
ENDBRANCH   2   5
BRANCH   1  21
ATOM     21  C   UNL     1       3.293  -5.043  -3.260  0.00  0.00    +0.154 C 
BRANCH  21  27
ATOM     22  N   UNL     1       4.521  -3.016  -3.887  0.00  0.00    -0.147 NA
ATOM     23  C   UNL     1       5.705  -2.143  -3.886  0.00  0.00    +0.114 C 
ATOM     24  C   UNL     1       6.350  -2.211  -2.496  0.00  0.00    +0.045 C 
ATOM     25  C   UNL     1       6.569  -3.680  -2.121  0.00  0.00    +0.163 C 
ATOM     26  O   UNL     1       5.314  -4.366  -2.125  0.00  0.00    -0.358 OA
ATOM     27  C   UNL     1       4.671  -4.394  -3.398  0.00  0.00    +0.226 C 
BRANCH  22  28
ATOM     28  S   UNL     1       3.055  -2.458  -4.419  0.00  0.00    +0.063 S 
ATOM     29  O   UNL     1       2.818  -1.230  -3.743  0.00  0.00    -0.153 OA
ATOM     30  O   UNL     1       2.153  -3.554  -4.346  0.00  0.00    -0.153 OA
BRANCH  28  34
ATOM     31  C   UNL     1       3.517  -1.451  -8.809  0.00  0.00    +0.120 A 
ATOM     32  C   UNL     1       3.236  -2.753  -8.421  0.00  0.00    +0.047 A 
ATOM     33  C   UNL     1       3.095  -3.058  -7.081  0.00  0.00    +0.032 A 
ATOM     34  C   UNL     1       3.235  -2.066  -6.127  0.00  0.00    +0.106 A 
ATOM     35  C   UNL     1       3.515  -0.768  -6.512  0.00  0.00    +0.032 A 
ATOM     36  C   UNL     1       3.663  -0.460  -7.850  0.00  0.00    +0.047 A 
BRANCH  31  38
ATOM     37  C   UNL     1       3.493  -2.220 -11.059  0.00  0.00    +0.277 C 
ATOM     38  O   UNL     1       3.656  -1.149 -10.127  0.00  0.00    -0.495 OA
ENDBRANCH  31  38
ENDBRANCH  28  34
ENDBRANCH  22  28
ENDBRANCH  21  27
ENDBRANCH   1  21
TORSDOF 9
