REMARK  Name = ZINC13211408
REMARK  7 active torsions:
REMARK  status: ('A' for Active; 'I' for Inactive)
REMARK    1  A    between atoms: C_3  and  N_9
REMARK    2  A    between atoms: C_6  and  C_7
REMARK    3  A    between atoms: N_9  and  S_10
REMARK    4  A    between atoms: S_10  and  C_13
REMARK    5  A    between atoms: C_16  and  N_22
REMARK    6  A    between atoms: C_17  and  N_19
REMARK    7  A    between atoms: C_26  and  C_29
REMARK                            x       y       z     vdW  Elec       q    Type
REMARK                         _______ _______ _______ _____ _____    ______ ____
ROOT
ATOM      1  C   UNL     1       1.557   1.986   0.398  0.00  0.00    +0.111 A 
ATOM      2  C   UNL     1       0.289   1.486   0.636  0.00  0.00    +0.031 A 
ATOM      3  C   UNL     1      -0.747   2.346   0.943  0.00  0.00    +0.027 A 
ATOM      4  C   UNL     1      -0.513   3.713   1.022  0.00  0.00    +0.060 A 
ATOM      5  C   UNL     1       0.761   4.212   0.782  0.00  0.00    +0.149 A 
ATOM      6  C   UNL     1       1.792   3.346   0.470  0.00  0.00    +0.063 A 
ENDROOT
BRANCH   4   7
ATOM      7  N   UNL     1      -1.557   4.585   1.338  0.00  0.00    -0.328 N 
ATOM      8  C   UNL     1      -2.055   4.341   2.697  0.00  0.00    +0.105 C 
ATOM      9  C   UNL     1      -3.094   5.404   3.061  0.00  0.00    +0.019 C 
ATOM     10  C   UNL     1      -4.249   5.346   2.056  0.00  0.00    +0.015 C 
ATOM     11  C   UNL     1      -3.697   5.555   0.644  0.00  0.00    +0.110 C 
ATOM     12  C   UNL     1      -2.640   4.488   0.350  0.00  0.00    +0.117 C 
BRANCH  11  13
ATOM     13  C   UNL     1      -4.835   5.439  -0.372  0.00  0.00    +0.394 C 
ATOM     14  F   UNL     1      -5.803   6.413  -0.101  0.00  0.00    -0.170 F 
ATOM     15  F   UNL     1      -4.330   5.631  -1.663  0.00  0.00    -0.170 F 
ATOM     16  F   UNL     1      -5.413   4.169  -0.281  0.00  0.00    -0.170 F 
ENDBRANCH  11  13
ENDBRANCH   4   7
BRANCH   1  17
ATOM     17  S   UNL     1       2.874   0.886   0.000  0.00  0.00    +0.072 S 
ATOM     18  O   UNL     1       4.082   1.595   0.242  0.00  0.00    -0.150 OA
ATOM     19  O   UNL     1       2.577  -0.350   0.634  0.00  0.00    -0.150 OA
BRANCH  17  20
ATOM     20  N   UNL     1       2.806   0.610  -1.631  0.00  0.00    -0.216 N 
ATOM     21  H   UNL     1       2.623  -0.283  -1.965  0.00  0.00    +0.174 HD
BRANCH  20  24
ATOM     22  C   UNL     1       4.499   3.196  -3.593  0.00  0.00    +0.017 A 
ATOM     23  C   UNL     1       4.293   2.164  -2.714  0.00  0.00    +0.025 A 
ATOM     24  C   UNL     1       3.011   1.656  -2.522  0.00  0.00    +0.048 A 
ATOM     25  C   UNL     1       1.935   2.191  -3.226  0.00  0.00    +0.025 A 
ATOM     26  C   UNL     1       2.133   3.227  -4.102  0.00  0.00    +0.017 A 
ATOM     27  C   UNL     1       3.419   3.739  -4.297  0.00  0.00    +0.063 A 
BRANCH  27  28
ATOM     28  C   UNL     1       3.637   4.849  -5.242  0.00  0.00    +0.387 C 
ATOM     29  O   UNL     1       4.755   5.293  -5.411  0.00  0.00    -0.241 OA
ATOM     30  O   UNL     1       2.595   5.371  -5.920  0.00  0.00    -0.241 OA
ENDBRANCH  27  28
ENDBRANCH  20  24
ENDBRANCH  17  20
ENDBRANCH   1  17
BRANCH   5  31
ATOM     31  N   UNL     1       1.014   5.668   0.859  0.00  0.00    +0.058 N 
ATOM     32  O   UNL     1       2.149   6.096   0.748  0.00  0.00    -0.126 OA
ATOM     33  O   UNL     1       0.087   6.438   1.033  0.00  0.00    -0.126 OA
ENDBRANCH   5  31
TORSDOF 7
