REMARK  Name = ZINC40993538
REMARK  7 active torsions:
REMARK  status: ('A' for Active; 'I' for Inactive)
REMARK    1  A    between atoms: C_1  and  C_2
REMARK    2  A    between atoms: C_2  and  C_4
REMARK    3  A    between atoms: C_2  and  O_27
REMARK    4  A    between atoms: N_6  and  C_7
REMARK    5  A    between atoms: C_8  and  C_16
REMARK    6  A    between atoms: C_18  and  C_21
REMARK    7  A    between atoms: O_27  and  C_28
REMARK                            x       y       z     vdW  Elec       q    Type
REMARK                         _______ _______ _______ _____ _____    ______ ____
ROOT
ATOM      1  C   UNL     1      -3.533  -1.205   0.938  0.00  0.00    +0.085 A 
ATOM      2  C   UNL     1      -4.513  -1.264   1.919  0.00  0.00    +0.071 A 
ATOM      3  C   UNL     1      -5.806  -1.816   1.555  0.00  0.00    -0.023 A 
ATOM      4  C   UNL     1      -5.940  -2.230   0.275  0.00  0.00    -0.004 A 
ATOM      5  S   UNL     1      -4.372  -1.893  -0.478  0.00  0.00    -0.077 S 
ATOM      6  C   UNL     1      -7.154  -2.834  -0.360  0.00  0.00    +0.043 C 
ATOM      7  C   UNL     1      -8.121  -3.263   0.753  0.00  0.00    +0.005 C 
ATOM      8  C   UNL     1      -8.265  -2.109   1.749  0.00  0.00    +0.005 C 
ATOM      9  C   UNL     1      -6.966  -1.937   2.538  0.00  0.00    +0.037 C 
ENDROOT
BRANCH   2  10
ATOM     10  C   UNL     1      -4.250  -0.782   3.283  0.00  0.00    +0.261 A 
ATOM     11  N   UNL     1      -3.120  -0.261   3.714  0.00  0.00    -0.187 NA
ATOM     12  C   UNL     1      -3.235   0.067   5.010  0.00  0.00    +0.202 A 
ATOM     13  N   UNL     1      -4.441  -0.241   5.421  0.00  0.00    -0.056 NA
ATOM     14  O   UNL     1      -5.125  -0.793   4.306  0.00  0.00    -0.332 OA
BRANCH  12  15
ATOM     15  C   UNL     1      -2.170   0.680   5.842  0.00  0.00    +0.022 A 
ATOM     16  C   UNL     1      -0.925   0.967   5.285  0.00  0.00    +0.012 A 
ATOM     17  C   UNL     1       0.062   1.536   6.064  0.00  0.00    +0.001 A 
ATOM     18  C   UNL     1      -0.183   1.822   7.395  0.00  0.00    +0.000 A 
ATOM     19  C   UNL     1      -1.416   1.540   7.953  0.00  0.00    +0.001 A 
ATOM     20  C   UNL     1      -2.413   0.976   7.181  0.00  0.00    +0.012 A 
ENDBRANCH  12  15
ENDBRANCH   2  10
BRANCH   1  23
ATOM     21  C   UNL     1      -1.426  -0.748  -0.046  0.00  0.00    +0.258 C 
ATOM     22  O   UNL     1      -1.835  -1.187  -1.100  0.00  0.00    -0.271 OA
ATOM     23  N   UNL     1      -2.233  -0.726   1.034  0.00  0.00    -0.276 N 
ATOM     24  H   UNL     1      -1.905  -0.376   1.877  0.00  0.00    +0.155 HD
BRANCH  21  26
ATOM     25  C   UNL     1      -0.044   1.273   0.345  0.00  0.00    +0.062 C 
ATOM     26  C   UNL     1      -0.015  -0.229   0.058  0.00  0.00    +0.256 C 
BRANCH  26  27
ATOM     27  O   UNL     1       0.671  -0.465  -1.174  0.00  0.00    -0.480 OA
BRANCH  27  28
ATOM     28  C   UNL     1       2.026  -0.553  -1.118  0.00  0.00    +0.122 A 
ATOM     29  C   UNL     1       2.690  -0.309   0.075  0.00  0.00    +0.048 A 
ATOM     30  C   UNL     1       4.067  -0.399   0.130  0.00  0.00    +0.042 A 
ATOM     31  C   UNL     1       4.786  -0.732  -1.005  0.00  0.00    +0.124 A 
ATOM     32  C   UNL     1       4.125  -0.976  -2.197  0.00  0.00    +0.042 A 
ATOM     33  C   UNL     1       2.747  -0.893  -2.254  0.00  0.00    +0.048 A 
ATOM     34  F   UNL     1       6.133  -0.819  -0.950  0.00  0.00    -0.205 F 
ENDBRANCH  27  28
ENDBRANCH  26  27
ENDBRANCH  21  26
ENDBRANCH   1  23
TORSDOF 6
