REMARK  Name = ZINC11955025
REMARK  3 active torsions:
REMARK  status: ('A' for Active; 'I' for Inactive)
REMARK    1  A    between atoms: C_11  and  C_30
REMARK    2  A    between atoms: C_16  and  C_18
REMARK    3  A    between atoms: C_22  and  N_24
REMARK                            x       y       z     vdW  Elec       q    Type
REMARK                         _______ _______ _______ _____ _____    ______ ____
ROOT
ATOM      1  C   UNL     1       1.318   1.175   0.342  0.00  0.00    +0.001 A 
ATOM      2  C   UNL     1       1.476   2.553   0.305  0.00  0.00    +0.002 A 
ATOM      3  C   UNL     1       0.378   3.386   0.297  0.00  0.00    +0.026 A 
ATOM      4  C   UNL     1      -0.902   2.843   0.328  0.00  0.00    +0.047 A 
ATOM      5  C   UNL     1      -1.058   1.444   0.360  0.00  0.00    +0.003 A 
ATOM      6  C   UNL     1       0.070   0.620   0.372  0.00  0.00    +0.010 A 
ATOM      7  C   UNL     1      -2.498   1.202   0.376  0.00  0.00    -0.016 A 
ATOM      8  C   UNL     1      -3.104   2.404   0.352  0.00  0.00    +0.041 A 
ATOM      9  N   UNL     1      -2.165   3.394   0.329  0.00  0.00    -0.356 N 
ATOM     10  H   UNL     1      -2.358   4.345   0.307  0.00  0.00    +0.166 HD
ATOM     11  C   UNL     1      -4.607   2.579   0.363  0.00  0.00    +0.126 C 
ATOM     12  N   UNL     1      -5.207   1.254   0.124  0.00  0.00    -0.288 N 
ATOM     13  C   UNL     1      -4.660   0.098   0.850  0.00  0.00    +0.113 C 
ATOM     14  C   UNL     1      -3.208  -0.127   0.407  0.00  0.00    +0.056 C 
ATOM     15  C   UNL     1      -6.231   1.106  -0.739  0.00  0.00    +0.247 C 
ATOM     16  O   UNL     1      -6.731   2.083  -1.263  0.00  0.00    -0.270 OA
ENDROOT
BRANCH  15  17
ATOM     17  C   UNL     1      -6.747  -0.244  -1.049  0.00  0.00    +0.039 A 
ATOM     18  C   UNL     1      -5.876  -1.335  -1.091  0.00  0.00    +0.013 A 
ATOM     19  C   UNL     1      -6.361  -2.595  -1.375  0.00  0.00    +0.003 A 
ATOM     20  C   UNL     1      -7.707  -2.781  -1.630  0.00  0.00    +0.023 A 
ATOM     21  C   UNL     1      -8.581  -1.702  -1.597  0.00  0.00    +0.039 A 
ATOM     22  C   UNL     1      -8.105  -0.432  -1.307  0.00  0.00    +0.036 A 
BRANCH  21  23
ATOM     23  N   UNL     1      -9.943  -1.896  -1.856  0.00  0.00    -0.254 N 
ATOM     24  C   UNL     1     -10.596  -3.199  -2.052  0.00  0.00    +0.134 C 
ATOM     25  C   UNL     1     -12.074  -2.838  -2.299  0.00  0.00    +0.125 C 
ATOM     26  N   UNL     1     -12.097  -1.370  -2.215  0.00  0.00    -0.297 N 
ATOM     27  C   UNL     1     -10.860  -0.924  -1.958  0.00  0.00    +0.307 C 
ATOM     28  O   UNL     1     -10.593   0.255  -1.833  0.00  0.00    -0.252 OA
ATOM     29  H   UNL     1     -12.883  -0.813  -2.325  0.00  0.00    +0.150 HD
ENDBRANCH  21  23
ENDBRANCH  15  17
BRANCH  11  30
ATOM     30  C   UNL     1      -5.060   3.116   1.723  0.00  0.00    +0.015 C 
ATOM     31  C   UNL     1      -6.574   3.338   1.705  0.00  0.00    +0.006 C 
ATOM     32  C   UNL     1      -7.026   3.876   3.064  0.00  0.00    +0.000 C 
ATOM     33  C   UNL     1      -6.319   5.202   3.349  0.00  0.00    +0.000 C 
ATOM     34  C   UNL     1      -4.806   4.980   3.366  0.00  0.00    +0.000 C 
ATOM     35  C   UNL     1      -4.353   4.443   2.007  0.00  0.00    +0.006 C 
ENDBRANCH  11  30
TORSDOF 3
