REMARK  Name = ZINC34945102
REMARK  9 active torsions:
REMARK  status: ('A' for Active; 'I' for Inactive)
REMARK    1  A    between atoms: C_10  and  N_12
REMARK    2  A    between atoms: C_13  and  C_15
REMARK    3  A    between atoms: C_15  and  C_16
REMARK    4  A    between atoms: C_16  and  N_17
REMARK    5  A    between atoms: N_17  and  C_18
REMARK    6  A    between atoms: N_17  and  S_24
REMARK    7  A    between atoms: C_18  and  C_19
REMARK    8  A    between atoms: S_24  and  C_27
REMARK    9  A    between atoms: C_31  and  N_33
REMARK                            x       y       z     vdW  Elec       q    Type
REMARK                         _______ _______ _______ _____ _____    ______ ____
ROOT
ATOM      1  N   UNL     1       7.791   3.712  -1.674  0.00  0.00    -0.169 NA
ENDROOT
BRANCH   1   2
ATOM      2  S   UNL     1       9.405   3.344  -1.705  0.00  0.00    +0.061 S 
ATOM      3  O   UNL     1      10.073   4.487  -2.221  0.00  0.00    -0.153 OA
ATOM      4  O   UNL     1       9.719   2.786  -0.436  0.00  0.00    -0.153 OA
BRANCH   2   5
ATOM      5  C   UNL     1       9.623   2.057  -2.888  0.00  0.00    +0.108 A 
ATOM      6  C   UNL     1       9.533   0.734  -2.495  0.00  0.00    +0.030 A 
ATOM      7  C   UNL     1       9.703  -0.276  -3.423  0.00  0.00    +0.024 A 
ATOM      8  C   UNL     1       9.964   0.037  -4.746  0.00  0.00    +0.071 A 
ATOM      9  C   UNL     1      10.055   1.360  -5.138  0.00  0.00    +0.146 A 
ATOM     10  C   UNL     1       9.879   2.370  -4.210  0.00  0.00    +0.062 A 
ATOM     11 CL   UNL     1      10.179  -1.231  -5.912  0.00  0.00    -0.081 Cl
BRANCH   9  12
ATOM     12  N   UNL     1      10.334   1.696  -6.552  0.00  0.00    +0.058 N 
ATOM     13  O   UNL     1      10.412   2.852  -6.895  0.00  0.00    -0.126 OA
ATOM     14  O   UNL     1      10.483   0.813  -7.365  0.00  0.00    -0.126 OA
ENDBRANCH   9  12
ENDBRANCH   2   5
ENDBRANCH   1   2
BRANCH   1  15
ATOM     15  C   UNL     1       6.897   3.008  -0.751  0.00  0.00    +0.119 C 
BRANCH  15  16
ATOM     16  C   UNL     1       6.241   1.831  -1.474  0.00  0.00    +0.113 C 
BRANCH  16  18
ATOM     17  N   UNL     1       4.631   0.029  -0.946  0.00  0.00    -0.308 N 
ATOM     18  C   UNL     1       5.321   1.107  -0.525  0.00  0.00    +0.215 C 
ATOM     19  O   UNL     1       5.202   1.495   0.618  0.00  0.00    -0.276 OA
ATOM     20  H   UNL     1       4.726  -0.282  -1.860  0.00  0.00    +0.149 HD
BRANCH  17  30
ATOM     21  C   UNL     1      -0.017   1.375   0.010  0.00  0.00    +0.000 A 
ATOM     22  C   UNL     1       1.174   2.078   0.002  0.00  0.00    +0.000 A 
ATOM     23  C   UNL     1       2.372   1.395  -0.010  0.00  0.00    +0.006 A 
ATOM     24  C   UNL     1       2.393   0.006  -0.017  0.00  0.00    -0.024 A 
ATOM     25  C   UNL     1       1.208  -0.694  -0.015  0.00  0.00    -0.042 A 
ATOM     26  C   UNL     1       0.002  -0.004   0.002  0.00  0.00    +0.004 A 
ATOM     27  C   UNL     1       1.155  -2.199  -0.038  0.00  0.00    +0.035 C 
ATOM     28  C   UNL     1       2.501  -2.790   0.375  0.00  0.00    +0.007 C 
ATOM     29  C   UNL     1       3.599  -2.130  -0.467  0.00  0.00    +0.027 C 
ATOM     30  C   UNL     1       3.737  -0.675  -0.023  0.00  0.00    +0.103 C 
ENDBRANCH  17  30
ENDBRANCH  16  18
ENDBRANCH  15  16
ENDBRANCH   1  15
BRANCH   1  31
ATOM     31  C   UNL     1       7.257   4.741  -2.569  0.00  0.00    +0.183 C 
BRANCH  31  32
ATOM     32  C   UNL     1       7.204   6.061  -1.843  0.00  0.00    +0.120 A 
ATOM     33  C   UNL     1       8.186   6.980  -1.809  0.00  0.00    +0.046 A 
ATOM     34  C   UNL     1       7.715   8.053  -1.019  0.00  0.00    +0.041 A 
ATOM     35  C   UNL     1       6.473   7.726  -0.617  0.00  0.00    +0.195 A 
ATOM     36  O   UNL     1       6.167   6.521  -1.124  0.00  0.00    -0.466 OA
ENDBRANCH  31  32
ENDBRANCH   1  31
TORSDOF 9
