REMARK  Name = ZINC36346168
REMARK  16 active torsions:
REMARK  status: ('A' for Active; 'I' for Inactive)
REMARK    1  A    between atoms: C_1  and  C_2
REMARK    2  A    between atoms: C_2  and  C_3
REMARK    3  A    between atoms: C_3  and  C_4
REMARK    4  A    between atoms: C_4  and  C_5
REMARK    5  A    between atoms: C_5  and  C_7
REMARK    6  A    between atoms: C_5  and  O_36
REMARK    7  A    between atoms: C_7  and  N_8
REMARK    8  A    between atoms: N_8  and  C_9
REMARK    9  A    between atoms: N_8  and  C_15
REMARK   10  A    between atoms: C_9  and  C_10
REMARK   11  A    between atoms: C_15  and  C_16
REMARK   12  A    between atoms: C_17  and  C_35
REMARK   13  A    between atoms: N_19  and  C_29
REMARK   14  A    between atoms: C_20  and  O_21
REMARK   15  A    between atoms: O_21  and  C_22
REMARK   16  A    between atoms: C_25  and  C_28
REMARK                            x       y       z     vdW  Elec       q    Type
REMARK                         _______ _______ _______ _____ _____    ______ ____
ROOT
ATOM      1  C   UNL     1       3.224  -6.761   4.698  0.00  0.00    +0.021 A 
ATOM      2  C   UNL     1       4.581  -6.728   5.033  0.00  0.00    +0.065 A 
ATOM      3  N   UNL     1       4.712  -7.127   6.272  0.00  0.00    -0.168 NA
ATOM      4  N   UNL     1       3.440  -7.430   6.775  0.00  0.00    -0.200 N 
ATOM      5  C   UNL     1       2.535  -7.192   5.788  0.00  0.00    +0.225 A 
ATOM      6  C   UNL     1       5.704  -6.305   4.121  0.00  0.00    +0.068 C 
ENDROOT
BRANCH   4   7
ATOM      7  C   UNL     1       3.151  -7.891   8.067  0.00  0.00    +0.069 A 
ATOM      8  C   UNL     1       2.023  -7.431   8.733  0.00  0.00    +0.028 A 
ATOM      9  C   UNL     1       1.741  -7.888  10.006  0.00  0.00    +0.002 A 
ATOM     10  C   UNL     1       2.581  -8.800  10.617  0.00  0.00    +0.000 A 
ATOM     11  C   UNL     1       3.705  -9.259   9.956  0.00  0.00    +0.002 A 
ATOM     12  C   UNL     1       3.990  -8.812   8.681  0.00  0.00    +0.028 A 
ENDBRANCH   4   7
BRANCH   1  13
ATOM     13  C   UNL     1       2.630  -6.380   3.367  0.00  0.00    -0.035 C 
BRANCH  13  14
ATOM     14  N   UNL     1       2.304  -4.947   3.368  0.00  0.00    +0.389 N 
ATOM     15  H   UNL     1       1.667  -4.747   4.124  0.00  0.00    -0.081 HD
BRANCH  14  16
ATOM     16  C   UNL     1       1.675  -4.587   2.090  0.00  0.00    -0.046 C 
BRANCH  16  17
ATOM     17  C   UNL     1       0.305  -5.260   1.989  0.00  0.00    +0.098 C 
BRANCH  17  18
ATOM     18  O   UNL     1       0.476  -6.675   1.878  0.00  0.00    -0.394 OA
ATOM     19  H   UNL     1       0.988  -6.950   1.105  0.00  0.00    +0.210 HD
ENDBRANCH  17  18
BRANCH  17  20
ATOM     20  C   UNL     1      -0.430  -4.738   0.752  0.00  0.00    +0.029 C 
BRANCH  20  21
ATOM     21  C   UNL     1      -1.846  -5.316   0.719  0.00  0.00    +0.002 C 
BRANCH  21  23
ATOM     22  C   UNL     1      -3.997  -5.371  -0.551  0.00  0.00    +0.004 C 
ATOM     23  C   UNL     1      -2.580  -4.793  -0.518  0.00  0.00    -0.003 C 
ENDBRANCH  21  23
ENDBRANCH  20  21
ENDBRANCH  17  20
ENDBRANCH  16  17
ENDBRANCH  14  16
BRANCH  14  24
ATOM     24  C   UNL     1       3.535  -4.165   3.545  0.00  0.00    -0.003 C 
BRANCH  24  25
ATOM     25  C   UNL     1       3.190  -2.703   3.654  0.00  0.00    +0.089 A 
ATOM     26  C   UNL     1       3.006  -2.021   4.799  0.00  0.00    +0.042 A 
ATOM     27  C   UNL     1       2.701  -0.688   4.438  0.00  0.00    +0.041 A 
ATOM     28  C   UNL     1       2.718  -0.635   3.094  0.00  0.00    +0.195 A 
ATOM     29  O   UNL     1       3.020  -1.857   2.625  0.00  0.00    -0.470 OA
ENDBRANCH  24  25
ENDBRANCH  14  24
ENDBRANCH  13  14
ENDBRANCH   1  13
BRANCH   5  30
ATOM     30  O   UNL     1       1.191  -7.357   5.875  0.00  0.00    -0.438 OA
BRANCH  30  31
ATOM     31  C   UNL     1       0.686  -8.601   5.664  0.00  0.00    +0.130 A 
ATOM     32  C   UNL     1       1.543  -9.676   5.479  0.00  0.00    +0.046 A 
ATOM     33  C   UNL     1       1.028 -10.940   5.266  0.00  0.00    +0.007 A 
ATOM     34  C   UNL     1      -0.341 -11.133   5.236  0.00  0.00    -0.050 A 
ATOM     35  C   UNL     1      -1.197 -10.063   5.420  0.00  0.00    +0.007 A 
ATOM     36  C   UNL     1      -0.687  -8.799   5.640  0.00  0.00    +0.046 A 
ATOM     37  C   UNL     1      -0.901 -12.513   5.002  0.00  0.00    +0.044 C 
ENDBRANCH  30  31
ENDBRANCH   5  30
TORSDOF 13
