REMARK  Name = ZINC01993018
REMARK  8 active torsions:
REMARK  status: ('A' for Active; 'I' for Inactive)
REMARK    1  A    between atoms: C_1  and  C_2
REMARK    2  A    between atoms: C_2  and  O_3
REMARK    3  A    between atoms: O_3  and  C_4
REMARK    4  A    between atoms: N_11  and  C_12
REMARK    5  A    between atoms: C_13  and  C_21
REMARK    6  A    between atoms: C_21  and  O_23
REMARK    7  A    between atoms: O_23  and  C_24
REMARK    8  A    between atoms: C_26  and  C_28
REMARK                            x       y       z     vdW  Elec       q    Type
REMARK                         _______ _______ _______ _____ _____    ______ ____
ROOT
ATOM      1  C   UNL     1       7.219   5.167   0.115  0.00  0.00    +0.121 A 
ATOM      2  C   UNL     1       7.151   3.780   0.198  0.00  0.00    +0.049 A 
ATOM      3  C   UNL     1       5.931   3.139   0.244  0.00  0.00    +0.050 A 
ATOM      4  C   UNL     1       4.756   3.879   0.208  0.00  0.00    +0.138 A 
ATOM      5  C   UNL     1       4.824   5.278   0.125  0.00  0.00    +0.044 A 
ATOM      6  C   UNL     1       6.059   5.919   0.078  0.00  0.00    +0.059 A 
ATOM      7  C   UNL     1       3.560   6.043   0.087  0.00  0.00    +0.054 A 
ATOM      8  N   UNL     1       3.558   7.370   0.008  0.00  0.00    -0.348 N 
ATOM      9  C   UNL     1       2.350   5.306   0.131  0.00  0.00    +0.073 A 
ATOM     10  C   UNL     1       2.396   3.950   0.217  0.00  0.00    +0.138 A 
ATOM     11  O   UNL     1       3.552   3.267   0.251  0.00  0.00    -0.455 OA
ATOM     12  H   UNL     1       2.611   7.911  -0.134  0.00  0.00    +0.166 HD
ENDROOT
BRANCH   8  13
ATOM     13  C   UNL     1       4.712   8.050   0.101  0.00  0.00    +0.093 A 
ATOM     14  C   UNL     1       5.505   8.585  -0.926  0.00  0.00    +0.093 A 
ATOM     15  C   UNL     1       6.720   9.283  -0.541  0.00  0.00    -0.021 A 
ATOM     16  C   UNL     1       6.976   9.355   0.784  0.00  0.00    -0.004 A 
ATOM     17  S   UNL     1       5.625   8.512   1.562  0.00  0.00    -0.075 S 
ATOM     18  C   UNL     1       8.149  10.012   1.446  0.00  0.00    +0.043 C 
ATOM     19  C   UNL     1       9.221  10.277   0.380  0.00  0.00    +0.005 C 
ATOM     20  C   UNL     1       8.556  10.932  -0.834  0.00  0.00    +0.005 C 
ATOM     21  C   UNL     1       7.672   9.912  -1.554  0.00  0.00    +0.037 C 
BRANCH  14  22
ATOM     22  C   UNL     1       5.136   8.447  -2.288  0.00  0.00    +0.342 C 
ATOM     23  O   UNL     1       4.440   9.293  -2.818  0.00  0.00    -0.245 OA
BRANCH  22  24
ATOM     24  O   UNL     1       5.557   7.379  -2.997  0.00  0.00    -0.464 OA
ATOM     25  C   UNL     1       5.147   7.305  -4.364  0.00  0.00    +0.280 C 
ENDBRANCH  22  24
ENDBRANCH  14  22
ENDBRANCH   8  13
BRANCH  10  26
ATOM     26  C   UNL     1       1.126   3.200   0.269  0.00  0.00    +0.017 A 
ATOM     27  C   UNL     1       1.138   1.806   0.351  0.00  0.00    +0.013 A 
ATOM     28  C   UNL     1      -0.052   1.110   0.400  0.00  0.00    +0.021 A 
ATOM     29  C   UNL     1      -1.257   1.792   0.361  0.00  0.00    +0.041 A 
ATOM     30  C   UNL     1      -1.276   3.175   0.284  0.00  0.00    +0.021 A 
ATOM     31  C   UNL     1      -0.093   3.881   0.235  0.00  0.00    +0.013 A 
ATOM     32 CL   UNL     1      -2.751   0.909   0.415  0.00  0.00    -0.084 Cl
ENDBRANCH  10  26
BRANCH   1  33
ATOM     33  O   UNL     1       8.430   5.785   0.069  0.00  0.00    -0.492 OA
BRANCH  33  35
ATOM     34  C   UNL     1      10.846   5.815   0.050  0.00  0.00    +0.048 C 
ATOM     35  C   UNL     1       9.587   4.948   0.111  0.00  0.00    +0.225 C 
ENDBRANCH  33  35
ENDBRANCH   1  33
TORSDOF 6
