REMARK  Name = ZINC13958100
REMARK  7 active torsions:
REMARK  status: ('A' for Active; 'I' for Inactive)
REMARK    1  A    between atoms: C_1  and  C_2
REMARK    2  A    between atoms: C_5  and  C_9
REMARK    3  A    between atoms: C_7  and  C_8
REMARK    4  A    between atoms: C_12  and  C_33
REMARK    5  A    between atoms: C_18  and  C_20
REMARK    6  A    between atoms: C_23  and  C_28
REMARK    7  A    between atoms: C_25  and  C_27
REMARK                            x       y       z     vdW  Elec       q    Type
REMARK                         _______ _______ _______ _____ _____    ______ ____
ROOT
ATOM      1  C   UNL     1       0.059  -4.275  -0.021  0.00  0.00    +0.113 C 
ATOM      2  C   UNL     1       1.488  -4.760  -0.270  0.00  0.00    +0.062 C 
ATOM      3  C   UNL     1       1.512  -6.296  -0.327  0.00  0.00    +0.201 C 
ATOM      4  N   UNL     1       0.499  -6.709  -1.303  0.00  0.00    -0.226 N 
ATOM      5  C   UNL     1      -0.596  -5.918  -1.628  0.00  0.00    +0.114 C 
ATOM      6  N   UNL     1      -0.840  -4.765  -1.073  0.00  0.00    -0.365 N 
ATOM      7  C   UNL     1      -1.345  -6.642  -2.654  0.00  0.00    +0.072 C 
ATOM      8  C   UNL     1      -0.694  -7.812  -2.876  0.00  0.00    +0.112 C 
ATOM      9  N   UNL     1       0.420  -7.876  -2.056  0.00  0.00    -0.258 N 
ATOM     10  H   UNL     1       1.046  -8.616  -2.014  0.00  0.00    +0.170 HD
ATOM     11  H   UNL     1      -1.606  -4.239  -1.350  0.00  0.00    +0.161 HD
ENDROOT
BRANCH   8  12
ATOM     12  C   UNL     1      -1.110  -8.853  -3.839  0.00  0.00    +0.284 C 
ATOM     13  O   UNL     1      -0.451  -9.868  -3.959  0.00  0.00    -0.267 OA
ATOM     14  N   UNL     1      -2.218  -8.678  -4.585  0.00  0.00    -0.144 N 
ATOM     15  C   UNL     1      -2.748  -9.632  -5.574  0.00  0.00    +0.291 C 
ATOM     16  C   UNL     1      -4.007  -8.922  -6.111  0.00  0.00    +0.122 C 
ATOM     17  C   UNL     1      -4.042  -7.620  -5.344  0.00  0.00    +0.039 C 
ATOM     18  N   UNL     1      -3.057  -7.566  -4.544  0.00  0.00    -0.183 NA
ATOM     19  C   UNL     1      -5.092  -6.549  -5.500  0.00  0.00    +0.062 C 
ATOM     20  O   UNL     1      -1.803  -9.845  -6.625  0.00  0.00    -0.195 OA
BRANCH  15  21
ATOM     21  C   UNL     1      -3.118 -10.955  -4.902  0.00  0.00    +0.441 C 
ATOM     22  F   UNL     1      -4.071 -10.721  -3.905  0.00  0.00    -0.166 F 
ATOM     23  F   UNL     1      -3.648 -11.830  -5.857  0.00  0.00    -0.166 F 
ATOM     24  F   UNL     1      -1.975 -11.525  -4.331  0.00  0.00    -0.166 F 
ENDBRANCH  15  21
ENDBRANCH   8  12
BRANCH   1  29
ATOM     25  C   UNL     1      -0.018   1.503   0.010  0.00  0.00    +0.044 C 
ATOM     26  C   UNL     1       0.002  -0.004   0.002  0.00  0.00    -0.048 A 
ATOM     27  C   UNL     1       0.006  -0.689  -1.199  0.00  0.00    +0.004 A 
ATOM     28  C   UNL     1       0.025  -2.071  -1.207  0.00  0.00    +0.006 A 
ATOM     29  C   UNL     1       0.040  -2.768  -0.013  0.00  0.00    -0.025 A 
ATOM     30  C   UNL     1       0.037  -2.084   1.188  0.00  0.00    +0.009 A 
ATOM     31  C   UNL     1       0.023  -0.702   1.195  0.00  0.00    -0.047 A 
ATOM     32  C   UNL     1       0.025   0.045   2.504  0.00  0.00    +0.044 C 
ENDBRANCH   1  29
BRANCH   3  33
ATOM     33  C   UNL     1       2.894  -6.779  -0.771  0.00  0.00    +0.410 C 
ATOM     34  F   UNL     1       3.859  -6.336   0.141  0.00  0.00    -0.169 F 
ATOM     35  F   UNL     1       2.906  -8.177  -0.819  0.00  0.00    -0.169 F 
ATOM     36  F   UNL     1       3.182  -6.266  -2.040  0.00  0.00    -0.169 F 
ENDBRANCH   3  33
TORSDOF 4
