REMARK  Name = ZINC67193214
REMARK  11 active torsions:
REMARK  status: ('A' for Active; 'I' for Inactive)
REMARK    1  A    between atoms: C_1  and  C_2
REMARK    2  A    between atoms: C_7  and  N_12
REMARK    3  A    between atoms: C_9  and  C_11
REMARK    4  A    between atoms: N_12  and  C_13
REMARK    5  A    between atoms: C_13  and  N_15
REMARK    6  A    between atoms: N_15  and  N_16
REMARK    7  A    between atoms: C_17  and  C_19
REMARK    8  A    between atoms: C_19  and  C_20
REMARK    9  A    between atoms: C_20  and  C_22
REMARK   10  A    between atoms: C_20  and  N_23
REMARK   11  A    between atoms: C_24  and  C_26
REMARK                            x       y       z     vdW  Elec       q    Type
REMARK                         _______ _______ _______ _____ _____    ______ ____
ROOT
ATOM      1  N   UNL     1       2.811  -3.388   4.628  0.00  0.00    -0.235 N 
ATOM      2  C   UNL     1       3.463  -3.835   5.720  0.00  0.00    +0.231 C 
ATOM      3  O   UNL     1       3.225  -4.940   6.158  0.00  0.00    -0.274 OA
ATOM      4  H   UNL     1       3.002  -2.504   4.277  0.00  0.00    +0.173 HD
ENDROOT
BRANCH   1   5
ATOM      5  N   UNL     1       1.859  -4.201   3.999  0.00  0.00    -0.246 N 
ATOM      6  H   UNL     1       1.668  -5.085   4.350  0.00  0.00    +0.172 HD
BRANCH   5   7
ATOM      7  C   UNL     1       1.207  -3.754   2.907  0.00  0.00    +0.147 C 
ATOM      8  S   UNL     1       0.043  -4.748   2.140  0.00  0.00    -0.017 S 
BRANCH   7   9
ATOM      9  N   UNL     1       1.471  -2.526   2.420  0.00  0.00    -0.322 N 
ATOM     10  H   UNL     1       2.131  -1.963   2.855  0.00  0.00    +0.148 HD
BRANCH   9  16
ATOM     11  C   UNL     1      -0.019   1.526   0.010  0.00  0.00    +0.008 C 
ATOM     12  C   UNL     1       0.002  -0.004   0.002  0.00  0.00    -0.009 C 
ATOM     13  C   UNL     1       0.718  -0.497  -1.257  0.00  0.00    +0.003 C 
ATOM     14  C   UNL     1       0.739  -2.027  -1.265  0.00  0.00    +0.002 C 
ATOM     15  C   UNL     1       1.479  -2.534  -0.026  0.00  0.00    +0.022 C 
ATOM     16  C   UNL     1       0.763  -2.041   1.233  0.00  0.00    +0.075 C 
ATOM     17  C   UNL     1       0.742  -0.511   1.242  0.00  0.00    +0.009 C 
ATOM     18  C   UNL     1       0.026  -0.018   2.500  0.00  0.00    +0.009 C 
ENDBRANCH   9  16
ENDBRANCH   7   9
ENDBRANCH   5   7
ENDBRANCH   1   5
BRANCH   2  19
ATOM     19  C   UNL     1       4.488  -2.960   6.395  0.00  0.00    +0.119 C 
BRANCH  19  20
ATOM     20  C   UNL     1       5.074  -3.699   7.600  0.00  0.00    +0.079 C 
ATOM     21  C   UNL     1       6.201  -2.865   8.212  0.00  0.00    +0.028 C 
BRANCH  20  22
ATOM     22  N   UNL     1       4.025  -3.911   8.601  0.00  0.00    -0.312 N 
ATOM     23  C   UNL     1       4.127  -4.929   9.479  0.00  0.00    +0.216 C 
ATOM     24  O   UNL     1       5.087  -5.668   9.441  0.00  0.00    -0.276 OA
ATOM     25  H   UNL     1       3.257  -3.320   8.631  0.00  0.00    +0.149 HD
BRANCH  23  26
ATOM     26  C   UNL     1       3.048  -5.147  10.508  0.00  0.00    +0.075 C 
ATOM     27  C   UNL     1       2.929  -3.905  11.393  0.00  0.00    +0.013 C 
ATOM     28  C   UNL     1       1.833  -4.126  12.438  0.00  0.00    +0.001 C 
ATOM     29  C   UNL     1       2.191  -5.337  13.303  0.00  0.00    +0.000 C 
ATOM     30  C   UNL     1       2.310  -6.579  12.418  0.00  0.00    +0.001 C 
ATOM     31  C   UNL     1       3.405  -6.357  11.373  0.00  0.00    +0.013 C 
ENDBRANCH  23  26
ENDBRANCH  20  22
ENDBRANCH  19  20
ENDBRANCH   2  19
TORSDOF 8
