REMARK  Name = ZINC35973753
REMARK  15 active torsions:
REMARK  status: ('A' for Active; 'I' for Inactive)
REMARK    1  A    between atoms: C_1  and  C_2
REMARK    2  A    between atoms: C_2  and  C_3
REMARK    3  A    between atoms: C_3  and  C_5
REMARK    4  A    between atoms: C_3  and  O_6
REMARK    5  A    between atoms: O_6  and  C_7
REMARK    6  A    between atoms: C_7  and  C_9
REMARK    7  A    between atoms: C_10  and  C_40
REMARK    8  A    between atoms: C_14  and  C_16
REMARK    9  A    between atoms: C_19  and  O_24
REMARK   10  A    between atoms: C_21  and  O_22
REMARK   11  A    between atoms: O_22  and  C_23
REMARK   12  A    between atoms: O_24  and  C_25
REMARK   13  A    between atoms: C_29  and  C_32
REMARK   14  A    between atoms: C_35  and  O_38
REMARK   15  A    between atoms: O_38  and  C_39
REMARK                            x       y       z     vdW  Elec       q    Type
REMARK                         _______ _______ _______ _____ _____    ______ ____
ROOT
ATOM      1  C   UNL     1       4.024   0.687  -2.434  0.00  0.00    +0.065 C 
ATOM      2  C   UNL     1       4.686   0.647  -3.603  0.00  0.00    +0.016 C 
ATOM      3  N   UNL     1       6.037   0.851  -3.641  0.00  0.00    -0.321 N 
ATOM      4  C   UNL     1       6.797   0.705  -2.512  0.00  0.00    +0.016 C 
ATOM      5  C   UNL     1       6.224   0.743  -1.291  0.00  0.00    +0.024 C 
ATOM      6  C   UNL     1       4.738   0.967  -1.144  0.00  0.00    +0.096 C 
ATOM      7  C   UNL     1       6.991   0.579  -0.124  0.00  0.00    +0.162 C 
ATOM      8  O   UNL     1       6.445   0.626   0.961  0.00  0.00    -0.292 OA
ATOM      9  C   UNL     1       8.475   0.345  -0.193  0.00  0.00    +0.088 C 
ATOM     10  C   UNL     1       8.809  -0.354  -1.514  0.00  0.00    +0.032 C 
ATOM     11  C   UNL     1       8.285   0.506  -2.666  0.00  0.00    +0.059 C 
ATOM     12  C   UNL     1       3.933   0.376  -4.880  0.00  0.00    +0.061 C 
ATOM     13  H   UNL     1       6.462   1.100  -4.477  0.00  0.00    +0.152 HD
ENDROOT
BRANCH   6  14
ATOM     14  C   UNL     1       4.486   2.397  -0.739  0.00  0.00    +0.007 A 
ATOM     15  C   UNL     1       4.868   3.429  -1.575  0.00  0.00    +0.012 A 
ATOM     16  C   UNL     1       4.638   4.740  -1.206  0.00  0.00    +0.046 A 
ATOM     17  C   UNL     1       4.022   5.024   0.004  0.00  0.00    +0.124 A 
ATOM     18  C   UNL     1       3.637   3.991   0.844  0.00  0.00    +0.091 A 
ATOM     19  C   UNL     1       3.864   2.675   0.470  0.00  0.00    +0.128 A 
BRANCH  19  20
ATOM     20  O   UNL     1       3.483   1.660   1.288  0.00  0.00    -0.495 OA
ATOM     21  C   UNL     1       2.848   2.020   2.517  0.00  0.00    +0.277 C 
ENDBRANCH  19  20
BRANCH  17  22
ATOM     22  O   UNL     1       3.796   6.315   0.367  0.00  0.00    -0.495 OA
ATOM     23  C   UNL     1       4.219   7.328  -0.547  0.00  0.00    +0.277 C 
ENDBRANCH  17  22
ENDBRANCH   6  14
BRANCH  10  24
ATOM     24  C   UNL     1      10.303  -0.517  -1.638  0.00  0.00    -0.043 A 
ATOM     25  C   UNL     1      11.121   0.598  -1.631  0.00  0.00    +0.007 A 
ATOM     26  C   UNL     1      12.490   0.452  -1.744  0.00  0.00    +0.046 A 
ATOM     27  C   UNL     1      13.044  -0.815  -1.865  0.00  0.00    +0.120 A 
ATOM     28  C   UNL     1      12.220  -1.931  -1.872  0.00  0.00    +0.046 A 
ATOM     29  C   UNL     1      10.852  -1.780  -1.753  0.00  0.00    +0.007 A 
BRANCH  27  30
ATOM     30  O   UNL     1      14.390  -0.961  -1.978  0.00  0.00    -0.495 OA
ATOM     31  C   UNL     1      14.890  -2.294  -2.099  0.00  0.00    +0.277 C 
ENDBRANCH  27  30
ENDBRANCH  10  24
BRANCH   1  32
ATOM     32  C   UNL     1       2.627   0.466  -2.419  0.00  0.00    +0.338 C 
ATOM     33  O   UNL     1       2.182  -0.590  -2.011  0.00  0.00    -0.245 OA
BRANCH  32  34
ATOM     34  O   UNL     1       1.788   1.427  -2.859  0.00  0.00    -0.458 OA
BRANCH  34  35
ATOM     35  C   UNL     1       0.389   1.136  -2.816  0.00  0.00    +0.173 C 
ATOM     36  C   UNL     1      -0.183   1.578  -1.467  0.00  0.00    +0.052 C 
BRANCH  35  38
ATOM     37  C   UNL     1       0.160   1.356  -5.294  0.00  0.00    +0.007 C 
ATOM     38  C   UNL     1      -0.323   1.887  -3.942  0.00  0.00    +0.041 C 
ENDBRANCH  35  38
ENDBRANCH  34  35
ENDBRANCH  32  34
ENDBRANCH   1  32
TORSDOF 9
