REMARK  Name = ZINC13521697
REMARK  4 active torsions:
REMARK  status: ('A' for Active; 'I' for Inactive)
REMARK    1  A    between atoms: C_1  and  C_2
REMARK    2  A    between atoms: C_2  and  C_28
REMARK    3  A    between atoms: C_6  and  C_17
REMARK    4  A    between atoms: C_11  and  O_15
REMARK                            x       y       z     vdW  Elec       q    Type
REMARK                         _______ _______ _______ _____ _____    ______ ____
ROOT
ATOM      1  C   UNL     1      -0.019   1.528   0.010  0.00  0.00    +0.031 C 
ATOM      2  C   UNL     1       0.002  -0.004   0.002  0.00  0.00    +0.033 C 
ATOM      3  C   UNL     1      -1.412  -0.558  -0.107  0.00  0.00    +0.094 C 
ATOM      4  C   UNL     1      -2.111  -0.734   1.231  0.00  0.00    +0.180 C 
ATOM      5  C   UNL     1      -2.643   0.596   1.769  0.00  0.00    +0.082 C 
ATOM      6  C   UNL     1      -3.568   1.242   0.739  0.00  0.00    +0.061 C 
ATOM      7  C   UNL     1      -4.471   0.213   0.113  0.00  0.00    +0.004 A 
ATOM      8  C   UNL     1      -5.518   0.639  -0.690  0.00  0.00    +0.031 A 
ATOM      9  C   UNL     1      -6.376  -0.276  -1.268  0.00  0.00    +0.083 A 
ATOM     10  C   UNL     1      -6.191  -1.635  -1.054  0.00  0.00    +0.139 A 
ATOM     11  C   UNL     1      -5.138  -2.064  -0.266  0.00  0.00    +0.093 A 
ATOM     12  C   UNL     1      -4.273  -1.143   0.312  0.00  0.00    +0.131 A 
ATOM     13  O   UNL     1      -3.238  -1.609   1.060  0.00  0.00    -0.468 OA
ATOM     14 CL   UNL     1      -7.687   0.278  -2.264  0.00  0.00    -0.080 Cl
ATOM     15  N   UNL     1      -1.219  -1.335   2.222  0.00  0.00    -0.289 N 
ATOM     16  C   UNL     1       0.107  -1.165   2.170  0.00  0.00    +0.133 C 
ATOM     17  S   UNL     1       1.074  -1.840   3.412  0.00  0.00    -0.019 S 
ATOM     18  N   UNL     1       0.706  -0.493   1.181  0.00  0.00    -0.321 N 
ATOM     19  C   UNL     1       0.795  -0.456  -1.241  0.00  0.00    +0.031 C 
ATOM     20  H   UNL     1      -1.605  -1.870   2.937  0.00  0.00    +0.151 HD
ATOM     21  H   UNL     1       1.666  -0.319   1.258  0.00  0.00    +0.148 HD
ENDROOT
BRANCH   6  22
ATOM     22  C   UNL     1      -4.401   2.292   1.427  0.00  0.00    -0.005 A 
ATOM     23  C   UNL     1      -5.234   1.939   2.471  0.00  0.00    +0.007 A 
ATOM     24  C   UNL     1      -5.998   2.902   3.103  0.00  0.00    +0.000 A 
ATOM     25  C   UNL     1      -5.930   4.220   2.691  0.00  0.00    +0.003 A 
ATOM     26  C   UNL     1      -5.098   4.576   1.647  0.00  0.00    +0.038 A 
ATOM     27  C   UNL     1      -4.327   3.613   1.017  0.00  0.00    +0.127 A 
ATOM     28  F   UNL     1      -3.509   3.960  -0.001  0.00  0.00    -0.205 F 
ENDBRANCH   6  22
BRANCH  10  29
ATOM     29  O   UNL     1      -7.044  -2.535  -1.610  0.00  0.00    -0.505 OA
ATOM     30  H   UNL     1      -6.778  -2.839  -2.489  0.00  0.00    +0.292 HD
ENDBRANCH  10  29
TORSDOF 2
