REMARK  Name = ZINC64352878
REMARK  9 active torsions:
REMARK  status: ('A' for Active; 'I' for Inactive)
REMARK    1  A    between atoms: C_1  and  O_2
REMARK    2  A    between atoms: O_2  and  C_3
REMARK    3  A    between atoms: C_6  and  C_9
REMARK    4  A    between atoms: C_9  and  C_11
REMARK    5  A    between atoms: C_9  and  C_26
REMARK    6  A    between atoms: C_11  and  N_12
REMARK    7  A    between atoms: C_13  and  C_15
REMARK    8  A    between atoms: C_15  and  C_16
REMARK    9  A    between atoms: C_16  and  C_17
REMARK                            x       y       z     vdW  Elec       q    Type
REMARK                         _______ _______ _______ _____ _____    ______ ____
ROOT
ATOM      1  C   UNL     1       2.587  -2.550   4.310  0.00  0.00    +0.064 C 
ENDROOT
BRANCH   1   2
ATOM      2  C   UNL     1       1.604  -3.434   5.035  0.00  0.00    -0.033 C 
ATOM      3  C   UNL     1       1.228  -3.340   6.330  0.00  0.00    -0.000 A 
ATOM      4  C   UNL     1       1.607  -2.424   7.412  0.00  0.00    +0.010 A 
ATOM      5  C   UNL     1       1.048  -2.583   8.633  0.00  0.00    +0.001 A 
ATOM      6  C   UNL     1       0.119  -3.600   8.891  0.00  0.00    +0.002 A 
ATOM      7  C   UNL     1      -0.279  -4.481   7.949  0.00  0.00    +0.026 A 
ATOM      8  C   UNL     1       0.244  -4.405   6.628  0.00  0.00    +0.043 A 
ATOM      9  N   UNL     1       0.020  -5.129   5.558  0.00  0.00    -0.380 N 
ATOM     10  C   UNL     1       0.834  -4.601   4.458  0.00  0.00    +0.145 C 
ATOM     11  H   UNL     1      -0.585  -5.885   5.503  0.00  0.00    +0.160 HD
ENDBRANCH   1   2
BRANCH   1  15
ATOM     12  C   UNL     1       0.626  -0.618   1.042  0.00  0.00    +0.120 A 
ATOM     13  C   UNL     1       1.202   0.138   2.051  0.00  0.00    +0.046 A 
ATOM     14  C   UNL     1       1.835  -0.488   3.107  0.00  0.00    +0.008 A 
ATOM     15  C   UNL     1       1.895  -1.869   3.158  0.00  0.00    -0.038 A 
ATOM     16  C   UNL     1       1.322  -2.625   2.152  0.00  0.00    +0.008 A 
ATOM     17  C   UNL     1       0.682  -2.003   1.098  0.00  0.00    +0.046 A 
BRANCH  12  19
ATOM     18  C   UNL     1      -0.017   1.425   0.010  0.00  0.00    +0.277 C 
ATOM     19  O   UNL     1       0.002  -0.004   0.002  0.00  0.00    -0.495 OA
ENDBRANCH  12  19
ENDBRANCH   1  15
BRANCH   1  20
ATOM     20  C   UNL     1       3.743  -3.400   3.781  0.00  0.00    +0.116 C 
BRANCH  20  21
ATOM     21  N   UNL     1       4.489  -3.967   4.907  0.00  0.00    -0.314 N 
ATOM     22  C   UNL     1       5.557  -4.756   4.680  0.00  0.00    +0.213 C 
ATOM     23  O   UNL     1       5.902  -4.997   3.542  0.00  0.00    -0.276 OA
ATOM     24  H   UNL     1       4.213  -3.774   5.817  0.00  0.00    +0.149 HD
BRANCH  22  25
ATOM     25  C   UNL     1       6.324  -5.339   5.839  0.00  0.00    +0.100 C 
BRANCH  25  26
ATOM     26  C   UNL     1       7.481  -6.189   5.309  0.00  0.00    +0.044 C 
BRANCH  26  27
ATOM     27  C   UNL     1       8.247  -6.772   6.468  0.00  0.00    -0.043 A 
ATOM     28  C   UNL     1       9.308  -6.074   7.014  0.00  0.00    +0.007 A 
ATOM     29  C   UNL     1      10.014  -6.604   8.078  0.00  0.00    +0.050 A 
ATOM     30  C   UNL     1       9.660  -7.838   8.599  0.00  0.00    +0.166 A 
ATOM     31  C   UNL     1       8.592  -8.541   8.049  0.00  0.00    +0.166 A 
ATOM     32  C   UNL     1       7.885  -8.001   6.987  0.00  0.00    +0.053 A 
ATOM     33  O   UNL     1       8.445  -9.715   8.730  0.00  0.00    -0.453 OA
ATOM     34  C   UNL     1       9.687  -9.909   9.434  0.00  0.00    +0.466 C 
ATOM     35  O   UNL     1      10.183  -8.571   9.625  0.00  0.00    -0.453 OA
ENDBRANCH  26  27
ENDBRANCH  25  26
ENDBRANCH  22  25
ENDBRANCH  20  21
ENDBRANCH   1  20
TORSDOF 8
