REMARK  Name = ZINC66146076
REMARK  6 active torsions:
REMARK  status: ('A' for Active; 'I' for Inactive)
REMARK    1  A    between atoms: C_1  and  S_2
REMARK    2  A    between atoms: S_2  and  N_5
REMARK    3  A    between atoms: N_5  and  C_6
REMARK    4  A    between atoms: C_6  and  C_7
REMARK    5  A    between atoms: C_7  and  N_8
REMARK    6  A    between atoms: C_12  and  C_13
REMARK                            x       y       z     vdW  Elec       q    Type
REMARK                         _______ _______ _______ _____ _____    ______ ____
ROOT
ATOM      1  N   UNL     1       4.391  -1.161  -4.146  0.00  0.00    -0.254 N 
ATOM      2  C   UNL     1       4.654   0.086  -4.499  0.00  0.00    +0.258 C 
ATOM      3  O   UNL     1       3.798   0.811  -4.971  0.00  0.00    -0.269 OA
ATOM      4  C   UNL     1       6.040   0.554  -4.291  0.00  0.00    +0.077 C 
ATOM      5  C   UNL     1       6.593   1.764  -4.554  0.00  0.00    +0.028 C 
ATOM      6  S   UNL     1       6.788  -0.913  -3.596  0.00  0.00    -0.061 S 
ATOM      7  C   UNL     1       5.341  -1.960  -3.619  0.00  0.00    +0.121 C 
ATOM      8  S   UNL     1       5.196  -3.585  -3.100  0.00  0.00    -0.027 S 
ENDROOT
BRANCH   5   9
ATOM      9  C   UNL     1       8.046   1.949  -4.441  0.00  0.00    -0.024 A 
ATOM     10  C   UNL     1       8.883   0.843  -4.246  0.00  0.00    +0.009 A 
ATOM     11  C   UNL     1      10.245   1.024  -4.141  0.00  0.00    +0.020 A 
ATOM     12  C   UNL     1      10.787   2.296  -4.228  0.00  0.00    +0.041 A 
ATOM     13  C   UNL     1       9.966   3.396  -4.420  0.00  0.00    +0.020 A 
ATOM     14  C   UNL     1       8.602   3.230  -4.533  0.00  0.00    +0.009 A 
ATOM     15 CL   UNL     1      12.504   2.514  -4.094  0.00  0.00    -0.084 Cl
ENDBRANCH   5   9
BRANCH   1  16
ATOM     16  C   UNL     1       3.035  -1.686  -4.327  0.00  0.00    +0.132 C 
BRANCH  16  17
ATOM     17  C   UNL     1       2.211  -1.414  -3.067  0.00  0.00    +0.125 C 
BRANCH  17  18
ATOM     18  N   UNL     1       0.855  -1.939  -3.248  0.00  0.00    -0.193 NA
ATOM     19  H   UNL     1       0.541  -2.177  -4.134  0.00  0.00    +0.148 HD
BRANCH  18  21
ATOM     20  C   UNL     1      -0.433  -0.441  -1.330  0.00  0.00    +0.214 C 
ATOM     21  S   UNL     1      -0.142  -2.125  -1.938  0.00  0.00    +0.027 S 
ATOM     22  O   UNL     1       0.629  -2.859  -0.997  0.00  0.00    -0.158 OA
ATOM     23  O   UNL     1      -1.342  -2.668  -2.471  0.00  0.00    -0.158 OA
ENDBRANCH  18  21
ENDBRANCH  17  18
ENDBRANCH  16  17
ENDBRANCH   1  16
TORSDOF 5
