REMARK  Name = ZINC21472634
REMARK  12 active torsions:
REMARK  status: ('A' for Active; 'I' for Inactive)
REMARK    1  A    between atoms: C_1  and  C_2
REMARK    2  A    between atoms: C_2  and  C_3
REMARK    3  A    between atoms: C_3  and  N_4
REMARK    4  A    between atoms: N_4  and  C_5
REMARK    5  A    between atoms: N_4  and  C_16
REMARK    6  A    between atoms: C_5  and  C_6
REMARK    7  A    between atoms: C_9  and  C_11
REMARK    8  A    between atoms: C_16  and  C_17
REMARK    9  A    between atoms: N_19  and  C_20
REMARK   10  A    between atoms: C_21  and  C_29
REMARK   11  A    between atoms: C_29  and  O_31
REMARK   12  A    between atoms: O_31  and  C_32
REMARK                            x       y       z     vdW  Elec       q    Type
REMARK                         _______ _______ _______ _____ _____    ______ ____
ROOT
ATOM      1  C   UNL     1       1.127   3.580  -0.011  0.00  0.00    +0.020 C 
ENDROOT
BRANCH   1   2
ATOM      2  C   UNL     1       1.142   2.074   0.013  0.00  0.00    +0.201 C 
ATOM      3  O   UNL     1       2.197   1.478   0.057  0.00  0.00    -0.278 OA
ATOM      4  N   UNL     1      -0.018   1.388  -0.016  0.00  0.00    -0.281 N 
ATOM      5  H   UNL     1      -0.976   1.928  -0.056  0.00  0.00    +0.155 HD
BRANCH   4   6
ATOM      6  C   UNL     1      -0.005   0.002   0.005  0.00  0.00    +0.086 A 
ATOM      7  C   UNL     1      -1.084  -0.872  -0.012  0.00  0.00    +0.091 A 
ATOM      8  C   UNL     1      -0.794  -2.296   0.013  0.00  0.00    -0.021 A 
ATOM      9  C   UNL     1       0.517  -2.616   0.062  0.00  0.00    -0.004 A 
ATOM     10  S   UNL     1       1.363  -1.060   0.067  0.00  0.00    -0.077 S 
ATOM     11  C   UNL     1       1.111  -3.990   0.104  0.00  0.00    +0.043 C 
ATOM     12  C   UNL     1      -0.002  -4.987   0.460  0.00  0.00    +0.005 C 
ATOM     13  C   UNL     1      -1.220  -4.702  -0.423  0.00  0.00    +0.005 C 
ATOM     14  C   UNL     1      -1.866  -3.379  -0.008  0.00  0.00    +0.037 C 
BRANCH   7  15
ATOM     15  C   UNL     1      -2.461  -0.377  -0.058  0.00  0.00    +0.342 C 
ATOM     16  O   UNL     1      -3.004  -0.188  -1.130  0.00  0.00    -0.245 OA
BRANCH  15  17
ATOM     17  O   UNL     1      -3.128  -0.132   1.088  0.00  0.00    -0.464 OA
ATOM     18  C   UNL     1      -4.490   0.357   0.967  0.00  0.00    +0.280 C 
ENDBRANCH  15  17
ENDBRANCH   7  15
ENDBRANCH   4   6
ENDBRANCH   1   2
BRANCH   1  19
ATOM     19  N   UNL     1       2.500   4.086   0.122  0.00  0.00    +0.391 N 
ATOM     20  H   UNL     1       3.011   3.480   0.884  0.00  0.00    -0.080 HD
BRANCH  19  21
ATOM     21  C   UNL     1       2.505   5.482   0.578  0.00  0.00    -0.078 C 
BRANCH  21  23
ATOM     22  C   UNL     1       2.322   6.971   2.576  0.00  0.00    +0.002 C 
ATOM     23  C   UNL     1       2.189   5.532   2.074  0.00  0.00    -0.022 C 
ENDBRANCH  21  23
ENDBRANCH  19  21
BRANCH  19  24
ATOM     24  C   UNL     1       3.238   3.941  -1.140  0.00  0.00    +0.021 C 
BRANCH  24  25
ATOM     25  C   UNL     1       4.697   4.236  -0.904  0.00  0.00    +0.202 A 
ATOM     26  N   UNL     1       5.611   3.372  -0.563  0.00  0.00    -0.114 NA
ATOM     27  N   UNL     1       6.747   3.966  -0.451  0.00  0.00    -0.107 NA
ATOM     28  C   UNL     1       6.593   5.246  -0.712  0.00  0.00    +0.255 A 
ATOM     29  O   UNL     1       5.290   5.439  -1.004  0.00  0.00    -0.422 OA
BRANCH  28  30
ATOM     30  C   UNL     1       7.644   6.274  -0.690  0.00  0.00    +0.076 A 
ATOM     31  C   UNL     1       8.988   6.140  -0.394  0.00  0.00    +0.021 A 
ATOM     32  C   UNL     1       9.784   7.260  -0.444  0.00  0.00    +0.008 A 
ATOM     33  C   UNL     1       9.229   8.457  -0.769  0.00  0.00    +0.046 A 
ATOM     34  S   UNL     1       7.517   8.022  -1.029  0.00  0.00    -0.092 S 
ENDBRANCH  28  30
ENDBRANCH  24  25
ENDBRANCH  19  24
ENDBRANCH   1  19
TORSDOF 10
