REMARK  Name = ZINC32102574
REMARK  5 active torsions:
REMARK  status: ('A' for Active; 'I' for Inactive)
REMARK    1  A    between atoms: C_1  and  C_2
REMARK    2  A    between atoms: C_3  and  C_18
REMARK    3  A    between atoms: C_8  and  C_10
REMARK    4  A    between atoms: C_11  and  C_12
REMARK    5  A    between atoms: C_20  and  C_23
REMARK                            x       y       z     vdW  Elec       q    Type
REMARK                         _______ _______ _______ _____ _____    ______ ____
ROOT
ATOM      1  C   UNL     1      -0.018   1.503   0.010  0.00  0.00    +0.067 C 
ATOM      2  C   UNL     1       0.002  -0.004   0.002  0.00  0.00    +0.060 A 
ATOM      3  C   UNL     1       0.006  -0.720  -1.173  0.00  0.00    +0.101 A 
ATOM      4  S   UNL     1       0.033  -2.390  -0.541  0.00  0.00    -0.047 S 
ATOM      5  C   UNL     1       0.036  -2.018   1.100  0.00  0.00    +0.166 A 
ATOM      6  N   UNL     1       0.022  -0.699   1.114  0.00  0.00    -0.229 NA
ATOM      7  N   UNL     1       0.053  -2.888   2.176  0.00  0.00    -0.261 N 
ATOM      8  C   UNL     1       0.053  -2.403   3.434  0.00  0.00    +0.243 C 
ATOM      9  O   UNL     1       0.037  -1.201   3.623  0.00  0.00    -0.270 OA
ATOM     10  H   UNL     1       0.066  -3.846   2.026  0.00  0.00    +0.157 HD
ENDROOT
BRANCH   3  11
ATOM     11  C   UNL     1      -0.008  -0.244  -2.560  0.00  0.00    +0.267 A 
ATOM     12  N   UNL     1      -0.008  -1.002  -3.638  0.00  0.00    -0.187 NA
ATOM     13  C   UNL     1      -0.024  -0.232  -4.736  0.00  0.00    +0.202 A 
ATOM     14  N   UNL     1      -0.034   1.028  -4.372  0.00  0.00    -0.056 NA
ATOM     15  O   UNL     1      -0.029   1.044  -2.953  0.00  0.00    -0.332 OA
BRANCH  13  16
ATOM     16  C   UNL     1      -0.029  -0.726  -6.136  0.00  0.00    +0.022 A 
ATOM     17  C   UNL     1      -0.022  -2.095  -6.394  0.00  0.00    +0.012 A 
ATOM     18  C   UNL     1      -0.027  -2.549  -7.697  0.00  0.00    +0.001 A 
ATOM     19  C   UNL     1      -0.038  -1.648  -8.746  0.00  0.00    +0.000 A 
ATOM     20  C   UNL     1      -0.044  -0.288  -8.496  0.00  0.00    +0.001 A 
ATOM     21  C   UNL     1      -0.045   0.177  -7.196  0.00  0.00    +0.012 A 
ENDBRANCH  13  16
ENDBRANCH   3  11
BRANCH   8  22
ATOM     22  C   UNL     1       0.072  -3.322   4.572  0.00  0.00    +0.068 C 
ATOM     23  C   UNL     1       0.071  -2.837   5.831  0.00  0.00    +0.013 C 
BRANCH  23  24
ATOM     24  C   UNL     1       0.090  -3.762   6.976  0.00  0.00    -0.025 A 
ATOM     25  C   UNL     1       0.114  -5.144   6.763  0.00  0.00    +0.008 A 
ATOM     26  C   UNL     1       0.132  -6.004   7.841  0.00  0.00    +0.001 A 
ATOM     27  C   UNL     1       0.126  -5.502   9.131  0.00  0.00    +0.000 A 
ATOM     28  C   UNL     1       0.102  -4.136   9.350  0.00  0.00    +0.001 A 
ATOM     29  C   UNL     1       0.090  -3.263   8.282  0.00  0.00    +0.008 A 
ENDBRANCH  23  24
ENDBRANCH   8  22
TORSDOF 4
