REMARK  Name = ZINC09399260
REMARK  8 active torsions:
REMARK  status: ('A' for Active; 'I' for Inactive)
REMARK    1  A    between atoms: C_1  and  C_2
REMARK    2  A    between atoms: C_2  and  N_3
REMARK    3  A    between atoms: C_7  and  S_34
REMARK    4  A    between atoms: N_12  and  C_13
REMARK    5  A    between atoms: C_13  and  C_15
REMARK    6  A    between atoms: C_18  and  S_21
REMARK    7  A    between atoms: S_21  and  N_24
REMARK    8  A    between atoms: S_34  and  C_35
REMARK                            x       y       z     vdW  Elec       q    Type
REMARK                         _______ _______ _______ _____ _____    ______ ____
ROOT
ATOM      1  C   UNL     1      -3.163  -0.544  -5.129  0.00  0.00    +0.039 A 
ATOM      2  C   UNL     1      -1.821  -0.360  -4.797  0.00  0.00    +0.015 A 
ATOM      3  C   UNL     1      -1.476   0.023  -3.517  0.00  0.00    +0.029 A 
ATOM      4  C   UNL     1      -2.458   0.225  -2.564  0.00  0.00    +0.109 A 
ATOM      5  C   UNL     1      -3.791   0.039  -2.886  0.00  0.00    +0.029 A 
ATOM      6  C   UNL     1      -4.149  -0.339  -4.164  0.00  0.00    +0.015 A 
ENDROOT
BRANCH   4   7
ATOM      7  S   UNL     1      -2.010   0.713  -0.932  0.00  0.00    +0.075 S 
ATOM      8  O   UNL     1      -0.669   0.286  -0.734  0.00  0.00    -0.150 OA
ATOM      9  O   UNL     1      -3.072   0.307  -0.080  0.00  0.00    -0.150 OA
BRANCH   7  10
ATOM     10  N   UNL     1      -1.987   2.369  -0.905  0.00  0.00    -0.203 N 
ATOM     11  C   UNL     1      -0.734   3.102  -1.127  0.00  0.00    +0.132 C 
ATOM     12  C   UNL     1      -0.650   4.217  -0.076  0.00  0.00    +0.025 C 
ATOM     13  C   UNL     1      -1.809   5.189  -0.294  0.00  0.00    +0.038 C 
ATOM     14  C   UNL     1      -3.115   4.444  -0.368  0.00  0.00    -0.025 A 
ATOM     15  C   UNL     1      -3.162   3.091  -0.665  0.00  0.00    +0.054 A 
ATOM     16  C   UNL     1      -4.386   2.436  -0.738  0.00  0.00    +0.025 A 
ATOM     17  C   UNL     1      -5.556   3.130  -0.500  0.00  0.00    +0.002 A 
ATOM     18  C   UNL     1      -5.508   4.478  -0.196  0.00  0.00    +0.000 A 
ATOM     19  C   UNL     1      -4.293   5.132  -0.131  0.00  0.00    +0.005 A 
ENDBRANCH   7  10
ENDBRANCH   4   7
BRANCH   1  20
ATOM     20  C   UNL     1      -3.540  -0.956  -6.501  0.00  0.00    +0.269 C 
ATOM     21  O   UNL     1      -2.677  -1.135  -7.342  0.00  0.00    -0.268 OA
BRANCH  20  31
ATOM     22  N   UNL     1      -6.409  -1.727  -8.547  0.00  0.00    -0.321 N 
ATOM     23  C   UNL     1      -6.566  -2.109  -9.869  0.00  0.00    +0.058 A 
ATOM     24  C   UNL     1      -7.758  -2.383 -10.559  0.00  0.00    +0.028 A 
ATOM     25  C   UNL     1      -7.737  -2.754 -11.881  0.00  0.00    +0.017 A 
ATOM     26  C   UNL     1      -6.538  -2.869 -12.578  0.00  0.00    +0.009 A 
ATOM     27  C   UNL     1      -5.345  -2.603 -11.916  0.00  0.00    +0.032 A 
ATOM     28  C   UNL     1      -5.372  -2.232 -10.593  0.00  0.00    +0.040 A 
ATOM     29  S   UNL     1      -4.127  -1.806  -9.402  0.00  0.00    -0.052 S 
ATOM     30  C   UNL     1      -5.165  -1.502  -8.047  0.00  0.00    +0.167 A 
ATOM     31  N   UNL     1      -4.827  -1.132  -6.816  0.00  0.00    -0.152 NA
BRANCH  22  33
ATOM     32  C   UNL     1      -7.250  -2.036  -6.272  0.00  0.00    +0.027 C 
ATOM     33  C   UNL     1      -7.585  -1.564  -7.688  0.00  0.00    +0.121 C 
ENDBRANCH  22  33
BRANCH  26  34
ATOM     34  S   UNL     1      -6.532  -3.346 -14.274  0.00  0.00    -0.129 S 
ATOM     35  C   UNL     1      -8.287  -3.576 -14.671  0.00  0.00    +0.090 C 
ENDBRANCH  26  34
ENDBRANCH  20  31
ENDBRANCH   1  20
TORSDOF 6
