REMARK  Name = ZINC34774261
REMARK  6 active torsions:
REMARK  status: ('A' for Active; 'I' for Inactive)
REMARK    1  A    between atoms: C_2  and  C_3
REMARK    2  A    between atoms: C_3  and  S_4
REMARK    3  A    between atoms: S_4  and  C_5
REMARK    4  A    between atoms: C_9  and  C_14
REMARK    5  A    between atoms: N_23  and  C_26
REMARK    6  A    between atoms: C_26  and  C_27
REMARK                            x       y       z     vdW  Elec       q    Type
REMARK                         _______ _______ _______ _____ _____    ______ ____
ROOT
ATOM      1  C   UNL     1       4.128  -1.846   1.416  0.00  0.00    +0.191 A 
ATOM      2  N   UNL     1       4.456  -2.652   2.418  0.00  0.00    -0.206 NA
ATOM      3  C   UNL     1       4.023  -3.899   2.486  0.00  0.00    +0.134 A 
ATOM      4  C   UNL     1       3.179  -4.401   1.458  0.00  0.00    +0.055 A 
ATOM      5  C   UNL     1       2.580  -5.725   1.311  0.00  0.00    +0.002 A 
ATOM      6  C   UNL     1       1.802  -5.970   0.232  0.00  0.00    +0.056 A 
ATOM      7  S   UNL     1       1.826  -4.427  -0.659  0.00  0.00    -0.076 S 
ATOM      8  C   UNL     1       2.872  -3.492   0.426  0.00  0.00    +0.115 A 
ATOM      9  N   UNL     1       3.340  -2.259   0.432  0.00  0.00    -0.214 NA
ATOM     10  N   UNL     1       4.388  -4.708   3.547  0.00  0.00    -0.318 N 
ATOM     11  C   UNL     1       5.748  -5.261   3.644  0.00  0.00    +0.088 C 
ATOM     12  C   UNL     1       6.295  -4.963   5.044  0.00  0.00    -0.059 C 
ATOM     13  N   UNL     1       5.359  -5.475   6.053  0.00  0.00    +0.387 N 
ATOM     14  C   UNL     1       4.084  -4.753   5.965  0.00  0.00    -0.059 C 
ATOM     15  C   UNL     1       3.429  -5.036   4.614  0.00  0.00    +0.088 C 
ATOM     16  H   UNL     1       5.199  -6.458   5.894  0.00  0.00    -0.081 HD
ENDROOT
BRANCH   5  17
ATOM     17  C   UNL     1       2.821  -6.779   2.324  0.00  0.00    -0.017 A 
ATOM     18  C   UNL     1       4.120  -7.216   2.585  0.00  0.00    +0.008 A 
ATOM     19  C   UNL     1       4.338  -8.198   3.529  0.00  0.00    +0.001 A 
ATOM     20  C   UNL     1       3.271  -8.749   4.217  0.00  0.00    +0.000 A 
ATOM     21  C   UNL     1       1.981  -8.319   3.963  0.00  0.00    +0.001 A 
ATOM     22  C   UNL     1       1.751  -7.335   3.025  0.00  0.00    +0.008 A 
ENDBRANCH   5  17
BRANCH   1  23
ATOM     23  S   UNL     1       4.744  -0.195   1.395  0.00  0.00    -0.082 S 
BRANCH  23  24
ATOM     24  C   UNL     1       4.044   0.516  -0.119  0.00  0.00    +0.104 C 
BRANCH  24  26
ATOM     25  C   UNL     1       5.273   2.292  -1.258  0.00  0.00    +0.005 C 
ATOM     26  C   UNL     1       4.499   1.946  -0.260  0.00  0.00    -0.023 C 
ENDBRANCH  24  26
ENDBRANCH  23  24
ENDBRANCH   1  23
BRANCH  13  27
ATOM     27  C   UNL     1       5.935  -5.287   7.392  0.00  0.00    +0.019 C 
BRANCH  27  28
ATOM     28  C   UNL     1       5.033  -5.922   8.419  0.00  0.00    +0.199 C 
ATOM     29  O   UNL     1       4.012  -6.476   8.071  0.00  0.00    -0.278 OA
ATOM     30  N   UNL     1       5.362  -5.874   9.726  0.00  0.00    -0.303 N 
ATOM     31  C   UNL     1       6.593  -5.201  10.164  0.00  0.00    +0.107 C 
ATOM     32  C   UNL     1       6.235  -4.170  11.239  0.00  0.00    +0.019 C 
ATOM     33  C   UNL     1       5.461  -4.861  12.365  0.00  0.00    +0.003 C 
ATOM     34  C   UNL     1       4.162  -5.448  11.807  0.00  0.00    +0.019 C 
ATOM     35  C   UNL     1       4.493  -6.488  10.739  0.00  0.00    +0.107 C 
ENDBRANCH  27  28
ENDBRANCH  13  27
TORSDOF 6
