REMARK  Name = ZINC35646312
REMARK  15 active torsions:
REMARK  status: ('A' for Active; 'I' for Inactive)
REMARK    1  A    between atoms: C_1  and  C_2
REMARK    2  A    between atoms: C_2  and  O_3
REMARK    3  A    between atoms: O_3  and  C_4
REMARK    4  A    between atoms: C_4  and  C_6
REMARK    5  A    between atoms: C_7  and  C_23
REMARK    6  A    between atoms: N_8  and  C_22
REMARK    7  A    between atoms: C_12  and  C_14
REMARK    8  A    between atoms: C_16  and  C_21
REMARK    9  A    between atoms: C_19  and  C_20
REMARK   10  A    between atoms: C_23  and  N_24
REMARK   11  A    between atoms: C_28  and  C_31
REMARK   12  A    between atoms: C_32  and  C_34
REMARK   13  A    between atoms: C_34  and  C_35
REMARK   14  A    between atoms: C_35  and  C_36
REMARK   15  A    between atoms: C_35  and  C_37
REMARK                            x       y       z     vdW  Elec       q    Type
REMARK                         _______ _______ _______ _____ _____    ______ ____
ROOT
ATOM      1  C   UNL     1       1.537  -2.123   2.493  0.00  0.00    +0.080 C 
ATOM      2  C   UNL     1       1.602  -3.464   2.631  0.00  0.00    +0.041 C 
ATOM      3  N   UNL     1       2.160  -4.032   3.740  0.00  0.00    -0.260 N 
ATOM      4  C   UNL     1       2.674  -3.328   4.757  0.00  0.00    +0.307 C 
ATOM      5  O   UNL     1       3.149  -3.924   5.704  0.00  0.00    -0.252 OA
ATOM      6  N   UNL     1       2.681  -1.980   4.764  0.00  0.00    -0.288 N 
ATOM      7  C   UNL     1       2.108  -1.270   3.608  0.00  0.00    +0.144 C 
ATOM      8  C   UNL     1       2.198  -5.495   3.824  0.00  0.00    +0.139 C 
ATOM      9  H   UNL     1       3.058  -1.490   5.511  0.00  0.00    +0.151 HD
ENDROOT
BRANCH   7  10
ATOM     10  C   UNL     1       3.180  -0.391   3.018  0.00  0.00    -0.019 A 
ATOM     11  C   UNL     1       4.492  -0.825   2.990  0.00  0.00    +0.009 A 
ATOM     12  C   UNL     1       5.476  -0.019   2.449  0.00  0.00    -0.050 A 
ATOM     13  C   UNL     1       5.147   1.222   1.936  0.00  0.00    +0.003 A 
ATOM     14  C   UNL     1       3.836   1.656   1.963  0.00  0.00    +0.004 A 
ATOM     15  C   UNL     1       2.851   0.847   2.500  0.00  0.00    -0.045 A 
ATOM     16  C   UNL     1       1.420   1.318   2.525  0.00  0.00    +0.044 C 
ATOM     17  C   UNL     1       6.906  -0.492   2.420  0.00  0.00    +0.044 C 
ENDBRANCH   7  10
BRANCH   1  18
ATOM     18  C   UNL     1       0.960  -1.533   1.344  0.00  0.00    +0.339 C 
ATOM     19  O   UNL     1       1.673  -1.050   0.484  0.00  0.00    -0.245 OA
BRANCH  18  20
ATOM     20  O   UNL     1      -0.382  -1.506   1.201  0.00  0.00    -0.462 OA
BRANCH  20  22
ATOM     21  C   UNL     1      -2.419  -0.929   0.036  0.00  0.00    +0.048 C 
ATOM     22  C   UNL     1      -0.892  -0.996  -0.033  0.00  0.00    +0.229 C 
ENDBRANCH  20  22
ENDBRANCH  18  20
ENDBRANCH   1  18
BRANCH   2  23
ATOM     23  C   UNL     1       1.051  -4.349   1.542  0.00  0.00    +0.136 C 
BRANCH  23  24
ATOM     24  N   UNL     1       2.146  -5.116   0.933  0.00  0.00    -0.294 NA
ATOM     25  C   UNL     1       3.083  -4.229   0.231  0.00  0.00    +0.104 C 
ATOM     26  C   UNL     1       4.298  -5.039  -0.233  0.00  0.00    +0.123 C 
ATOM     27  N   UNL     1       3.822  -6.188  -1.018  0.00  0.00    -0.296 N 
ATOM     28  C   UNL     1       2.780  -7.046  -0.434  0.00  0.00    +0.087 C 
ATOM     29  C   UNL     1       1.624  -6.157   0.037  0.00  0.00    +0.107 C 
ATOM     30  C   UNL     1       2.276  -8.033  -1.489  0.00  0.00    +0.029 C 
ATOM     31  C   UNL     1       4.327  -6.447  -2.240  0.00  0.00    +0.216 C 
ATOM     32  O   UNL     1       3.861  -7.344  -2.911  0.00  0.00    -0.276 OA
BRANCH  31  33
ATOM     33  C   UNL     1       5.470  -5.623  -2.774  0.00  0.00    +0.099 C 
BRANCH  33  34
ATOM     34  C   UNL     1       5.850  -6.120  -4.170  0.00  0.00    -0.008 C 
ATOM     35  C   UNL     1       6.925  -5.206  -4.762  0.00  0.00    +0.008 C 
ATOM     36  C   UNL     1       6.390  -7.548  -4.074  0.00  0.00    +0.008 C 
ENDBRANCH  33  34
ENDBRANCH  31  33
ENDBRANCH  23  24
ENDBRANCH   2  23
TORSDOF 8
