REMARK  Name = ZINC10318288
REMARK  7 active torsions:
REMARK  status: ('A' for Active; 'I' for Inactive)
REMARK    1  A    between atoms: C_1  and  C_2
REMARK    2  A    between atoms: C_3  and  N_9
REMARK    3  A    between atoms: C_10  and  C_30
REMARK    4  A    between atoms: C_13  and  S_14
REMARK    5  A    between atoms: S_14  and  C_15
REMARK    6  A    between atoms: C_15  and  C_17
REMARK    7  A    between atoms: C_15  and  C_18
REMARK                            x       y       z     vdW  Elec       q    Type
REMARK                         _______ _______ _______ _____ _____    ______ ____
ROOT
ATOM      1  N   UNL     1      -0.904  -5.414   1.509  0.00  0.00    -0.270 N 
ATOM      2  C   UNL     1      -0.325  -6.625   1.196  0.00  0.00    +0.169 A 
ATOM      3  N   UNL     1       0.735  -6.367   0.465  0.00  0.00    -0.128 NA
ATOM      4  N   UNL     1       0.854  -5.099   0.295  0.00  0.00    -0.122 NA
ATOM      5  C   UNL     1      -0.118  -4.466   0.917  0.00  0.00    +0.197 A 
ENDROOT
BRANCH   1   8
ATOM      6  C   UNL     1      -0.611  -5.074   4.320  0.00  0.00    +0.047 C 
ATOM      7  C   UNL     1      -1.960  -5.029   3.649  0.00  0.00    -0.008 A 
ATOM      8  C   UNL     1      -2.059  -5.199   2.275  0.00  0.00    +0.055 A 
ATOM      9  C   UNL     1      -3.302  -5.152   1.660  0.00  0.00    +0.026 A 
ATOM     10  C   UNL     1      -4.439  -4.946   2.417  0.00  0.00    +0.003 A 
ATOM     11  C   UNL     1      -4.339  -4.776   3.785  0.00  0.00    +0.020 A 
ATOM     12  C   UNL     1      -3.100  -4.817   4.401  0.00  0.00    +0.046 A 
ATOM     13 CL   UNL     1      -2.978  -4.604   6.120  0.00  0.00    -0.083 Cl
ENDBRANCH   1   8
BRANCH   2  14
ATOM     14  C   UNL     1      -0.805  -7.960   1.607  0.00  0.00    +0.022 A 
ATOM     15  C   UNL     1      -1.746  -8.102   2.635  0.00  0.00    +0.031 A 
ATOM     16  C   UNL     1      -2.169  -9.367   2.983  0.00  0.00    +0.111 A 
ATOM     17  N   UNL     1      -1.692 -10.434   2.370  0.00  0.00    -0.263 NA
ATOM     18  C   UNL     1      -0.802 -10.346   1.400  0.00  0.00    +0.111 A 
ATOM     19  C   UNL     1      -0.327  -9.120   0.984  0.00  0.00    +0.031 A 
ENDBRANCH   2  14
BRANCH   5  20
ATOM     20  S   UNL     1      -0.363  -2.722   0.970  0.00  0.00    -0.075 S 
BRANCH  20  21
ATOM     21  C   UNL     1       1.050  -2.175  -0.020  0.00  0.00    +0.117 C 
ATOM     22  C   UNL     1       0.889  -2.671  -1.458  0.00  0.00    +0.027 C 
BRANCH  21  23
ATOM     23  C   UNL     1       1.117  -0.670  -0.012  0.00  0.00    +0.124 A 
ATOM     24  N   UNL     1       2.340  -0.078  -0.020  0.00  0.00    -0.309 N 
ATOM     25  H   UNL     1       3.139  -0.628  -0.031  0.00  0.00    +0.170 HD
ATOM     26  C   UNL     1       2.453   1.270  -0.014  0.00  0.00    +0.259 A 
ATOM     27  O   UNL     1       3.543   1.813  -0.021  0.00  0.00    -0.267 OA
ATOM     28  C   UNL     1       1.209   2.054   0.002  0.00  0.00    +0.065 A 
ATOM     29  C   UNL     1       1.216   3.447   0.009  0.00  0.00    +0.015 A 
ATOM     30  C   UNL     1       0.021   4.132   0.025  0.00  0.00    +0.001 A 
ATOM     31  C   UNL     1      -1.187   3.445   0.032  0.00  0.00    +0.002 A 
ATOM     32  C   UNL     1      -1.215   2.069   0.030  0.00  0.00    +0.028 A 
ATOM     33  C   UNL     1      -0.016   1.352   0.009  0.00  0.00    +0.078 A 
ATOM     34  N   UNL     1       0.002  -0.004   0.002  0.00  0.00    -0.233 NA
ENDBRANCH  21  23
ENDBRANCH  20  21
ENDBRANCH   5  20
TORSDOF 5
