REMARK  Name = ZINC57675800
REMARK  5 active torsions:
REMARK  status: ('A' for Active; 'I' for Inactive)
REMARK    1  A    between atoms: C_1  and  C_2
REMARK    2  A    between atoms: C_2  and  C_4
REMARK    3  A    between atoms: C_2  and  N_14
REMARK    4  A    between atoms: C_15  and  C_17
REMARK    5  A    between atoms: C_22  and  O_23
REMARK                            x       y       z     vdW  Elec       q    Type
REMARK                         _______ _______ _______ _____ _____    ______ ____
ROOT
ATOM      1  N   UNL     1       0.711  -0.489   1.189  0.00  0.00    -0.305 N 
ATOM      2  C   UNL     1       0.051  -0.633   2.355  0.00  0.00    +0.248 C 
ATOM      3  O   UNL     1      -1.132  -0.361   2.423  0.00  0.00    -0.270 OA
ATOM      4  H   UNL     1       1.654  -0.707   1.135  0.00  0.00    +0.150 HD
ENDROOT
BRANCH   2   5
ATOM      5  C   UNL     1       0.765  -1.122   3.551  0.00  0.00    +0.079 A 
ATOM      6  C   UNL     1       2.125  -1.431   3.479  0.00  0.00    +0.036 A 
ATOM      7  C   UNL     1       2.786  -1.888   4.600  0.00  0.00    +0.042 A 
ATOM      8  C   UNL     1       2.106  -2.041   5.798  0.00  0.00    +0.023 A 
ATOM      9  C   UNL     1       0.762  -1.739   5.882  0.00  0.00    +0.047 A 
ATOM     10  C   UNL     1       0.083  -1.274   4.766  0.00  0.00    +0.129 A 
ATOM     11 CL   UNL     1       4.477  -2.272   4.510  0.00  0.00    -0.084 Cl
BRANCH  10  12
ATOM     12  O   UNL     1      -1.237  -0.971   4.848  0.00  0.00    -0.506 OA
ATOM     13  H   UNL     1      -1.824  -1.714   4.654  0.00  0.00    +0.292 HD
ENDBRANCH  10  12
ENDBRANCH   2   5
BRANCH   1  15
ATOM     14  C   UNL     1      -0.019   1.526   0.010  0.00  0.00    +0.033 C 
ATOM     15  C   UNL     1       0.002  -0.004   0.002  0.00  0.00    +0.101 C 
BRANCH  15  16
ATOM     16  C   UNL     1       0.707  -0.490  -1.238  0.00  0.00    -0.024 A 
ATOM     17  C   UNL     1       2.089  -0.510  -1.283  0.00  0.00    +0.009 A 
ATOM     18  C   UNL     1       2.740  -0.954  -2.418  0.00  0.00    +0.050 A 
ATOM     19  C   UNL     1       2.007  -1.381  -3.517  0.00  0.00    +0.162 A 
ATOM     20  C   UNL     1       0.619  -1.363  -3.471  0.00  0.00    +0.162 A 
ATOM     21  C   UNL     1      -0.028  -0.920  -2.326  0.00  0.00    +0.055 A 
ATOM     22  O   UNL     1      -0.119  -1.784  -4.534  0.00  0.00    -0.485 OA
ATOM     23  C   UNL     1       0.559  -1.874  -5.792  0.00  0.00    +0.270 C 
ATOM     24  C   UNL     1       1.901  -2.582  -5.566  0.00  0.00    +0.270 C 
ATOM     25  O   UNL     1       2.662  -1.811  -4.629  0.00  0.00    -0.485 OA
ENDBRANCH  15  16
ENDBRANCH   1  15
TORSDOF 4
