REMARK  Name = ZINC58161895
REMARK  7 active torsions:
REMARK  status: ('A' for Active; 'I' for Inactive)
REMARK    1  A    between atoms: C_1  and  N_2
REMARK    2  A    between atoms: C_3  and  C_23
REMARK    3  A    between atoms: N_5  and  C_8
REMARK    4  A    between atoms: C_8  and  N_9
REMARK    5  A    between atoms: N_9  and  C_10
REMARK    6  A    between atoms: C_10  and  C_16
REMARK    7  A    between atoms: C_23  and  C_24
REMARK                            x       y       z     vdW  Elec       q    Type
REMARK                         _______ _______ _______ _____ _____    ______ ____
ROOT
ATOM      1  C   UNL     1       1.405  -3.459   0.103  0.00  0.00    +0.069 C 
ENDROOT
BRANCH   1   6
ATOM      2  C   UNL     1      -0.198   1.212   0.637  0.00  0.00    +0.152 C 
ATOM      3  N   UNL     1      -0.167  -0.238   0.426  0.00  0.00    -0.310 N 
ATOM      4  C   UNL     1      -1.258  -1.041   0.201  0.00  0.00    +0.132 A 
ATOM      5  N   UNL     1      -0.856  -2.263   0.060  0.00  0.00    -0.158 NA
ATOM      6  N   UNL     1       0.539  -2.281   0.193  0.00  0.00    -0.258 N 
ATOM      7  C   UNL     1       0.938  -1.010   0.413  0.00  0.00    +0.176 A 
ATOM      8  S   UNL     1       2.549  -0.478   0.639  0.00  0.00    -0.011 S 
BRANCH   4   9
ATOM      9  C   UNL     1      -2.690  -0.576   0.131  0.00  0.00    +0.081 C 
BRANCH   9  10
ATOM     10  C   UNL     1      -3.604  -1.774  -0.134  0.00  0.00    +0.019 C 
ATOM     11  C   UNL     1      -3.325  -2.338  -1.537  0.00  0.00    +0.028 C 
ATOM     12  C   UNL     1      -4.444  -3.329  -1.939  0.00  0.00    +0.166 C 
ATOM     13  S   UNL     1      -5.895  -2.702  -1.000  0.00  0.00    -0.031 S 
ATOM     14  O   UNL     1      -6.839  -2.160  -1.914  0.00  0.00    -0.174 OA
ATOM     15  O   UNL     1      -6.311  -3.696  -0.073  0.00  0.00    -0.174 OA
ATOM     16  C   UNL     1      -5.091  -1.323  -0.081  0.00  0.00    +0.170 C 
ENDBRANCH   9  10
ENDBRANCH   4   9
ENDBRANCH   1   6
BRANCH   1  17
ATOM     17  N   UNL     1       1.536  -3.865  -1.302  0.00  0.00    +0.398 N 
ATOM     18  H   UNL     1       0.639  -4.172  -1.648  0.00  0.00    -0.082 HD
ATOM     19  H   UNL     1       1.857  -3.081  -1.850  0.00  0.00    -0.082 HD
BRANCH  17  20
ATOM     20  C   UNL     1       2.503  -4.965  -1.406  0.00  0.00    -0.040 C 
ATOM     21  C   UNL     1       2.062  -6.120  -0.505  0.00  0.00    -0.008 C 
ATOM     22  C   UNL     1       0.682  -6.612  -0.945  0.00  0.00    -0.001 C 
ATOM     23  C   UNL     1       0.751  -7.095  -2.395  0.00  0.00    -0.000 C 
ATOM     24  C   UNL     1       1.192  -5.940  -3.296  0.00  0.00    -0.001 C 
ATOM     25  C   UNL     1       2.573  -5.448  -2.856  0.00  0.00    -0.008 C 
BRANCH  20  26
ATOM     26  C   UNL     1       3.863  -4.481  -0.973  0.00  0.00    -0.058 A 
ATOM     27  C   UNL     1       4.778  -5.372  -0.443  0.00  0.00    +0.004 A 
ATOM     28  C   UNL     1       6.025  -4.928  -0.045  0.00  0.00    +0.020 A 
ATOM     29  C   UNL     1       6.358  -3.592  -0.177  0.00  0.00    +0.041 A 
ATOM     30  C   UNL     1       5.442  -2.700  -0.707  0.00  0.00    +0.020 A 
ATOM     31  C   UNL     1       4.197  -3.147  -1.110  0.00  0.00    +0.004 A 
ATOM     32 CL   UNL     1       7.924  -3.034   0.323  0.00  0.00    -0.084 Cl
ENDBRANCH  20  26
ENDBRANCH  17  20
ENDBRANCH   1  17
TORSDOF 6
