REMARK  Name = ZINC39206230
REMARK  4 active torsions:
REMARK  status: ('A' for Active; 'I' for Inactive)
REMARK    1  A    between atoms: C_6  and  C_7
REMARK    2  A    between atoms: C_10  and  C_12
REMARK    3  A    between atoms: C_13  and  C_14
REMARK    4  A    between atoms: C_13  and  C_16
REMARK                            x       y       z     vdW  Elec       q    Type
REMARK                         _______ _______ _______ _____ _____    ______ ____
ROOT
ATOM      1  C   UNL     1      -4.820  -1.049   0.034  0.00  0.00    +0.064 C 
ATOM      2  C   UNL     1      -5.354   0.198   0.039  0.00  0.00    +0.071 C 
ENDROOT
BRANCH   2   3
ATOM      3  C   UNL     1      -6.850   0.377   0.049  0.00  0.00    +0.216 C 
ATOM      4  N   UNL     1      -7.258   1.129   1.254  0.00  0.00    -0.265 NA
ATOM      5  C   UNL     1      -8.054   2.248   0.742  0.00  0.00    +0.223 C 
ATOM      6  C   UNL     1      -7.891   2.213  -0.768  0.00  0.00    +0.078 C 
ATOM      7  N   UNL     1      -7.266   1.155  -1.121  0.00  0.00    -0.260 NA
ATOM      8  C   UNL     1      -8.343   3.360  -1.582  0.00  0.00    +0.043 C 
ATOM      9  C   UNL     1      -8.231   4.557  -0.929  0.00  0.00    +0.037 C 
ATOM     10  C   UNL     1      -7.657   4.587   0.419  0.00  0.00    +0.122 C 
ATOM     11  N   UNL     1      -7.584   3.550   1.210  0.00  0.00    -0.265 NA
ATOM     12 BR   UNL     1      -8.811   6.155  -1.756  0.00  0.00    -0.049 Br
ATOM     13  H   UNL     1      -7.804   0.551   1.874  0.00  0.00    +0.127 HD
ENDBRANCH   2   3
BRANCH   1  17
ATOM     14  C   UNL     1      -1.264  -0.762   0.010  0.00  0.00    +0.136 A 
ATOM     15  C   UNL     1      -1.377  -2.124   0.009  0.00  0.00    +0.050 A 
ATOM     16  C   UNL     1      -2.742  -2.424   0.018  0.00  0.00    +0.050 A 
ATOM     17  C   UNL     1      -3.415  -1.217   0.025  0.00  0.00    +0.130 A 
ATOM     18  O   UNL     1      -2.498  -0.227   0.025  0.00  0.00    -0.455 OA
BRANCH  14  24
ATOM     19  C   UNL     1      -0.017   1.393   0.010  0.00  0.00    +0.013 A 
ATOM     20  C   UNL     1       1.170   2.096   0.002  0.00  0.00    +0.022 A 
ATOM     21  C   UNL     1       2.378   1.421  -0.013  0.00  0.00    +0.059 A 
ATOM     22  C   UNL     1       2.405   0.035  -0.021  0.00  0.00    +0.060 A 
ATOM     23  C   UNL     1       1.225  -0.680  -0.014  0.00  0.00    +0.033 A 
ATOM     24  C   UNL     1       0.002  -0.004   0.002  0.00  0.00    +0.019 A 
ATOM     25 CL   UNL     1       3.925  -0.803  -0.040  0.00  0.00    -0.082 Cl
ATOM     26 CL   UNL     1       3.867   2.314  -0.023  0.00  0.00    -0.082 Cl
ENDBRANCH  14  24
ENDBRANCH   1  17
BRANCH   2  27
ATOM     27  C   UNL     1      -4.496   1.345   0.035  0.00  0.00    +0.098 C 
ATOM     28  N   UNL     1      -3.815   2.254   0.032  0.00  0.00    -0.191 NA
ENDBRANCH   2  27
TORSDOF 4
