REMARK  Name = ZINC25147338
REMARK  2 active torsions:
REMARK  status: ('A' for Active; 'I' for Inactive)
REMARK    1  A    between atoms: C_3  and  N_9
REMARK    2  A    between atoms: C_25  and  C_27
REMARK                            x       y       z     vdW  Elec       q    Type
REMARK                         _______ _______ _______ _____ _____    ______ ____
ROOT
ATOM      1  N   UNL     1      -1.712   4.585  -4.486  0.00  0.00    -0.226 N 
ATOM      2  C   UNL     1      -1.415   3.584  -3.624  0.00  0.00    +0.270 A 
ATOM      3  O   UNL     1      -1.225   2.443  -4.002  0.00  0.00    -0.266 OA
ATOM      4  C   UNL     1      -1.333   3.961  -2.194  0.00  0.00    +0.074 A 
ATOM      5  C   UNL     1      -1.033   3.082  -1.077  0.00  0.00    -0.020 A 
ATOM      6  C   UNL     1      -1.017   3.674   0.140  0.00  0.00    +0.013 A 
ATOM      7  S   UNL     1      -1.396   5.377  -0.171  0.00  0.00    -0.073 S 
ATOM      8  C   UNL     1      -1.570   5.307  -1.873  0.00  0.00    +0.094 A 
ATOM      9  N   UNL     1      -1.865   6.257  -2.813  0.00  0.00    -0.301 N 
ATOM     10  H   UNL     1      -2.042   7.298  -2.506  0.00  0.00    +0.171 HD
ATOM     11  C   UNL     1      -1.926   5.851  -4.105  0.00  0.00    +0.335 A 
ATOM     12  O   UNL     1      -2.187   6.676  -4.960  0.00  0.00    -0.246 OA
ATOM     13  C   UNL     1      -0.733   3.017   1.456  0.00  0.00    +0.150 C 
ATOM     14  N   UNL     1      -0.700   1.560   1.219  0.00  0.00    -0.292 N 
ATOM     15  C   UNL     1      -0.013   1.086   0.008  0.00  0.00    +0.113 C 
ATOM     16  C   UNL     1      -0.752   1.592  -1.232  0.00  0.00    +0.056 C 
ATOM     17  C   UNL     1      -1.278   0.697   2.078  0.00  0.00    +0.252 C 
ATOM     18  O   UNL     1      -1.237  -0.498   1.860  0.00  0.00    -0.270 OA
ENDROOT
BRANCH  17  19
ATOM     19  C   UNL     1      -1.960   1.203   3.283  0.00  0.00    +0.107 A 
ATOM     20  C   UNL     1      -3.321   1.528   3.237  0.00  0.00    +0.141 A 
ATOM     21  C   UNL     1      -3.954   1.996   4.372  0.00  0.00    +0.077 A 
ATOM     22  C   UNL     1      -3.243   2.156   5.551  0.00  0.00    +0.129 A 
ATOM     23  C   UNL     1      -1.894   1.842   5.602  0.00  0.00    +0.077 A 
ATOM     24  C   UNL     1      -1.248   1.368   4.478  0.00  0.00    +0.141 A 
ATOM     25  F   UNL     1       0.067   1.062   4.530  0.00  0.00    -0.205 F 
ATOM     26  F   UNL     1      -3.868   2.620   6.655  0.00  0.00    -0.205 F 
ATOM     27  F   UNL     1      -4.014   1.378   2.088  0.00  0.00    -0.205 F 
ENDBRANCH  17  19
BRANCH   1  30
ATOM     28  C   UNL     1      -0.763   4.061  -8.003  0.00  0.00    +0.040 A 
ATOM     29  C   UNL     1      -0.674   4.363  -6.658  0.00  0.00    +0.032 A 
ATOM     30  C   UNL     1      -1.801   4.278  -5.853  0.00  0.00    +0.090 A 
ATOM     31  C   UNL     1      -3.016   3.883  -6.400  0.00  0.00    +0.150 A 
ATOM     32  C   UNL     1      -3.102   3.587  -7.748  0.00  0.00    +0.078 A 
ATOM     33  C   UNL     1      -1.975   3.674  -8.549  0.00  0.00    +0.126 A 
ATOM     34  F   UNL     1      -2.059   3.379  -9.865  0.00  0.00    -0.205 F 
ATOM     35  F   UNL     1      -4.114   3.795  -5.617  0.00  0.00    -0.203 F 
ENDBRANCH   1  30
TORSDOF 2
