REMARK  Name = ZINC11790181
REMARK  9 active torsions:
REMARK  status: ('A' for Active; 'I' for Inactive)
REMARK    1  A    between atoms: C_1  and  C_2
REMARK    2  A    between atoms: N_4  and  C_5
REMARK    3  A    between atoms: C_7  and  C_22
REMARK    4  A    between atoms: N_11  and  C_14
REMARK    5  A    between atoms: C_14  and  C_15
REMARK    6  A    between atoms: C_15  and  C_16
REMARK    7  A    between atoms: N_24  and  C_25
REMARK    8  A    between atoms: C_25  and  C_26
REMARK    9  A    between atoms: C_26  and  C_27
REMARK                            x       y       z     vdW  Elec       q    Type
REMARK                         _______ _______ _______ _____ _____    ______ ____
ROOT
ATOM      1  C   UNL     1       1.062   7.944  -2.178  0.00  0.00    +0.060 A 
ATOM      2  C   UNL     1       1.822   9.045  -2.519  0.00  0.00    +0.038 A 
ATOM      3  C   UNL     1       1.335  10.338  -2.288  0.00  0.00    +0.041 A 
ATOM      4  C   UNL     1       0.082  10.522  -1.713  0.00  0.00    +0.043 A 
ATOM      5  C   UNL     1      -0.691   9.414  -1.366  0.00  0.00    +0.092 A 
ATOM      6  C   UNL     1      -0.197   8.120  -1.601  0.00  0.00    +0.090 A 
ATOM      7  N   UNL     1      -1.174   7.253  -1.159  0.00  0.00    -0.328 N 
ATOM      8  C   UNL     1      -2.204   8.008  -0.688  0.00  0.00    +0.200 A 
ATOM      9  N   UNL     1      -1.920   9.272  -0.804  0.00  0.00    -0.236 NA
ENDROOT
BRANCH   1  13
ATOM     10  C   UNL     1       2.925   5.043  -3.692  0.00  0.00    +0.109 C 
ATOM     11  C   UNL     1       2.460   6.443  -3.385  0.00  0.00    +0.214 C 
ATOM     12  O   UNL     1       2.903   7.380  -4.014  0.00  0.00    -0.276 OA
ATOM     13  N   UNL     1       1.553   6.653  -2.411  0.00  0.00    -0.284 N 
ATOM     14  H   UNL     1       1.240   5.911  -1.871  0.00  0.00    +0.155 HD
ENDBRANCH   1  13
BRANCH   3  15
ATOM     15  C   UNL     1       2.155  11.510  -2.656  0.00  0.00    +0.244 C 
ATOM     16  O   UNL     1       3.251  11.351  -3.159  0.00  0.00    -0.270 OA
ATOM     17  N   UNL     1       1.689  12.755  -2.434  0.00  0.00    -0.311 N 
ATOM     18  H   UNL     1       0.815  12.881  -2.033  0.00  0.00    +0.149 HD
BRANCH  17  19
ATOM     19  C   UNL     1       2.503  13.917  -2.799  0.00  0.00    +0.109 C 
BRANCH  19  20
ATOM     20  C   UNL     1       1.748  15.200  -2.444  0.00  0.00    +0.056 C 
BRANCH  20  21
ATOM     21  C   UNL     1       2.584  16.395  -2.820  0.00  0.00    -0.021 A 
ATOM     22  C   UNL     1       3.403  17.083  -2.008  0.00  0.00    +0.087 A 
ATOM     23  N   UNL     1       3.998  18.103  -2.700  0.00  0.00    -0.360 N 
ATOM     24  H   UNL     1       4.632  18.734  -2.327  0.00  0.00    +0.165 HD
ATOM     25  C   UNL     1       3.559  18.101  -4.005  0.00  0.00    +0.047 A 
ATOM     26  C   UNL     1       2.654  17.032  -4.137  0.00  0.00    +0.003 A 
ATOM     27  C   UNL     1       2.043  16.784  -5.368  0.00  0.00    +0.010 A 
ATOM     28  C   UNL     1       2.327  17.583  -6.439  0.00  0.00    +0.001 A 
ATOM     29  C   UNL     1       3.218  18.640  -6.314  0.00  0.00    +0.002 A 
ATOM     30  C   UNL     1       3.833  18.902  -5.109  0.00  0.00    +0.026 A 
ENDBRANCH  20  21
ENDBRANCH  19  20
ENDBRANCH  17  19
ENDBRANCH   3  15
BRANCH   7  31
ATOM     31  C   UNL     1      -1.117   5.790  -1.195  0.00  0.00    +0.129 C 
BRANCH  31  32
ATOM     32  C   UNL     1      -0.291   5.282  -0.011  0.00  0.00    +0.077 C 
BRANCH  32  33
ATOM     33  C   UNL     1      -0.232   3.777  -0.049  0.00  0.00    +0.043 A 
ATOM     34  C   UNL     1       0.995   3.141  -0.044  0.00  0.00    +0.023 A 
ATOM     35  C   UNL     1       1.038   1.756  -0.078  0.00  0.00    +0.003 A 
ATOM     36  C   UNL     1      -0.161   1.059  -0.116  0.00  0.00    +0.020 A 
ATOM     37  C   UNL     1      -1.349   1.764  -0.124  0.00  0.00    +0.111 A 
ATOM     38  N   UNL     1      -1.352   3.082  -0.085  0.00  0.00    -0.260 NA
ENDBRANCH  32  33
ENDBRANCH  31  32
ENDBRANCH   7  31
TORSDOF 8
