REMARK  Name = ZINC21672083
REMARK  9 active torsions:
REMARK  status: ('A' for Active; 'I' for Inactive)
REMARK    1  A    between atoms: C_1  and  C_2
REMARK    2  A    between atoms: C_2  and  C_4
REMARK    3  A    between atoms: C_2  and  S_17
REMARK    4  A    between atoms: C_4  and  C_6
REMARK    5  A    between atoms: C_7  and  N_16
REMARK    6  A    between atoms: N_8  and  C_15
REMARK    7  A    between atoms: N_11  and  C_14
REMARK    8  A    between atoms: S_17  and  C_18
REMARK    9  A    between atoms: C_20  and  C_27
REMARK                            x       y       z     vdW  Elec       q    Type
REMARK                         _______ _______ _______ _____ _____    ______ ____
ROOT
ATOM      1  C   UNL     1      -0.532   1.496   1.151  0.00  0.00    +0.028 C 
ATOM      2  C   UNL     1       0.170   1.053  -0.135  0.00  0.00    +0.121 C 
ENDROOT
BRANCH   2   3
ATOM      3  C   UNL     1       1.566   1.620  -0.166  0.00  0.00    +0.185 C 
ATOM      4  O   UNL     1       1.785   2.663  -0.750  0.00  0.00    -0.291 OA
BRANCH   3   5
ATOM      5  C   UNL     1       2.618   0.940   0.482  0.00  0.00    +0.121 A 
ATOM      6  C   UNL     1       3.948   1.379   0.362  0.00  0.00    +0.116 A 
ATOM      7  N   UNL     1       4.932   0.691   1.013  0.00  0.00    -0.284 N 
ATOM      8  C   UNL     1       4.653  -0.395   1.751  0.00  0.00    +0.333 A 
ATOM      9  O   UNL     1       5.565  -0.975   2.307  0.00  0.00    -0.246 OA
ATOM     10  N   UNL     1       3.404  -0.864   1.897  0.00  0.00    -0.263 N 
ATOM     11  C   UNL     1       2.360  -0.253   1.300  0.00  0.00    +0.269 A 
ATOM     12  O   UNL     1       1.229  -0.680   1.435  0.00  0.00    -0.267 OA
ATOM     13  C   UNL     1       3.170  -2.056   2.717  0.00  0.00    +0.157 C 
ATOM     14  C   UNL     1       6.321   1.144   0.899  0.00  0.00    +0.155 C 
BRANCH   6  15
ATOM     15  N   UNL     1       4.250   2.474  -0.386  0.00  0.00    -0.344 N 
ATOM     16  H   UNL     1       5.294   2.810  -0.474  0.00  0.00    +0.144 HD
ATOM     17  H   UNL     1       3.450   3.025  -0.903  0.00  0.00    +0.144 HD
ENDBRANCH   6  15
ENDBRANCH   3   5
ENDBRANCH   2   3
BRANCH   2  18
ATOM     18  S   UNL     1      -0.758   1.655  -1.567  0.00  0.00    -0.094 S 
BRANCH  18  19
ATOM     19  C   UNL     1      -2.253   0.744  -1.368  0.00  0.00    +0.110 A 
ATOM     20  C   UNL     1      -3.321   0.903  -2.293  0.00  0.00    +0.047 A 
ATOM     21  C   UNL     1      -3.405   1.744  -3.482  0.00  0.00    +0.001 A 
ATOM     22  C   UNL     1      -4.541   1.719  -4.219  0.00  0.00    +0.056 A 
ATOM     23  S   UNL     1      -5.570   0.547  -3.356  0.00  0.00    -0.076 S 
ATOM     24  C   UNL     1      -4.465   0.120  -2.037  0.00  0.00    +0.113 A 
ATOM     25  N   UNL     1      -4.525  -0.691  -0.998  0.00  0.00    -0.228 NA
ATOM     26  C   UNL     1      -3.503  -0.792  -0.170  0.00  0.00    +0.223 A 
ATOM     27  N   UNL     1      -2.398  -0.092  -0.352  0.00  0.00    -0.228 NA
BRANCH  21  28
ATOM     28  C   UNL     1      -2.271   2.615  -3.872  0.00  0.00    -0.016 A 
ATOM     29  C   UNL     1      -2.454   3.993  -3.988  0.00  0.00    +0.011 A 
ATOM     30  C   UNL     1      -1.394   4.800  -4.347  0.00  0.00    +0.039 A 
ATOM     31  C   UNL     1      -0.152   4.242  -4.603  0.00  0.00    +0.123 A 
ATOM     32  C   UNL     1       0.034   2.874  -4.494  0.00  0.00    +0.039 A 
ATOM     33  C   UNL     1      -1.019   2.059  -4.131  0.00  0.00    +0.011 A 
ATOM     34  F   UNL     1       0.882   5.036  -4.959  0.00  0.00    -0.205 F 
ENDBRANCH  21  28
ENDBRANCH  18  19
ENDBRANCH   2  18
TORSDOF 6
