REMARK  Name = ZINC43714018
REMARK  5 active torsions:
REMARK  status: ('A' for Active; 'I' for Inactive)
REMARK    1  A    between atoms: C_1  and  C_2
REMARK    2  A    between atoms: C_2  and  C_4
REMARK    3  A    between atoms: C_2  and  N_12
REMARK    4  A    between atoms: N_15  and  C_16
REMARK    5  A    between atoms: C_19  and  C_22
REMARK                            x       y       z     vdW  Elec       q    Type
REMARK                         _______ _______ _______ _____ _____    ______ ____
ROOT
ATOM      1  N   UNL     1      -1.371  -0.516   0.012  0.00  0.00    -0.293 N 
ATOM      2  C   UNL     1      -2.052  -0.640  -1.144  0.00  0.00    +0.304 C 
ATOM      3  O   UNL     1      -1.526  -0.329  -2.196  0.00  0.00    -0.252 OA
ATOM      4  N   UNL     1      -3.315  -1.109  -1.135  0.00  0.00    -0.269 N 
ATOM      5  H   UNL     1      -1.790  -0.765   0.851  0.00  0.00    +0.151 HD
ATOM      6  H   UNL     1      -3.711  -1.420  -0.306  0.00  0.00    +0.156 HD
ENDROOT
BRANCH   4   7
ATOM      7  C   UNL     1      -4.053  -1.147  -2.317  0.00  0.00    +0.035 A 
ATOM      8  C   UNL     1      -3.419  -1.431  -3.523  0.00  0.00    +0.024 A 
ATOM      9  C   UNL     1      -4.144  -1.470  -4.692  0.00  0.00    +0.015 A 
ATOM     10  C   UNL     1      -5.520  -1.224  -4.667  0.00  0.00    +0.037 A 
ATOM     11  C   UNL     1      -6.154  -0.939  -3.455  0.00  0.00    +0.015 A 
ATOM     12  C   UNL     1      -5.423  -0.907  -2.289  0.00  0.00    +0.024 A 
BRANCH  10  13
ATOM     13  C   UNL     1      -6.301  -1.264  -5.919  0.00  0.00    +0.242 C 
ATOM     14  O   UNL     1      -5.748  -1.511  -6.973  0.00  0.00    -0.270 OA
ATOM     15  N   UNL     1      -7.627  -1.026  -5.893  0.00  0.00    -0.325 N 
ATOM     16  H   UNL     1      -8.069  -0.829  -5.052  0.00  0.00    +0.145 HD
ATOM     17  H   UNL     1      -8.141  -1.053  -6.716  0.00  0.00    +0.145 HD
ENDBRANCH  10  13
ENDBRANCH   4   7
BRANCH   1  19
ATOM     18  C   UNL     1      -0.021   1.523   0.022  0.00  0.00    +0.033 C 
ATOM     19  C   UNL     1       0.003  -0.007   0.002  0.00  0.00    +0.102 C 
BRANCH  19  20
ATOM     20  C   UNL     1       0.736  -0.514   1.218  0.00  0.00    -0.026 A 
ATOM     21  C   UNL     1       0.088  -0.580   2.437  0.00  0.00    +0.007 A 
ATOM     22  C   UNL     1       0.759  -1.044   3.553  0.00  0.00    +0.022 A 
ATOM     23  C   UNL     1       2.079  -1.445   3.449  0.00  0.00    +0.059 A 
ATOM     24  C   UNL     1       2.728  -1.379   2.227  0.00  0.00    +0.060 A 
ATOM     25  C   UNL     1       2.053  -0.919   1.111  0.00  0.00    +0.027 A 
ATOM     26 CL   UNL     1       4.385  -1.881   2.095  0.00  0.00    -0.082 Cl
ATOM     27 CL   UNL     1       2.923  -2.028   4.850  0.00  0.00    -0.082 Cl
ENDBRANCH  19  20
ENDBRANCH   1  19
TORSDOF 4
